@<TRIPOS>MOLECULE
*****
 99 101 0 0 0
SMALL
GASTEIGER

@<TRIPOS>ATOM
      1 C           4.5556    3.8456    3.1929 C.3     1  UNL1       -0.0650
      2 C           4.1121    2.6683    2.3511 C.3     1  UNL1       -0.0512
      3 C           3.2865    3.0667    1.1791 C.3     1  UNL1       -0.0171
      4 C           2.0216    3.7822    1.4895 C.3     1  UNL1       -0.0603
      5 C           3.0785    1.8216    0.2985 C.3     1  UNL1        0.1020
      6 N           2.4006    0.7699    1.0178 N.am    1  UNL1       -0.3022
      7 C           1.1775    0.1974    0.6213 C.2     1  UNL1        0.2340
      8 O           0.6534    0.6036   -0.4404 O.2     1  UNL1       -0.2738
      9 C           0.5054   -0.8353    1.4030 C.3     1  UNL1        0.0999
     10 C           1.2796   -1.9592    1.9298 C.3     1  UNL1       -0.0177
     11 C           1.9818   -2.8390    0.9620 C.3     1  UNL1        0.0259
     12 C           2.6799   -3.9068    1.7018 C.2     1  UNL1        0.2106
     13 N           3.3310   -4.9474    1.0116 N.am    1  UNL1       -0.3293
     14 O           2.7002   -3.8984    2.9550 O.2     1  UNL1       -0.2760
     15 N          -0.7673   -1.2457    0.7740 N.am    1  UNL1       -0.3025
     16 C          -1.9473   -0.4925    0.9701 C.2     1  UNL1        0.2344
     17 O          -1.8479    0.5358    1.6869 O.2     1  UNL1       -0.2737
     18 C          -3.2809   -0.8198    0.3981 C.3     1  UNL1        0.1065
     19 C          -3.1555   -1.2424   -1.0287 C.3     1  UNL1        0.0014
     20 C          -4.4657   -1.5802   -1.6322 C.ar    1  UNL1       -0.0201
     21 C          -5.1388   -0.7643   -2.5264 C.ar    1  UNL1        0.0060
     22 N          -6.2813   -1.4208   -2.8482 N.ar    1  UNL1       -0.3604
     23 C          -6.3351   -2.5990   -2.1910 C.ar    1  UNL1        0.0467
     24 C          -7.3211   -3.5878   -2.2201 C.ar    1  UNL1       -0.0378
     25 C          -7.1114   -4.7034   -1.4341 C.ar    1  UNL1       -0.0598
     26 C          -5.9905   -4.8527   -0.6532 C.ar    1  UNL1       -0.0611
     27 C          -5.0251   -3.8506   -0.6457 C.ar    1  UNL1       -0.0523
     28 C          -5.2014   -2.7187   -1.4199 C.ar    1  UNL1        0.0029
     29 N          -4.2105    0.2501    0.6050 N.am    1  UNL1       -0.2695
     30 C          -5.2671    0.2358    1.5360 C.2     1  UNL1        0.4012
     31 O          -5.4571   -0.7660    2.2613 O.2     1  UNL1       -0.2265
     32 O          -6.0992    1.3213    1.6628 O.3     1  UNL1       -0.4456
     33 C          -7.1640    1.4437    2.5495 C.3     1  UNL1        0.1191
     34 C          -7.7942    2.7954    2.3344 C.ar    1  UNL1       -0.0103
     35 C          -8.8378    2.9455    1.4632 C.ar    1  UNL1       -0.0554
     36 C          -9.4477    4.1687    1.2274 C.ar    1  UNL1       -0.0614
     37 C          -8.9379    5.2607    1.9329 C.ar    1  UNL1       -0.0617
     38 C          -7.8841    5.1196    2.8147 C.ar    1  UNL1       -0.0614
     39 C          -7.2991    3.8966    3.0293 C.ar    1  UNL1       -0.0554
     40 C           4.3889    1.4484   -0.2346 C.2     1  UNL1        0.2341
     41 O           5.0785    2.4007   -0.7402 O.2     1  UNL1       -0.2738
     42 N           4.9491    0.1638   -0.2429 N.am    1  UNL1       -0.3069
     43 C           6.2754   -0.1033   -0.7983 C.3     1  UNL1        0.0531
     44 C           6.1772   -0.6335   -2.1758 C.2     1  UNL1       -0.0459
     45 C           6.6194    0.0691   -3.1984 C.2     1  UNL1        0.0495
     46 S           6.5699   -0.4214   -4.8630 S.O2    1  UNL1       -0.0127
     47 C           8.1443   -0.2353   -5.6402 C.3     1  UNL1        0.0589
     48 O           5.5584    0.4411   -5.5986 O.2     1  UNL1       -0.1702
     49 O           6.0913   -1.8333   -4.9949 O.2     1  UNL1       -0.1702
     50 C           7.1011   -0.9586    0.0946 C.3     1  UNL1        0.0667
     51 C           8.4358   -1.2076   -0.4905 C.2     1  UNL1        0.3068
     52 O           8.7247   -0.7285   -1.6156 O.2     1  UNL1       -0.2509
     53 O           9.4022   -1.9632    0.1673 O.3     1  UNL1       -0.4806
     54 H           5.2211    4.4897    2.5954 H       1  UNL1        0.0230
     55 H           3.7195    4.3855    3.6778 H       1  UNL1        0.0230
     56 H           5.1628    3.4308    4.0269 H       1  UNL1        0.0230
     57 H           3.5819    1.9256    2.9643 H       1  UNL1        0.0266
     58 H           5.0462    2.1943    1.9842 H       1  UNL1        0.0266
     59 H           3.9174    3.7652    0.5555 H       1  UNL1        0.0321
     60 H           1.2465    3.5955    0.6890 H       1  UNL1        0.0233
     61 H           2.1953    4.8934    1.4613 H       1  UNL1        0.0233
     62 H           1.6094    3.5774    2.5049 H       1  UNL1        0.0233
     63 H           2.4441    2.1044   -0.5872 H       1  UNL1        0.0597
     64 H           2.8325    0.3903    1.8941 H       1  UNL1        0.1495
     65 H           0.1151   -0.2524    2.3147 H       1  UNL1        0.0595
     66 H           0.5931   -2.6359    2.5264 H       1  UNL1        0.0292
     67 H           2.0353   -1.6434    2.6998 H       1  UNL1        0.0292
     68 H           1.3169   -3.3504    0.2344 H       1  UNL1        0.0359
     69 H           2.7457   -2.3219    0.3446 H       1  UNL1        0.0359
     70 H           3.3799   -5.9413    1.2901 H       1  UNL1        0.1449
     71 H           3.8280   -4.6910    0.1063 H       1  UNL1        0.1449
     72 H          -0.8329   -2.0935    0.1777 H       1  UNL1        0.1495
     73 H          -3.7097   -1.6999    0.9757 H       1  UNL1        0.0599
     74 H          -2.4570   -2.1078   -1.1519 H       1  UNL1        0.0337
     75 H          -2.6614   -0.4202   -1.6264 H       1  UNL1        0.0337
     76 H          -4.7989    0.2010   -2.8807 H       1  UNL1        0.0810
     77 H          -6.9764   -1.0362   -3.5037 H       1  UNL1        0.1653
     78 H          -8.2079   -3.4887   -2.8267 H       1  UNL1        0.0638
     79 H          -7.8294   -5.5220   -1.3990 H       1  UNL1        0.0618
     80 H          -5.8018   -5.7219   -0.0243 H       1  UNL1        0.0618
     81 H          -4.1252   -3.9352   -0.0421 H       1  UNL1        0.0624
     82 H          -4.1133    1.1385    0.0179 H       1  UNL1        0.1528
     83 H          -7.9714    0.7018    2.4106 H       1  UNL1        0.0749
     84 H          -6.8333    1.3628    3.6174 H       1  UNL1        0.0749
     85 H          -9.2110    2.0836    0.9296 H       1  UNL1        0.0621
     86 H         -10.2604    4.2996    0.5534 H       1  UNL1        0.0618
     87 H          -9.4121    6.2133    1.7507 H       1  UNL1        0.0618
     88 H          -7.5297    6.0096    3.3317 H       1  UNL1        0.0618
     89 H          -6.4763    3.8024    3.7185 H       1  UNL1        0.0621
     90 H           4.4293   -0.6278    0.1461 H       1  UNL1        0.1493
     91 H           6.7719    0.9043   -0.8977 H       1  UNL1        0.0548
     92 H           5.7416   -1.5987   -2.3430 H       1  UNL1        0.0603
     93 H           7.0613    1.0605   -2.9721 H       1  UNL1        0.0816
     94 H           8.0543   -0.1827   -6.7515 H       1  UNL1        0.0468
     95 H           8.5692    0.7667   -5.3422 H       1  UNL1        0.0468
     96 H           8.8400   -1.0499   -5.4171 H       1  UNL1        0.0468
     97 H           7.2105   -0.5806    1.1281 H       1  UNL1        0.0399
     98 H           6.5371   -1.9344    0.2048 H       1  UNL1        0.0399
     99 H           9.9908   -2.5973   -0.3618 H       1  UNL1        0.2951
@<TRIPOS>BOND
     1     1     2    1
     2     2     3    1
     3     3     4    1
     4     3     5    1
     5     5     6    1
     6     6     7   am
     7     7     8    2
     8     7     9    1
     9     9    10    1
    10    10    11    1
    11    11    12    1
    12    12    13   am
    13    12    14    2
    14     9    15    1
    15    15    16   am
    16    16    17    2
    17    16    18    1
    18    18    19    1
    19    19    20    1
    20    20    21   ar
    21    21    22   ar
    22    22    23   ar
    23    23    24   ar
    24    24    25   ar
    25    25    26   ar
    26    26    27   ar
    27    27    28   ar
    28    18    29    1
    29    29    30   am
    30    30    31    2
    31    30    32    1
    32    32    33    1
    33    33    34    1
    34    34    35   ar
    35    35    36   ar
    36    36    37   ar
    37    37    38   ar
    38    38    39   ar
    39     5    40    1
    40    40    41    2
    41    40    42   am
    42    42    43    1
    43    43    44    1
    44    44    45    2
    45    45    46    1
    46    46    47    1
    47    46    48    2
    48    46    49    2
    49    43    50    1
    50    50    51    1
    51    51    52    2
    52    51    53    1
    53    28    20   ar
    54    39    34   ar
    55    28    23   ar
    56     1    54    1
    57     1    55    1
    58     1    56    1
    59     2    57    1
    60     2    58    1
    61     3    59    1
    62     4    60    1
    63     4    61    1
    64     4    62    1
    65     5    63    1
    66     6    64    1
    67     9    65    1
    68    10    66    1
    69    10    67    1
    70    11    68    1
    71    11    69    1
    72    13    70    1
    73    13    71    1
    74    15    72    1
    75    18    73    1
    76    19    74    1
    77    19    75    1
    78    21    76    1
    79    22    77    1
    80    24    78    1
    81    25    79    1
    82    26    80    1
    83    27    81    1
    84    29    82    1
    85    33    83    1
    86    33    84    1
    87    35    85    1
    88    36    86    1
    89    37    87    1
    90    38    88    1
    91    39    89    1
    92    42    90    1
    93    43    91    1
    94    44    92    1
    95    45    93    1
    96    47    94    1
    97    47    95    1
    98    47    96    1
    99    50    97    1
   100    50    98    1
   101    53    99    1
