@<TRIPOS>MOLECULE
*****
 53 57 0 0 0
SMALL
GASTEIGER

@<TRIPOS>ATOM
      1 C           3.5837   -0.6991    2.3928 C.3     1  UNL1       -0.0275
      2 C           2.8753   -0.9210    1.0513 C.3     1  UNL1        0.1021
      3 O           2.5906    0.2732    0.4077 O.3     1  UNL1       -0.4879
      4 C           1.3734    0.7743    0.0256 C.ar    1  UNL1        0.1350
      5 C           0.2040    0.0920    0.2564 C.ar    1  UNL1       -0.0113
      6 C          -1.0157    0.6068   -0.1329 C.ar    1  UNL1       -0.0094
      7 C          -2.2631   -0.1244    0.1146 C.ar    1  UNL1        0.0198
      8 C          -2.4171   -1.4948    0.1407 C.ar    1  UNL1        0.0571
      9 N          -3.7150   -1.7129    0.4007 N.ar    1  UNL1       -0.1788
     10 N          -4.3817   -0.5867    0.5387 N.ar    1  UNL1       -0.2678
     11 C          -5.8153   -0.4249    0.8277 C.3     1  UNL1        0.0527
     12 C          -6.2585   -1.4226    1.8816 C.3     1  UNL1       -0.0304
     13 C          -6.7869   -2.2968    0.7737 C.3     1  UNL1       -0.0492
     14 C          -6.7047   -1.1241   -0.1747 C.3     1  UNL1       -0.0304
     15 C          -3.4922    0.4058    0.3635 C.ar    1  UNL1        0.0335
     16 C          -1.0328    1.8235   -0.7598 C.ar    1  UNL1       -0.0258
     17 C           0.1199    2.5443   -1.0122 C.ar    1  UNL1        0.0998
     18 N           0.3962    3.7318   -1.5940 N.ar    1  UNL1       -0.1689
     19 N           1.6964    3.9678   -1.5822 N.ar    1  UNL1       -0.2408
     20 C           2.4051    5.1387   -2.1113 C.3     1  UNL1        0.0331
     21 C           2.2906    2.9262   -0.9862 C.ar    1  UNL1        0.2228
     22 F           3.6273    2.8189   -0.7941 F       1  UNL1       -0.1834
     23 C           1.3283    1.9977   -0.6076 C.ar    1  UNL1        0.0975
     24 C           3.8616   -1.6876    0.1903 C.3     1  UNL1        0.0195
     25 C           3.2737   -1.9749   -1.1848 C.3     1  UNL1        0.0182
     26 N           4.4829   -2.2451   -1.9486 N.am    1  UNL1       -0.3149
     27 C           5.5545   -1.4954   -1.3958 C.2     1  UNL1        0.2135
     28 O           6.7152   -1.3892   -1.8592 O.2     1  UNL1       -0.2758
     29 C           5.0653   -0.8456   -0.1548 C.3     1  UNL1        0.0315
     30 H           4.5237   -0.1068    2.2164 H       1  UNL1        0.0265
     31 H           3.8812   -1.6835    2.8024 H       1  UNL1        0.0265
     32 H           2.9582   -0.1810    3.1171 H       1  UNL1        0.0265
     33 H           1.9954   -1.5449    1.2888 H       1  UNL1        0.0733
     34 H           0.1772   -0.8671    0.7464 H       1  UNL1        0.0660
     35 H          -1.6126   -2.2015   -0.0235 H       1  UNL1        0.0854
     36 H          -6.0511    0.6177    1.0459 H       1  UNL1        0.0545
     37 H          -5.3950   -1.9064    2.3931 H       1  UNL1        0.0286
     38 H          -7.0301   -1.0336    2.5869 H       1  UNL1        0.0286
     39 H          -6.0716   -3.0873    0.4486 H       1  UNL1        0.0267
     40 H          -7.8161   -2.6684    0.9089 H       1  UNL1        0.0267
     41 H          -7.6766   -0.5955   -0.2568 H       1  UNL1        0.0286
     42 H          -6.2312   -1.3481   -1.1516 H       1  UNL1        0.0286
     43 H          -3.7123    1.4627    0.4115 H       1  UNL1        0.0832
     44 H          -1.9807    2.2607   -1.0815 H       1  UNL1        0.0646
     45 H           2.9349    5.6136   -1.2571 H       1  UNL1        0.0474
     46 H           1.7104    5.8337   -2.5856 H       1  UNL1        0.0474
     47 H           3.1718    4.8163   -2.8510 H       1  UNL1        0.0474
     48 H           4.1670   -2.6408    0.6707 H       1  UNL1        0.0356
     49 H           2.5666   -2.8041   -1.1850 H       1  UNL1        0.0466
     50 H           2.8572   -1.0335   -1.5891 H       1  UNL1        0.0466
     51 H           4.5301   -2.8887   -2.7654 H       1  UNL1        0.1487
     52 H           5.8274   -0.8613    0.6527 H       1  UNL1        0.0363
     53 H           4.7150    0.1916   -0.3747 H       1  UNL1        0.0363
@<TRIPOS>BOND
     1     1     2    1
     2     2     3    1
     3     3     4    1
     4     4     5   ar
     5     5     6   ar
     6     6     7    1
     7     7     8   ar
     8     8     9   ar
     9     9    10   ar
    10    10    11    1
    11    11    12    1
    12    12    13    1
    13    13    14    1
    14    10    15   ar
    15     6    16   ar
    16    16    17   ar
    17    17    18   ar
    18    18    19   ar
    19    19    20    1
    20    19    21   ar
    21    21    22    1
    22    21    23   ar
    23     2    24    1
    24    24    25    1
    25    25    26    1
    26    26    27   am
    27    27    28    2
    28    27    29    1
    29    23     4   ar
    30    29    24    1
    31    15     7   ar
    32    23    17   ar
    33    14    11    1
    34     1    30    1
    35     1    31    1
    36     1    32    1
    37     2    33    1
    38     5    34    1
    39     8    35    1
    40    11    36    1
    41    12    37    1
    42    12    38    1
    43    13    39    1
    44    13    40    1
    45    14    41    1
    46    14    42    1
    47    15    43    1
    48    16    44    1
    49    20    45    1
    50    20    46    1
    51    20    47    1
    52    24    48    1
    53    25    49    1
    54    25    50    1
    55    26    51    1
    56    29    52    1
    57    29    53    1
