
     RDKit          3D

 53 57  0  0  0  0  0  0  0  0999 V2000
    3.5837   -0.6991    2.3928 C   0  0  0  0  0  0  0  0  0  0  0  0
    2.8753   -0.9210    1.0513 C   0  0  1  0  0  0  0  0  0  0  0  0
    2.5906    0.2732    0.4077 O   0  0  0  0  0  0  0  0  0  0  0  0
    1.3734    0.7743    0.0256 C   0  0  0  0  0  0  0  0  0  0  0  0
    0.2040    0.0920    0.2564 C   0  0  0  0  0  0  0  0  0  0  0  0
   -1.0157    0.6068   -0.1329 C   0  0  0  0  0  0  0  0  0  0  0  0
   -2.2631   -0.1244    0.1146 C   0  0  0  0  0  0  0  0  0  0  0  0
   -2.4171   -1.4948    0.1407 C   0  0  0  0  0  0  0  0  0  0  0  0
   -3.7150   -1.7129    0.4007 N   0  0  0  0  0  0  0  0  0  0  0  0
   -4.3817   -0.5867    0.5387 N   0  0  0  0  0  0  0  0  0  0  0  0
   -5.8153   -0.4249    0.8277 C   0  0  0  0  0  0  0  0  0  0  0  0
   -6.2585   -1.4226    1.8816 C   0  0  0  0  0  0  0  0  0  0  0  0
   -6.7869   -2.2968    0.7737 C   0  0  0  0  0  0  0  0  0  0  0  0
   -6.7047   -1.1241   -0.1747 C   0  0  0  0  0  0  0  0  0  0  0  0
   -3.4922    0.4058    0.3635 C   0  0  0  0  0  0  0  0  0  0  0  0
   -1.0328    1.8235   -0.7598 C   0  0  0  0  0  0  0  0  0  0  0  0
    0.1199    2.5443   -1.0122 C   0  0  0  0  0  0  0  0  0  0  0  0
    0.3962    3.7318   -1.5940 N   0  0  0  0  0  0  0  0  0  0  0  0
    1.6964    3.9678   -1.5822 N   0  0  0  0  0  0  0  0  0  0  0  0
    2.4051    5.1387   -2.1113 C   0  0  0  0  0  0  0  0  0  0  0  0
    2.2906    2.9262   -0.9862 C   0  0  0  0  0  0  0  0  0  0  0  0
    3.6273    2.8189   -0.7941 F   0  0  0  0  0  0  0  0  0  0  0  0
    1.3283    1.9977   -0.6076 C   0  0  0  0  0  0  0  0  0  0  0  0
    3.8616   -1.6876    0.1903 C   0  0  1  0  0  0  0  0  0  0  0  0
    3.2737   -1.9749   -1.1848 C   0  0  0  0  0  0  0  0  0  0  0  0
    4.4829   -2.2451   -1.9486 N   0  0  0  0  0  0  0  0  0  0  0  0
    5.5545   -1.4954   -1.3958 C   0  0  0  0  0  0  0  0  0  0  0  0
    6.7152   -1.3892   -1.8592 O   0  0  0  0  0  0  0  0  0  0  0  0
    5.0653   -0.8456   -0.1548 C   0  0  0  0  0  0  0  0  0  0  0  0
    4.5237   -0.1068    2.2164 H   0  0  0  0  0  0  0  0  0  0  0  0
    3.8812   -1.6835    2.8024 H   0  0  0  0  0  0  0  0  0  0  0  0
    2.9582   -0.1810    3.1171 H   0  0  0  0  0  0  0  0  0  0  0  0
    1.9954   -1.5449    1.2888 H   0  0  0  0  0  0  0  0  0  0  0  0
    0.1772   -0.8671    0.7464 H   0  0  0  0  0  0  0  0  0  0  0  0
   -1.6126   -2.2015   -0.0235 H   0  0  0  0  0  0  0  0  0  0  0  0
   -6.0511    0.6177    1.0459 H   0  0  0  0  0  0  0  0  0  0  0  0
   -5.3950   -1.9064    2.3931 H   0  0  0  0  0  0  0  0  0  0  0  0
   -7.0301   -1.0336    2.5869 H   0  0  0  0  0  0  0  0  0  0  0  0
   -6.0716   -3.0873    0.4486 H   0  0  0  0  0  0  0  0  0  0  0  0
   -7.8161   -2.6684    0.9089 H   0  0  0  0  0  0  0  0  0  0  0  0
   -7.6766   -0.5955   -0.2568 H   0  0  0  0  0  0  0  0  0  0  0  0
   -6.2312   -1.3481   -1.1516 H   0  0  0  0  0  0  0  0  0  0  0  0
   -3.7123    1.4627    0.4115 H   0  0  0  0  0  0  0  0  0  0  0  0
   -1.9807    2.2607   -1.0815 H   0  0  0  0  0  0  0  0  0  0  0  0
    2.9349    5.6136   -1.2571 H   0  0  0  0  0  0  0  0  0  0  0  0
    1.7104    5.8337   -2.5856 H   0  0  0  0  0  0  0  0  0  0  0  0
    3.1718    4.8163   -2.8510 H   0  0  0  0  0  0  0  0  0  0  0  0
    4.1670   -2.6408    0.6707 H   0  0  0  0  0  0  0  0  0  0  0  0
    2.5666   -2.8041   -1.1850 H   0  0  0  0  0  0  0  0  0  0  0  0
    2.8572   -1.0335   -1.5891 H   0  0  0  0  0  0  0  0  0  0  0  0
    4.5301   -2.8887   -2.7654 H   0  0  0  0  0  0  0  0  0  0  0  0
    5.8274   -0.8613    0.6527 H   0  0  0  0  0  0  0  0  0  0  0  0
    4.7150    0.1916   -0.3747 H   0  0  0  0  0  0  0  0  0  0  0  0
  1  2  1  0
  2  3  1  0
  3  4  1  0
  4  5  2  0
  5  6  1  0
  6  7  1  0
  7  8  1  0
  8  9  2  0
  9 10  1  0
 10 11  1  0
 11 12  1  0
 12 13  1  0
 13 14  1  0
 10 15  1  0
  6 16  2  0
 16 17  1  0
 17 18  2  0
 18 19  1  0
 19 20  1  0
 19 21  1  0
 21 22  1  0
 21 23  2  0
  2 24  1  0
 24 25  1  0
 25 26  1  0
 26 27  1  0
 27 28  2  0
 27 29  1  0
 23  4  1  0
 29 24  1  0
 15  7  2  0
 23 17  1  0
 14 11  1  0
  1 30  1  0
  1 31  1  0
  1 32  1  0
  2 33  1  1
  5 34  1  0
  8 35  1  0
 11 36  1  0
 12 37  1  0
 12 38  1  0
 13 39  1  0
 13 40  1  0
 14 41  1  0
 14 42  1  0
 15 43  1  0
 16 44  1  0
 20 45  1  0
 20 46  1  0
 20 47  1  0
 24 48  1  1
 25 49  1  0
 25 50  1  0
 26 51  1  0
 29 52  1  0
 29 53  1  0
M  END
$$$$
