@<TRIPOS>MOLECULE
*****
 31 31 0 0 0
SMALL
GASTEIGER

@<TRIPOS>ATOM
      1 O           2.4904   -1.1873    1.3299 O.3     1  UNL1       -0.3937
      2 C           2.8491   -0.6535    0.0838 C.3     1  UNL1        0.0569
      3 C           1.9530    0.5038   -0.2743 C.3     1  UNL1        0.0226
      4 N           0.6082    0.2570   -0.3759 N.3     1  UNL1       -0.2901
      5 C           0.0772   -0.5435   -1.4071 C.3     1  UNL1        0.0280
      6 C          -0.9915   -1.4791   -0.8357 C.3     1  UNL1        0.0962
      7 O          -1.6550   -2.1050   -1.9025 O.3     1  UNL1       -0.3879
      8 C          -2.0116   -0.6984   -0.0845 C.3     1  UNL1        0.1095
      9 O          -2.9341   -1.5579    0.5006 O.3     1  UNL1       -0.3866
     10 C          -1.3542    0.2006    0.9562 C.3     1  UNL1        0.1011
     11 O          -2.3084    0.9573    1.6256 O.3     1  UNL1       -0.3875
     12 C          -0.3812    1.0671    0.1894 C.3     1  UNL1        0.0622
     13 C           0.0640    2.2752    0.9485 C.3     1  UNL1        0.0622
     14 O           0.7875    3.1261    0.1144 O.3     1  UNL1       -0.3934
     15 H           2.9165   -2.0644    1.4618 H       1  UNL1        0.2095
     16 H           2.8361   -1.4862   -0.6282 H       1  UNL1        0.0570
     17 H           3.9002   -0.3052    0.1903 H       1  UNL1        0.0570
     18 H           2.1603    1.2824    0.4954 H       1  UNL1        0.0449
     19 H           2.3251    0.9214   -1.2361 H       1  UNL1        0.0449
     20 H           0.7704   -1.0563   -2.0719 H       1  UNL1        0.0453
     21 H          -0.5196    0.1603   -2.0528 H       1  UNL1        0.0453
     22 H          -0.5130   -2.2354   -0.1945 H       1  UNL1        0.0633
     23 H          -1.6892   -3.0959   -1.7359 H       1  UNL1        0.2099
     24 H          -2.5506   -0.0192   -0.7884 H       1  UNL1        0.0646
     25 H          -3.1487   -2.2433   -0.1941 H       1  UNL1        0.2100
     26 H          -0.8313   -0.4665    1.6553 H       1  UNL1        0.0636
     27 H          -2.0878    1.0415    2.5809 H       1  UNL1        0.2100
     28 H          -0.9923    1.4563   -0.6790 H       1  UNL1        0.0511
     29 H           0.6250    2.0368    1.8699 H       1  UNL1        0.0573
     30 H          -0.8132    2.8817    1.2770 H       1  UNL1        0.0573
     31 H           0.4184    3.0297   -0.8180 H       1  UNL1        0.2095
@<TRIPOS>BOND
     1     1     2    1
     2     2     3    1
     3     3     4    1
     4     4     5    1
     5     5     6    1
     6     6     7    1
     7     6     8    1
     8     8     9    1
     9     8    10    1
    10    10    11    1
    11    10    12    1
    12    12    13    1
    13    13    14    1
    14    12     4    1
    15     1    15    1
    16     2    16    1
    17     2    17    1
    18     3    18    1
    19     3    19    1
    20     5    20    1
    21     5    21    1
    22     6    22    1
    23     7    23    1
    24     8    24    1
    25     9    25    1
    26    10    26    1
    27    11    27    1
    28    12    28    1
    29    13    29    1
    30    13    30    1
    31    14    31    1
