@<TRIPOS>MOLECULE
*****
 42 43 0 0 0
SMALL
GASTEIGER

@<TRIPOS>ATOM
      1 C           5.8859    1.8589   -0.7216 C.3     1  UNL1        0.0788
      2 O           5.4686    0.5177   -0.4514 O.3     1  UNL1       -0.4951
      3 C           4.1710    0.2778   -0.0239 C.ar    1  UNL1        0.1202
      4 C           3.2633    1.3295    0.1471 C.ar    1  UNL1       -0.0181
      5 C           1.9758    1.0897    0.5714 C.ar    1  UNL1       -0.0319
      6 C           1.5814   -0.1980    0.8290 C.ar    1  UNL1        0.1057
      7 S          -0.0811   -0.4881    1.3795 S.O2    1  UNL1        0.0616
      8 O          -0.4272    0.6739    2.2283 O.2     1  UNL1       -0.1528
      9 O          -0.0790   -1.7520    2.1958 O.2     1  UNL1       -0.1528
     10 N          -1.0457   -0.6669    0.0063 N.3     1  UNL1       -0.1634
     11 C          -0.6262   -1.7923   -0.7863 C.3     1  UNL1        0.0991
     12 C          -1.2741   -3.0529   -0.4041 C.2     1  UNL1        0.2512
     13 O          -2.1045   -3.0523    0.5403 O.2     1  UNL1       -0.2723
     14 N          -1.0278   -4.2952   -1.0335 N.am    1  UNL1       -0.1964
     15 O          -1.6267   -5.4543   -0.6785 O.3     1  UNL1       -0.2952
     16 C          -2.4473   -0.5432    0.1529 C.3     1  UNL1        0.0461
     17 C          -2.9357    0.8287   -0.1312 C.ar    1  UNL1       -0.0316
     18 C          -3.1290    1.7462    0.8759 C.ar    1  UNL1       -0.0559
     19 C          -3.5771    3.0414    0.6056 C.ar    1  UNL1       -0.0431
     20 C          -3.8355    3.4250   -0.6830 C.ar    1  UNL1        0.0410
     21 CL         -4.3990    5.0322   -1.0895 Cl      1  UNL1       -0.0835
     22 C          -3.6472    2.5162   -1.7050 C.ar    1  UNL1       -0.0431
     23 C          -3.2052    1.2450   -1.4214 C.ar    1  UNL1       -0.0559
     24 C           2.4783   -1.2213    0.6585 C.ar    1  UNL1       -0.0319
     25 C           3.7680   -1.0135    0.2368 C.ar    1  UNL1       -0.0181
     26 H           5.6217    2.4529    0.1958 H       1  UNL1        0.0660
     27 H           5.2743    2.2346   -1.5538 H       1  UNL1        0.0660
     28 H           6.9643    1.9199   -0.8906 H       1  UNL1        0.0660
     29 H           3.6023    2.3296   -0.0631 H       1  UNL1        0.0655
     30 H           1.2926    1.9160    0.6964 H       1  UNL1        0.0638
     31 H           0.4806   -1.8312   -0.7544 H       1  UNL1        0.0540
     32 H          -0.9619   -1.5744   -1.8411 H       1  UNL1        0.0540
     33 H          -0.3306   -4.2869   -1.8239 H       1  UNL1        0.1822
     34 H          -2.3761   -5.6360   -1.2880 H       1  UNL1        0.2414
     35 H          -2.9291   -1.1987   -0.6207 H       1  UNL1        0.0493
     36 H          -2.8427   -0.9190    1.1214 H       1  UNL1        0.0493
     37 H          -2.9576    1.5178    1.9172 H       1  UNL1        0.0621
     38 H          -3.7214    3.7435    1.4064 H       1  UNL1        0.0632
     39 H          -3.8505    2.8081   -2.7475 H       1  UNL1        0.0632
     40 H          -3.0626    0.5431   -2.2379 H       1  UNL1        0.0621
     41 H           2.1877   -2.2522    0.8595 H       1  UNL1        0.0638
     42 H           4.4853   -1.8195    0.0991 H       1  UNL1        0.0655
@<TRIPOS>BOND
     1     1     2    1
     2     2     3    1
     3     3     4   ar
     4     4     5   ar
     5     5     6   ar
     6     6     7    1
     7     7     8    2
     8     7     9    2
     9     7    10    1
    10    10    11    1
    11    11    12    1
    12    12    13    2
    13    12    14   am
    14    14    15    1
    15    10    16    1
    16    16    17    1
    17    17    18   ar
    18    18    19   ar
    19    19    20   ar
    20    20    21    1
    21    20    22   ar
    22    22    23   ar
    23     6    24   ar
    24    24    25   ar
    25    25     3   ar
    26    23    17   ar
    27     1    26    1
    28     1    27    1
    29     1    28    1
    30     4    29    1
    31     5    30    1
    32    11    31    1
    33    11    32    1
    34    14    33    1
    35    15    34    1
    36    16    35    1
    37    16    36    1
    38    18    37    1
    39    19    38    1
    40    22    39    1
    41    23    40    1
    42    24    41    1
    43    25    42    1
