
     RDKit          3D

 42 43  0  0  0  0  0  0  0  0999 V2000
    5.8859    1.8589   -0.7216 C   0  0  0  0  0  0  0  0  0  0  0  0
    5.4686    0.5177   -0.4514 O   0  0  0  0  0  0  0  0  0  0  0  0
    4.1710    0.2778   -0.0239 C   0  0  0  0  0  0  0  0  0  0  0  0
    3.2633    1.3295    0.1471 C   0  0  0  0  0  0  0  0  0  0  0  0
    1.9758    1.0897    0.5714 C   0  0  0  0  0  0  0  0  0  0  0  0
    1.5814   -0.1980    0.8290 C   0  0  0  0  0  0  0  0  0  0  0  0
   -0.0811   -0.4881    1.3795 S   0  0  0  0  0  6  0  0  0  0  0  0
   -0.4272    0.6739    2.2283 O   0  0  0  0  0  0  0  0  0  0  0  0
   -0.0790   -1.7520    2.1958 O   0  0  0  0  0  0  0  0  0  0  0  0
   -1.0457   -0.6669    0.0063 N   0  0  0  0  0  0  0  0  0  0  0  0
   -0.6262   -1.7923   -0.7863 C   0  0  0  0  0  0  0  0  0  0  0  0
   -1.2741   -3.0529   -0.4041 C   0  0  0  0  0  0  0  0  0  0  0  0
   -2.1045   -3.0523    0.5403 O   0  0  0  0  0  0  0  0  0  0  0  0
   -1.0278   -4.2952   -1.0335 N   0  0  0  0  0  0  0  0  0  0  0  0
   -1.6267   -5.4543   -0.6785 O   0  0  0  0  0  0  0  0  0  0  0  0
   -2.4473   -0.5432    0.1529 C   0  0  0  0  0  0  0  0  0  0  0  0
   -2.9357    0.8287   -0.1312 C   0  0  0  0  0  0  0  0  0  0  0  0
   -3.1290    1.7462    0.8759 C   0  0  0  0  0  0  0  0  0  0  0  0
   -3.5771    3.0414    0.6056 C   0  0  0  0  0  0  0  0  0  0  0  0
   -3.8355    3.4250   -0.6830 C   0  0  0  0  0  0  0  0  0  0  0  0
   -4.3990    5.0322   -1.0895 Cl  0  0  0  0  0  0  0  0  0  0  0  0
   -3.6472    2.5162   -1.7050 C   0  0  0  0  0  0  0  0  0  0  0  0
   -3.2052    1.2450   -1.4214 C   0  0  0  0  0  0  0  0  0  0  0  0
    2.4783   -1.2213    0.6585 C   0  0  0  0  0  0  0  0  0  0  0  0
    3.7680   -1.0135    0.2368 C   0  0  0  0  0  0  0  0  0  0  0  0
    5.6217    2.4529    0.1958 H   0  0  0  0  0  0  0  0  0  0  0  0
    5.2743    2.2346   -1.5538 H   0  0  0  0  0  0  0  0  0  0  0  0
    6.9643    1.9199   -0.8906 H   0  0  0  0  0  0  0  0  0  0  0  0
    3.6023    2.3296   -0.0631 H   0  0  0  0  0  0  0  0  0  0  0  0
    1.2926    1.9160    0.6964 H   0  0  0  0  0  0  0  0  0  0  0  0
    0.4806   -1.8312   -0.7544 H   0  0  0  0  0  0  0  0  0  0  0  0
   -0.9619   -1.5744   -1.8411 H   0  0  0  0  0  0  0  0  0  0  0  0
   -0.3306   -4.2869   -1.8239 H   0  0  0  0  0  0  0  0  0  0  0  0
   -2.3761   -5.6360   -1.2880 H   0  0  0  0  0  0  0  0  0  0  0  0
   -2.9291   -1.1987   -0.6207 H   0  0  0  0  0  0  0  0  0  0  0  0
   -2.8427   -0.9190    1.1214 H   0  0  0  0  0  0  0  0  0  0  0  0
   -2.9576    1.5178    1.9172 H   0  0  0  0  0  0  0  0  0  0  0  0
   -3.7214    3.7435    1.4064 H   0  0  0  0  0  0  0  0  0  0  0  0
   -3.8505    2.8081   -2.7475 H   0  0  0  0  0  0  0  0  0  0  0  0
   -3.0626    0.5431   -2.2379 H   0  0  0  0  0  0  0  0  0  0  0  0
    2.1877   -2.2522    0.8595 H   0  0  0  0  0  0  0  0  0  0  0  0
    4.4853   -1.8195    0.0991 H   0  0  0  0  0  0  0  0  0  0  0  0
  1  2  1  0
  2  3  1  0
  3  4  2  0
  4  5  1  0
  5  6  2  0
  6  7  1  0
  7  8  2  0
  7  9  2  0
  7 10  1  0
 10 11  1  0
 11 12  1  0
 12 13  2  0
 12 14  1  0
 14 15  1  0
 10 16  1  0
 16 17  1  0
 17 18  2  0
 18 19  1  0
 19 20  2  0
 20 21  1  0
 20 22  1  0
 22 23  2  0
  6 24  1  0
 24 25  2  0
 25  3  1  0
 23 17  1  0
  1 26  1  0
  1 27  1  0
  1 28  1  0
  4 29  1  0
  5 30  1  0
 11 31  1  0
 11 32  1  0
 14 33  1  0
 15 34  1  0
 16 35  1  0
 16 36  1  0
 18 37  1  0
 19 38  1  0
 22 39  1  0
 23 40  1  0
 24 41  1  0
 25 42  1  0
M  END
$$$$
