@<TRIPOS>MOLECULE
*****
 15 15 0 0 0
SMALL
GASTEIGER

@<TRIPOS>ATOM
      1 O          -2.9397    0.6307    0.3607 O.3     1  UNL1        0.0000
      2 C          -2.0367   -0.4306    0.3264 C.2     1  UNL1        0.0000
      3 O          -2.4502   -1.6107    0.4694 O.2     1  UNL1        0.0000
      4 C          -0.6145   -0.1742    0.1252 C.ar    1  UNL1        0.0000
      5 C           0.2616   -1.2402    0.0948 C.ar    1  UNL1        0.0000
      6 C           1.6358   -1.0644   -0.0942 C.ar    1  UNL1        0.0000
      7 C           2.0399    0.2623   -0.2472 C.ar    1  UNL1        0.0000
      8 HG          4.0646    0.5959   -0.5313 Hg      1  UNL1        0.0000
      9 C           1.1841    1.3301   -0.2195 C.ar    1  UNL1        0.0000
     10 C          -0.1685    1.1223   -0.0309 C.ar    1  UNL1        0.0000
     11 H          -3.8888    0.4867   -0.0076 H       1  UNL1        0.0000
     12 H          -0.0326   -2.2782    0.2117 H       1  UNL1        0.0000
     13 H           2.3296   -1.8832   -0.1203 H       1  UNL1        0.0000
     14 H           1.5217    2.3492   -0.3406 H       1  UNL1        0.0000
     15 H          -0.9065    1.9043    0.0036 H       1  UNL1        0.0000
@<TRIPOS>BOND
     1     1     2    1
     2     2     3    2
     3     2     4    1
     4     4     5   ar
     5     5     6   ar
     6     6     7   ar
     7     7     8    1
     8     7     9   ar
     9     9    10   ar
    10    10     4   ar
    11     1    11    1
    12     5    12    1
    13     6    13    1
    14     9    14    1
    15    10    15    1
