@<TRIPOS>MOLECULE
*****
 54 57 0 0 0
SMALL
GASTEIGER

@<TRIPOS>ATOM
      1 C           6.1736   -3.0831   -0.0279 C.3     1  UNL1        0.0789
      2 O           5.2668   -2.0038   -0.1108 O.3     1  UNL1       -0.4928
      3 C           5.5314   -0.8451    0.6269 C.ar    1  UNL1        0.1519
      4 C           6.6673   -0.7886    1.4127 C.ar    1  UNL1        0.0021
      5 C           6.9500    0.3425    2.1491 C.ar    1  UNL1        0.0625
      6 CL          8.3940    0.4415    3.1612 Cl      1  UNL1       -0.0819
      7 C           6.0875    1.4175    2.0939 C.ar    1  UNL1        0.0470
      8 N           5.0070    1.3143    1.3225 N.ar    1  UNL1       -0.2453
      9 C           4.6783    0.2425    0.5840 C.ar    1  UNL1        0.1672
     10 C           3.4753    0.2032   -0.2382 C.2     1  UNL1        0.2702
     11 O           3.2237   -0.8299   -0.9065 O.2     1  UNL1       -0.2680
     12 N           2.5657    1.2900   -0.3192 N.am    1  UNL1       -0.2801
     13 C           1.3849    1.2337   -1.1348 C.ar    1  UNL1        0.0343
     14 C           1.3994    1.6451   -2.4513 C.ar    1  UNL1       -0.0377
     15 C           0.2670    1.5905   -3.2318 C.ar    1  UNL1       -0.0243
     16 C          -0.9417    1.1178   -2.7265 C.ar    1  UNL1        0.1312
     17 F          -2.0467    1.0777   -3.5347 F       1  UNL1       -0.2050
     18 C          -0.9455    0.7105   -1.4143 C.ar    1  UNL1        0.0450
     19 C          -2.2362    0.1979   -0.8447 C.3     1  UNL1        0.2272
     20 C          -2.4831   -1.1142   -1.6197 C.3     1  UNL1       -0.0082
     21 N          -2.0147   -0.1618    0.4976 N.2     1  UNL1       -0.0696
     22 C          -2.8194   -0.2499    1.4775 C.2     1  UNL1        0.3075
     23 N          -2.3786   -0.6385    2.7706 N.pl3   1  UNL1       -0.2488
     24 C          -4.2361    0.0715    1.2488 C.3     1  UNL1        0.1918
     25 C          -5.0105    0.1516    2.5156 C.3     1  UNL1       -0.0163
     26 C          -6.1174   -0.6444    1.8551 C.3     1  UNL1       -0.0479
     27 C          -5.1220   -1.0329    0.7817 C.3     1  UNL1       -0.0163
     28 S          -4.2824    1.5415    0.2476 S.O2    1  UNL1        0.0220
     29 O          -5.7099    1.8499   -0.1637 O.2     1  UNL1       -0.1703
     30 O          -3.6774    2.7014    0.9846 O.2     1  UNL1       -0.1703
     31 C          -3.2741    1.2011   -1.1661 C.3     1  UNL1        0.2674
     32 F          -4.1159    0.6567   -2.1521 F       1  UNL1       -0.2156
     33 C           0.1890    0.7654   -0.6328 C.ar    1  UNL1       -0.0300
     34 H           6.4011   -3.3842    1.0105 H       1  UNL1        0.0660
     35 H           7.1524   -2.8571   -0.5154 H       1  UNL1        0.0660
     36 H           5.6741   -3.9385   -0.5690 H       1  UNL1        0.0660
     37 H           7.3529   -1.6340    1.4610 H       1  UNL1        0.0670
     38 H           6.3239    2.3046    2.6813 H       1  UNL1        0.0845
     39 H           2.7967    2.1409    0.2472 H       1  UNL1        0.1552
     40 H           2.3376    2.0144   -2.8510 H       1  UNL1        0.0637
     41 H           0.2651    1.9148   -4.2806 H       1  UNL1        0.0647
     42 H          -3.5651   -1.3573   -1.6418 H       1  UNL1        0.0280
     43 H          -2.0565   -1.0323   -2.6370 H       1  UNL1        0.0280
     44 H          -1.9438   -1.9340   -1.1050 H       1  UNL1        0.0280
     45 H          -1.7914   -0.0093    3.3878 H       1  UNL1        0.2881
     46 H          -2.6478   -1.5756    3.1123 H       1  UNL1        0.2881
     47 H          -5.3101    1.1687    2.8413 H       1  UNL1        0.0292
     48 H          -4.5778   -0.4471    3.3404 H       1  UNL1        0.0292
     49 H          -6.8877    0.0182    1.4226 H       1  UNL1        0.0267
     50 H          -6.4932   -1.5022    2.4487 H       1  UNL1        0.0267
     51 H          -5.4840   -0.8245   -0.2589 H       1  UNL1        0.0292
     52 H          -4.7167   -2.0590    0.8602 H       1  UNL1        0.0292
     53 H          -2.8679    2.1780   -1.5129 H       1  UNL1        0.0951
     54 H           0.1892    0.4438    0.4059 H       1  UNL1        0.0641
@<TRIPOS>BOND
     1     1     2    1
     2     2     3    1
     3     3     4   ar
     4     4     5   ar
     5     5     6    1
     6     5     7   ar
     7     7     8   ar
     8     8     9   ar
     9     9    10    1
    10    10    11    2
    11    10    12   am
    12    12    13    1
    13    13    14   ar
    14    14    15   ar
    15    15    16   ar
    16    16    17    1
    17    16    18   ar
    18    18    19    1
    19    19    20    1
    20    19    21    1
    21    21    22    2
    22    22    23    1
    23    22    24    1
    24    24    25    1
    25    25    26    1
    26    26    27    1
    27    24    28    1
    28    28    29    2
    29    28    30    2
    30    28    31    1
    31    31    32    1
    32    18    33   ar
    33     9     3   ar
    34    33    13   ar
    35    31    19    1
    36    27    24    1
    37     1    34    1
    38     1    35    1
    39     1    36    1
    40     4    37    1
    41     7    38    1
    42    12    39    1
    43    14    40    1
    44    15    41    1
    45    20    42    1
    46    20    43    1
    47    20    44    1
    48    23    45    1
    49    23    46    1
    50    25    47    1
    51    25    48    1
    52    26    49    1
    53    26    50    1
    54    27    51    1
    55    27    52    1
    56    31    53    1
    57    33    54    1
