
     RDKit          3D

 54 57  0  0  0  0  0  0  0  0999 V2000
    6.1736   -3.0831   -0.0279 C   0  0  0  0  0  0  0  0  0  0  0  0
    5.2668   -2.0038   -0.1108 O   0  0  0  0  0  0  0  0  0  0  0  0
    5.5314   -0.8451    0.6269 C   0  0  0  0  0  0  0  0  0  0  0  0
    6.6673   -0.7886    1.4127 C   0  0  0  0  0  0  0  0  0  0  0  0
    6.9500    0.3425    2.1491 C   0  0  0  0  0  0  0  0  0  0  0  0
    8.3940    0.4415    3.1612 Cl  0  0  0  0  0  0  0  0  0  0  0  0
    6.0875    1.4175    2.0939 C   0  0  0  0  0  0  0  0  0  0  0  0
    5.0070    1.3143    1.3225 N   0  0  0  0  0  0  0  0  0  0  0  0
    4.6783    0.2425    0.5840 C   0  0  0  0  0  0  0  0  0  0  0  0
    3.4753    0.2032   -0.2382 C   0  0  0  0  0  0  0  0  0  0  0  0
    3.2237   -0.8299   -0.9065 O   0  0  0  0  0  0  0  0  0  0  0  0
    2.5657    1.2900   -0.3192 N   0  0  0  0  0  0  0  0  0  0  0  0
    1.3849    1.2337   -1.1348 C   0  0  0  0  0  0  0  0  0  0  0  0
    1.3994    1.6451   -2.4513 C   0  0  0  0  0  0  0  0  0  0  0  0
    0.2670    1.5905   -3.2318 C   0  0  0  0  0  0  0  0  0  0  0  0
   -0.9417    1.1178   -2.7265 C   0  0  0  0  0  0  0  0  0  0  0  0
   -2.0467    1.0777   -3.5347 F   0  0  0  0  0  0  0  0  0  0  0  0
   -0.9455    0.7105   -1.4143 C   0  0  0  0  0  0  0  0  0  0  0  0
   -2.2362    0.1979   -0.8447 C   0  0  1  0  0  0  0  0  0  0  0  0
   -2.4831   -1.1142   -1.6197 C   0  0  0  0  0  0  0  0  0  0  0  0
   -2.0147   -0.1618    0.4976 N   0  0  0  0  0  0  0  0  0  0  0  0
   -2.8194   -0.2499    1.4775 C   0  0  0  0  0  0  0  0  0  0  0  0
   -2.3786   -0.6385    2.7706 N   0  0  0  0  0  0  0  0  0  0  0  0
   -4.2361    0.0715    1.2488 C   0  0  0  0  0  0  0  0  0  0  0  0
   -5.0105    0.1516    2.5156 C   0  0  0  0  0  0  0  0  0  0  0  0
   -6.1174   -0.6444    1.8551 C   0  0  0  0  0  0  0  0  0  0  0  0
   -5.1220   -1.0329    0.7817 C   0  0  0  0  0  0  0  0  0  0  0  0
   -4.2824    1.5415    0.2476 S   0  0  0  0  0  6  0  0  0  0  0  0
   -5.7099    1.8499   -0.1637 O   0  0  0  0  0  0  0  0  0  0  0  0
   -3.6774    2.7014    0.9846 O   0  0  0  0  0  0  0  0  0  0  0  0
   -3.2741    1.2011   -1.1661 C   0  0  2  0  0  0  0  0  0  0  0  0
   -4.1159    0.6567   -2.1521 F   0  0  0  0  0  0  0  0  0  0  0  0
    0.1890    0.7654   -0.6328 C   0  0  0  0  0  0  0  0  0  0  0  0
    6.4011   -3.3842    1.0105 H   0  0  0  0  0  0  0  0  0  0  0  0
    7.1524   -2.8571   -0.5154 H   0  0  0  0  0  0  0  0  0  0  0  0
    5.6741   -3.9385   -0.5690 H   0  0  0  0  0  0  0  0  0  0  0  0
    7.3529   -1.6340    1.4610 H   0  0  0  0  0  0  0  0  0  0  0  0
    6.3239    2.3046    2.6813 H   0  0  0  0  0  0  0  0  0  0  0  0
    2.7967    2.1409    0.2472 H   0  0  0  0  0  0  0  0  0  0  0  0
    2.3376    2.0144   -2.8510 H   0  0  0  0  0  0  0  0  0  0  0  0
    0.2651    1.9148   -4.2806 H   0  0  0  0  0  0  0  0  0  0  0  0
   -3.5651   -1.3573   -1.6418 H   0  0  0  0  0  0  0  0  0  0  0  0
   -2.0565   -1.0323   -2.6370 H   0  0  0  0  0  0  0  0  0  0  0  0
   -1.9438   -1.9340   -1.1050 H   0  0  0  0  0  0  0  0  0  0  0  0
   -1.7914   -0.0093    3.3878 H   0  0  0  0  0  0  0  0  0  0  0  0
   -2.6478   -1.5756    3.1123 H   0  0  0  0  0  0  0  0  0  0  0  0
   -5.3101    1.1687    2.8413 H   0  0  0  0  0  0  0  0  0  0  0  0
   -4.5778   -0.4471    3.3404 H   0  0  0  0  0  0  0  0  0  0  0  0
   -6.8877    0.0182    1.4226 H   0  0  0  0  0  0  0  0  0  0  0  0
   -6.4932   -1.5022    2.4487 H   0  0  0  0  0  0  0  0  0  0  0  0
   -5.4840   -0.8245   -0.2589 H   0  0  0  0  0  0  0  0  0  0  0  0
   -4.7167   -2.0590    0.8602 H   0  0  0  0  0  0  0  0  0  0  0  0
   -2.8679    2.1780   -1.5129 H   0  0  0  0  0  0  0  0  0  0  0  0
    0.1892    0.4438    0.4059 H   0  0  0  0  0  0  0  0  0  0  0  0
  1  2  1  0
  2  3  1  0
  3  4  2  0
  4  5  1  0
  5  6  1  0
  5  7  2  0
  7  8  1  0
  8  9  2  0
  9 10  1  0
 10 11  2  0
 10 12  1  0
 12 13  1  0
 13 14  2  0
 14 15  1  0
 15 16  2  0
 16 17  1  0
 16 18  1  0
 18 19  1  0
 19 20  1  6
 19 21  1  0
 21 22  2  0
 22 23  1  0
 22 24  1  0
 24 25  1  0
 25 26  1  0
 26 27  1  0
 24 28  1  0
 28 29  2  0
 28 30  2  0
 28 31  1  0
 31 32  1  0
 18 33  2  0
  9  3  1  0
 33 13  1  0
 31 19  1  0
 27 24  1  0
  1 34  1  0
  1 35  1  0
  1 36  1  0
  4 37  1  0
  7 38  1  0
 12 39  1  0
 14 40  1  0
 15 41  1  0
 20 42  1  0
 20 43  1  0
 20 44  1  0
 23 45  1  0
 23 46  1  0
 25 47  1  0
 25 48  1  0
 26 49  1  0
 26 50  1  0
 27 51  1  0
 27 52  1  0
 31 53  1  6
 33 54  1  0
M  END
$$$$
