
     RDKit          3D

 42 41  0  0  0  0  0  0  0  0999 V2000
    5.8601    0.5408   -0.4284 C   0  0  0  0  0  0  0  0  0  0  0  0
    4.5928   -0.0221    0.2291 C   0  0  0  0  0  0  0  0  0  0  0  0
    3.5084    0.0732   -0.7739 C   0  0  0  0  0  0  0  0  0  0  0  0
    2.1652   -0.4354   -0.2929 C   0  0  0  0  0  0  0  0  0  0  0  0
    1.6884    0.3266    0.9148 C   0  0  0  0  0  0  0  0  0  0  0  0
    0.4274   -0.0595    1.4387 N   0  0  0  0  0  0  0  0  0  0  0  0
    0.3793   -1.3599    2.0398 C   0  0  0  0  0  0  0  0  0  0  0  0
   -0.6709    0.1854    0.5300 C   0  0  0  0  0  0  0  0  0  0  0  0
   -1.9757   -0.1193    1.1929 C   0  0  0  0  0  0  0  0  0  0  0  0
   -3.1740    0.1007    0.3287 C   0  0  0  0  0  0  0  0  0  0  0  0
   -4.3006   -0.2082    1.1158 O   0  0  0  0  0  0  0  0  0  0  0  0
   -3.2060   -1.0474   -1.0926 P   0  0  0  0  0  5  0  0  0  0  0  0
   -2.7576   -0.3430   -2.3503 O   0  0  0  0  0  0  0  0  0  0  0  0
   -2.2816   -2.4111   -0.8276 O   0  0  0  0  0  0  0  0  0  0  0  0
   -4.8251   -1.5343   -1.3460 O   0  0  0  0  0  0  0  0  0  0  0  0
   -3.3238    1.7606   -0.3228 P   0  0  0  0  0  5  0  0  0  0  0  0
   -2.1742    2.0564   -1.2626 O   0  0  0  0  0  0  0  0  0  0  0  0
   -3.4478    2.9553    0.8473 O   0  0  0  0  0  0  0  0  0  0  0  0
   -4.7275    1.8154   -1.2950 O   0  0  0  0  0  0  0  0  0  0  0  0
    6.0409    1.5781   -0.0420 H   0  0  0  0  0  0  0  0  0  0  0  0
    6.7368   -0.0764   -0.2385 H   0  0  0  0  0  0  0  0  0  0  0  0
    5.7314    0.6532   -1.5205 H   0  0  0  0  0  0  0  0  0  0  0  0
    4.4230    0.5269    1.1635 H   0  0  0  0  0  0  0  0  0  0  0  0
    4.8251   -1.0713    0.4994 H   0  0  0  0  0  0  0  0  0  0  0  0
    3.3385    1.0811   -1.1705 H   0  0  0  0  0  0  0  0  0  0  0  0
    3.7929   -0.5693   -1.6514 H   0  0  0  0  0  0  0  0  0  0  0  0
    1.4719   -0.2932   -1.1547 H   0  0  0  0  0  0  0  0  0  0  0  0
    2.2196   -1.5307   -0.1371 H   0  0  0  0  0  0  0  0  0  0  0  0
    1.6038    1.3982    0.5895 H   0  0  0  0  0  0  0  0  0  0  0  0
    2.4619    0.3495    1.7259 H   0  0  0  0  0  0  0  0  0  0  0  0
   -0.1812   -1.4017    2.9941 H   0  0  0  0  0  0  0  0  0  0  0  0
   -0.1436   -2.0465    1.3294 H   0  0  0  0  0  0  0  0  0  0  0  0
    1.3668   -1.8212    2.2222 H   0  0  0  0  0  0  0  0  0  0  0  0
   -0.6007   -0.4319   -0.3812 H   0  0  0  0  0  0  0  0  0  0  0  0
   -0.6439    1.2745    0.2995 H   0  0  0  0  0  0  0  0  0  0  0  0
   -1.9876   -1.1942    1.4940 H   0  0  0  0  0  0  0  0  0  0  0  0
   -2.1264    0.4447    2.1320 H   0  0  0  0  0  0  0  0  0  0  0  0
   -4.9365    0.5422    1.0480 H   0  0  0  0  0  0  0  0  0  0  0  0
   -1.7164   -2.6206   -1.6175 H   0  0  0  0  0  0  0  0  0  0  0  0
   -5.1313   -1.9876   -0.5140 H   0  0  0  0  0  0  0  0  0  0  0  0
   -2.9216    3.7557    0.5319 H   0  0  0  0  0  0  0  0  0  0  0  0
   -5.3802    1.1663   -0.9422 H   0  0  0  0  0  0  0  0  0  0  0  0
  1  2  1  0
  2  3  1  0
  3  4  1  0
  4  5  1  0
  5  6  1  0
  6  7  1  0
  6  8  1  0
  8  9  1  0
  9 10  1  0
 10 11  1  0
 10 12  1  0
 12 13  2  0
 12 14  1  0
 12 15  1  0
 10 16  1  0
 16 17  2  0
 16 18  1  0
 16 19  1  0
  1 20  1  0
  1 21  1  0
  1 22  1  0
  2 23  1  0
  2 24  1  0
  3 25  1  0
  3 26  1  0
  4 27  1  0
  4 28  1  0
  5 29  1  0
  5 30  1  0
  7 31  1  0
  7 32  1  0
  7 33  1  0
  8 34  1  0
  8 35  1  0
  9 36  1  0
  9 37  1  0
 11 38  1  0
 14 39  1  0
 15 40  1  0
 18 41  1  0
 19 42  1  0
M  END
$$$$
