@<TRIPOS>MOLECULE
*****
 42 41 0 0 0
SMALL
GASTEIGER

@<TRIPOS>ATOM
      1 C           5.8601    0.5408   -0.4284 C.3     1  UNL1       -0.0653
      2 C           4.5928   -0.0221    0.2291 C.3     1  UNL1       -0.0559
      3 C           3.5084    0.0732   -0.7739 C.3     1  UNL1       -0.0521
      4 C           2.1652   -0.4354   -0.2929 C.3     1  UNL1       -0.0402
      5 C           1.6884    0.3266    0.9148 C.3     1  UNL1       -0.0014
      6 N           0.4274   -0.0595    1.4387 N.3     1  UNL1       -0.3052
      7 C           0.3793   -1.3599    2.0398 C.3     1  UNL1       -0.0128
      8 C          -0.6709    0.1854    0.5300 C.3     1  UNL1        0.0024
      9 C          -1.9757   -0.1193    1.1929 C.3     1  UNL1        0.0119
     10 C          -3.1740    0.1007    0.3287 C.3     1  UNL1        0.2682
     11 O          -4.3006   -0.2082    1.1158 O.3     1  UNL1       -0.3671
     12 P          -3.2060   -1.0474   -1.0926 P.3     1  UNL1        0.3710
     13 O          -2.7576   -0.3430   -2.3503 O.2     1  UNL1       -0.2551
     14 O          -2.2816   -2.4111   -0.8276 O.3     1  UNL1       -0.3217
     15 O          -4.8251   -1.5343   -1.3460 O.3     1  UNL1       -0.3217
     16 P          -3.3238    1.7606   -0.3228 P.3     1  UNL1        0.3710
     17 O          -2.1742    2.0564   -1.2626 O.2     1  UNL1       -0.2551
     18 O          -3.4478    2.9553    0.8473 O.3     1  UNL1       -0.3217
     19 O          -4.7275    1.8154   -1.2950 O.3     1  UNL1       -0.3217
     20 H           6.0409    1.5781   -0.0420 H       1  UNL1        0.0230
     21 H           6.7368   -0.0764   -0.2385 H       1  UNL1        0.0230
     22 H           5.7314    0.6532   -1.5205 H       1  UNL1        0.0230
     23 H           4.4230    0.5269    1.1635 H       1  UNL1        0.0263
     24 H           4.8251   -1.0713    0.4994 H       1  UNL1        0.0263
     25 H           3.3385    1.0811   -1.1705 H       1  UNL1        0.0266
     26 H           3.7929   -0.5693   -1.6514 H       1  UNL1        0.0266
     27 H           1.4719   -0.2932   -1.1547 H       1  UNL1        0.0278
     28 H           2.2196   -1.5307   -0.1371 H       1  UNL1        0.0278
     29 H           1.6038    1.3982    0.5895 H       1  UNL1        0.0426
     30 H           2.4619    0.3495    1.7259 H       1  UNL1        0.0426
     31 H          -0.1812   -1.4017    2.9941 H       1  UNL1        0.0391
     32 H          -0.1436   -2.0465    1.3294 H       1  UNL1        0.0391
     33 H           1.3668   -1.8212    2.2222 H       1  UNL1        0.0391
     34 H          -0.6007   -0.4319   -0.3812 H       1  UNL1        0.0428
     35 H          -0.6439    1.2745    0.2995 H       1  UNL1        0.0428
     36 H          -1.9876   -1.1942    1.4940 H       1  UNL1        0.0318
     37 H          -2.1264    0.4447    2.1320 H       1  UNL1        0.0318
     38 H          -4.9365    0.5422    1.0480 H       1  UNL1        0.2117
     39 H          -1.7164   -2.6206   -1.6175 H       1  UNL1        0.2198
     40 H          -5.1313   -1.9876   -0.5140 H       1  UNL1        0.2198
     41 H          -2.9216    3.7557    0.5319 H       1  UNL1        0.2198
     42 H          -5.3802    1.1663   -0.9422 H       1  UNL1        0.2198
@<TRIPOS>BOND
     1     1     2    1
     2     2     3    1
     3     3     4    1
     4     4     5    1
     5     5     6    1
     6     6     7    1
     7     6     8    1
     8     8     9    1
     9     9    10    1
    10    10    11    1
    11    10    12    1
    12    12    13    2
    13    12    14    1
    14    12    15    1
    15    10    16    1
    16    16    17    2
    17    16    18    1
    18    16    19    1
    19     1    20    1
    20     1    21    1
    21     1    22    1
    22     2    23    1
    23     2    24    1
    24     3    25    1
    25     3    26    1
    26     4    27    1
    27     4    28    1
    28     5    29    1
    29     5    30    1
    30     7    31    1
    31     7    32    1
    32     7    33    1
    33     8    34    1
    34     8    35    1
    35     9    36    1
    36     9    37    1
    37    11    38    1
    38    14    39    1
    39    15    40    1
    40    18    41    1
    41    19    42    1
