
     RDKit          3D

 25 24  0  0  0  0  0  0  0  0999 V2000
   -3.4063    1.0179    0.4726 C   0  0  0  0  0  0  0  0  0  0  0  0
   -2.2741    0.1109    0.1390 C   0  0  0  0  0  0  0  0  0  0  0  0
   -2.5144   -1.3385    0.4312 C   0  0  0  0  0  0  0  0  0  0  0  0
   -1.1117    0.5900    0.7861 O   0  0  0  0  0  0  0  0  0  0  0  0
   -0.0661    0.9783   -0.4924 P   0  0  0  0  0  0  0  0  0  0  0  0
   -0.2055   -0.0421   -1.6118 O   0  0  0  0  0  0  0  0  0  0  0  0
    1.5057    1.0276    0.0938 O   0  0  0  0  0  0  0  0  0  0  0  0
    2.1755   -0.0859   -0.3560 C   0  0  0  0  0  0  0  0  0  0  0  0
    3.3577    0.3600   -1.1906 C   0  0  0  0  0  0  0  0  0  0  0  0
    2.7168   -0.9674    0.7368 C   0  0  0  0  0  0  0  0  0  0  0  0
   -3.5623    1.7454   -0.3750 H   0  0  0  0  0  0  0  0  0  0  0  0
   -4.3797    0.5285    0.6119 H   0  0  0  0  0  0  0  0  0  0  0  0
   -3.2419    1.6660    1.3578 H   0  0  0  0  0  0  0  0  0  0  0  0
   -2.0371    0.1806   -0.9470 H   0  0  0  0  0  0  0  0  0  0  0  0
   -3.0524   -1.5040    1.3889 H   0  0  0  0  0  0  0  0  0  0  0  0
   -3.0081   -1.7907   -0.4425 H   0  0  0  0  0  0  0  0  0  0  0  0
   -1.5081   -1.8075    0.5177 H   0  0  0  0  0  0  0  0  0  0  0  0
   -0.4519    2.2200   -1.0422 H   0  0  0  0  0  0  0  0  0  0  0  0
    1.4870   -0.7106   -0.9847 H   0  0  0  0  0  0  0  0  0  0  0  0
    4.2179   -0.3354   -1.0925 H   0  0  0  0  0  0  0  0  0  0  0  0
    3.0849    0.4630   -2.2819 H   0  0  0  0  0  0  0  0  0  0  0  0
    3.6482    1.3849   -0.8730 H   0  0  0  0  0  0  0  0  0  0  0  0
    3.4919   -1.6334    0.2662 H   0  0  0  0  0  0  0  0  0  0  0  0
    3.1915   -0.4044    1.5561 H   0  0  0  0  0  0  0  0  0  0  0  0
    1.9426   -1.6531    1.1696 H   0  0  0  0  0  0  0  0  0  0  0  0
  1  2  1  0
  2  3  1  0
  2  4  1  0
  4  5  1  0
  5  6  2  0
  5  7  1  0
  7  8  1  0
  8  9  1  0
  8 10  1  0
  1 11  1  0
  1 12  1  0
  1 13  1  0
  2 14  1  0
  3 15  1  0
  3 16  1  0
  3 17  1  0
  5 18  1  0
  8 19  1  0
  9 20  1  0
  9 21  1  0
  9 22  1  0
 10 23  1  0
 10 24  1  0
 10 25  1  0
M  END
$$$$
