@<TRIPOS>MOLECULE
*****
 25 24 0 0 0
SMALL
GASTEIGER

@<TRIPOS>ATOM
      1 C          -3.4063    1.0179    0.4726 C.3     1  UNL1       -0.0385
      2 C          -2.2741    0.1109    0.1390 C.3     1  UNL1        0.0621
      3 C          -2.5144   -1.3385    0.4312 C.3     1  UNL1       -0.0385
      4 O          -1.1117    0.5900    0.7861 O.3     1  UNL1       -0.3071
      5 P          -0.0661    0.9783   -0.4924 P.3     1  UNL1        0.3217
      6 O          -0.2055   -0.0421   -1.6118 O.2     1  UNL1       -0.2618
      7 O           1.5057    1.0276    0.0938 O.3     1  UNL1       -0.3071
      8 C           2.1755   -0.0859   -0.3560 C.3     1  UNL1        0.0621
      9 C           3.3577    0.3600   -1.1906 C.3     1  UNL1       -0.0385
     10 C           2.7168   -0.9674    0.7368 C.3     1  UNL1       -0.0385
     11 H          -3.5623    1.7454   -0.3750 H       1  UNL1        0.0255
     12 H          -4.3797    0.5285    0.6119 H       1  UNL1        0.0255
     13 H          -3.2419    1.6660    1.3578 H       1  UNL1        0.0255
     14 H          -2.0371    0.1806   -0.9470 H       1  UNL1        0.0595
     15 H          -3.0524   -1.5040    1.3889 H       1  UNL1        0.0255
     16 H          -3.0081   -1.7907   -0.4425 H       1  UNL1        0.0255
     17 H          -1.5081   -1.8075    0.5177 H       1  UNL1        0.0255
     18 H          -0.4519    2.2200   -1.0422 H       1  UNL1        0.1595
     19 H           1.4870   -0.7106   -0.9847 H       1  UNL1        0.0595
     20 H           4.2179   -0.3354   -1.0925 H       1  UNL1        0.0255
     21 H           3.0849    0.4630   -2.2819 H       1  UNL1        0.0255
     22 H           3.6482    1.3849   -0.8730 H       1  UNL1        0.0255
     23 H           3.4919   -1.6334    0.2662 H       1  UNL1        0.0255
     24 H           3.1915   -0.4044    1.5561 H       1  UNL1        0.0255
     25 H           1.9426   -1.6531    1.1696 H       1  UNL1        0.0255
@<TRIPOS>BOND
     1     1     2    1
     2     2     3    1
     3     2     4    1
     4     4     5    1
     5     5     6    2
     6     5     7    1
     7     7     8    1
     8     8     9    1
     9     8    10    1
    10     1    11    1
    11     1    12    1
    12     1    13    1
    13     2    14    1
    14     3    15    1
    15     3    16    1
    16     3    17    1
    17     5    18    1
    18     8    19    1
    19     9    20    1
    20     9    21    1
    21     9    22    1
    22    10    23    1
    23    10    24    1
    24    10    25    1
