
     RDKit          3D

 40 42  0  0  0  0  0  0  0  0999 V2000
    4.5814    0.8549   -0.5703 C   0  0  0  0  0  0  0  0  0  0  0  0
    3.7342    1.9922   -0.5738 N   0  0  0  0  0  0  0  0  0  0  0  0
    2.4010    1.7111   -0.9738 C   0  0  0  0  0  0  0  0  0  0  0  0
    1.5558    0.9115   -0.0306 C   0  0  2  0  0  0  0  0  0  0  0  0
    2.0226   -0.4431    0.3047 C   0  0  0  0  0  0  0  0  0  0  0  0
    0.9238   -1.4551    0.5206 C   0  0  0  0  0  0  0  0  0  0  0  0
    1.3310   -2.7928    0.6379 C   0  0  0  0  0  0  0  0  0  0  0  0
    0.3523   -3.7322    0.8376 C   0  0  0  0  0  0  0  0  0  0  0  0
   -0.9889   -3.4121    0.9245 C   0  0  0  0  0  0  0  0  0  0  0  0
   -1.3655   -2.0938    0.8068 C   0  0  0  0  0  0  0  0  0  0  0  0
   -0.4034   -1.1189    0.6045 C   0  0  0  0  0  0  0  0  0  0  0  0
   -0.7183    0.3034    0.4677 C   0  0  2  0  0  0  0  0  0  0  0  0
   -2.0966    0.6273    0.1299 C   0  0  0  0  0  0  0  0  0  0  0  0
   -2.5682    0.7231   -1.1662 C   0  0  0  0  0  0  0  0  0  0  0  0
   -3.8910    1.0361   -1.4363 C   0  0  0  0  0  0  0  0  0  0  0  0
   -4.7867    1.2639   -0.4126 C   0  0  0  0  0  0  0  0  0  0  0  0
   -6.4727    1.6630   -0.7254 Cl  0  0  0  0  0  0  0  0  0  0  0  0
   -4.3350    1.1732    0.8831 C   0  0  0  0  0  0  0  0  0  0  0  0
   -5.4963    1.4671    2.1707 Cl  0  0  0  0  0  0  0  0  0  0  0  0
   -3.0127    0.8600    1.1366 C   0  0  0  0  0  0  0  0  0  0  0  0
    0.1747    0.8161   -0.6711 C   0  0  0  0  0  0  0  0  0  0  0  0
    4.4593    0.2447   -1.5065 H   0  0  0  0  0  0  0  0  0  0  0  0
    4.5962    0.2512    0.3494 H   0  0  0  0  0  0  0  0  0  0  0  0
    5.6469    1.2509   -0.6627 H   0  0  0  0  0  0  0  0  0  0  0  0
    3.7276    2.4822    0.3523 H   0  0  0  0  0  0  0  0  0  0  0  0
    2.3858    1.1763   -1.9589 H   0  0  0  0  0  0  0  0  0  0  0  0
    1.9205    2.7103   -1.2027 H   0  0  0  0  0  0  0  0  0  0  0  0
    1.3581    1.5337    0.9053 H   0  0  0  0  0  0  0  0  0  0  0  0
    2.5545   -0.4374    1.3047 H   0  0  0  0  0  0  0  0  0  0  0  0
    2.6732   -0.8777   -0.4781 H   0  0  0  0  0  0  0  0  0  0  0  0
    2.3861   -3.0439    0.5694 H   0  0  0  0  0  0  0  0  0  0  0  0
    0.6726   -4.7692    0.9297 H   0  0  0  0  0  0  0  0  0  0  0  0
   -1.7483   -4.1876    1.0845 H   0  0  0  0  0  0  0  0  0  0  0  0
   -2.3996   -1.7638    0.8650 H   0  0  0  0  0  0  0  0  0  0  0  0
   -0.4086    0.8360    1.3854 H   0  0  0  0  0  0  0  0  0  0  0  0
   -1.8555    0.5405   -1.9706 H   0  0  0  0  0  0  0  0  0  0  0  0
   -4.2642    1.1113   -2.4479 H   0  0  0  0  0  0  0  0  0  0  0  0
   -2.7244    0.8039    2.1689 H   0  0  0  0  0  0  0  0  0  0  0  0
    0.2544    0.0320   -1.4545 H   0  0  0  0  0  0  0  0  0  0  0  0
   -0.1760    1.7517   -1.0971 H   0  0  0  0  0  0  0  0  0  0  0  0
  1  2  1  0
  2  3  1  0
  3  4  1  0
  4  5  1  0
  5  6  1  0
  6  7  2  0
  7  8  1  0
  8  9  2  0
  9 10  1  0
 10 11  2  0
 11 12  1  0
 12 13  1  0
 13 14  2  0
 14 15  1  0
 15 16  2  0
 16 17  1  0
 16 18  1  0
 18 19  1  0
 18 20  2  0
 12 21  1  0
 21  4  1  0
 11  6  1  0
 20 13  1  0
  1 22  1  0
  1 23  1  0
  1 24  1  0
  2 25  1  0
  3 26  1  0
  3 27  1  0
  4 28  1  1
  5 29  1  0
  5 30  1  0
  7 31  1  0
  8 32  1  0
  9 33  1  0
 10 34  1  0
 12 35  1  1
 14 36  1  0
 15 37  1  0
 20 38  1  0
 21 39  1  0
 21 40  1  0
M  END
$$$$
