@<TRIPOS>MOLECULE
*****
 40 42 0 0 0
SMALL
GASTEIGER

@<TRIPOS>ATOM
      1 C           4.5814    0.8549   -0.5703 C.3     1  UNL1       -0.0158
      2 N           3.7342    1.9922   -0.5738 N.3     1  UNL1       -0.3187
      3 C           2.4010    1.7111   -0.9738 C.3     1  UNL1       -0.0012
      4 C           1.5558    0.9115   -0.0306 C.3     1  UNL1       -0.0237
      5 C           2.0226   -0.4431    0.3047 C.3     1  UNL1       -0.0234
      6 C           0.9238   -1.4551    0.5206 C.ar    1  UNL1       -0.0433
      7 C           1.3310   -2.7928    0.6379 C.ar    1  UNL1       -0.0583
      8 C           0.3523   -3.7322    0.8376 C.ar    1  UNL1       -0.0615
      9 C          -0.9889   -3.4121    0.9245 C.ar    1  UNL1       -0.0615
     10 C          -1.3655   -2.0938    0.8068 C.ar    1  UNL1       -0.0577
     11 C          -0.4034   -1.1189    0.6045 C.ar    1  UNL1       -0.0368
     12 C          -0.7183    0.3034    0.4677 C.3     1  UNL1        0.0098
     13 C          -2.0966    0.6273    0.1299 C.ar    1  UNL1       -0.0385
     14 C          -2.5682    0.7231   -1.1662 C.ar    1  UNL1       -0.0565
     15 C          -3.8910    1.0361   -1.4363 C.ar    1  UNL1       -0.0417
     16 C          -4.7867    1.2639   -0.4126 C.ar    1  UNL1        0.0593
     17 CL         -6.4727    1.6630   -0.7254 Cl      1  UNL1       -0.0820
     18 C          -4.3350    1.1732    0.8831 C.ar    1  UNL1        0.0595
     19 CL         -5.4963    1.4671    2.1707 Cl      1  UNL1       -0.0820
     20 C          -3.0127    0.8600    1.1366 C.ar    1  UNL1       -0.0382
     21 C           0.1747    0.8161   -0.6711 C.3     1  UNL1       -0.0379
     22 H           4.4593    0.2447   -1.5065 H       1  UNL1        0.0388
     23 H           4.5962    0.2512    0.3494 H       1  UNL1        0.0388
     24 H           5.6469    1.2509   -0.6627 H       1  UNL1        0.0388
     25 H           3.7276    2.4822    0.3523 H       1  UNL1        0.1216
     26 H           2.3858    1.1763   -1.9589 H       1  UNL1        0.0427
     27 H           1.9205    2.7103   -1.2027 H       1  UNL1        0.0427
     28 H           1.3581    1.5337    0.9053 H       1  UNL1        0.0316
     29 H           2.5545   -0.4374    1.3047 H       1  UNL1        0.0316
     30 H           2.6732   -0.8777   -0.4781 H       1  UNL1        0.0316
     31 H           2.3861   -3.0439    0.5694 H       1  UNL1        0.0620
     32 H           0.6726   -4.7692    0.9297 H       1  UNL1        0.0618
     33 H          -1.7483   -4.1876    1.0845 H       1  UNL1        0.0618
     34 H          -2.3996   -1.7638    0.8650 H       1  UNL1        0.0621
     35 H          -0.4086    0.8360    1.3854 H       1  UNL1        0.0397
     36 H          -1.8555    0.5405   -1.9706 H       1  UNL1        0.0621
     37 H          -4.2642    1.1113   -2.4479 H       1  UNL1        0.0633
     38 H          -2.7244    0.8039    2.1689 H       1  UNL1        0.0635
     39 H           0.2544    0.0320   -1.4545 H       1  UNL1        0.0277
     40 H          -0.1760    1.7517   -1.0971 H       1  UNL1        0.0277
@<TRIPOS>BOND
     1     1     2    1
     2     2     3    1
     3     3     4    1
     4     4     5    1
     5     5     6    1
     6     6     7   ar
     7     7     8   ar
     8     8     9   ar
     9     9    10   ar
    10    10    11   ar
    11    11    12    1
    12    12    13    1
    13    13    14   ar
    14    14    15   ar
    15    15    16   ar
    16    16    17    1
    17    16    18   ar
    18    18    19    1
    19    18    20   ar
    20    12    21    1
    21    21     4    1
    22    11     6   ar
    23    20    13   ar
    24     1    22    1
    25     1    23    1
    26     1    24    1
    27     2    25    1
    28     3    26    1
    29     3    27    1
    30     4    28    1
    31     5    29    1
    32     5    30    1
    33     7    31    1
    34     8    32    1
    35     9    33    1
    36    10    34    1
    37    12    35    1
    38    14    36    1
    39    15    37    1
    40    20    38    1
    41    21    39    1
    42    21    40    1
