@<TRIPOS>MOLECULE
*****
 74 80 0 0 0
SMALL
GASTEIGER

@<TRIPOS>ATOM
      1 C          -6.7405    0.8100    2.0464 C.3     1  UNL1       -0.0380
      2 C          -7.3927    0.7834    0.6886 C.ar    1  UNL1       -0.0279
      3 C          -8.6395    0.1710    0.6436 C.ar    1  UNL1       -0.0557
      4 C          -9.2444    0.1412   -0.5888 C.ar    1  UNL1       -0.0433
      5 C          -8.6329    0.6918   -1.6985 C.ar    1  UNL1        0.0279
      6 N          -7.4433    1.2606   -1.5853 N.ar    1  UNL1       -0.2583
      7 C          -6.7870    1.3306   -0.4196 C.ar    1  UNL1        0.0581
      8 C          -5.4763    1.9536   -0.2865 C.3     1  UNL1        0.0415
      9 N          -4.3682    1.0444   -0.1738 N.3     1  UNL1       -0.2965
     10 C          -4.2069    0.1836   -1.3022 C.3     1  UNL1        0.0017
     11 C          -2.8763   -0.4515   -1.4038 C.3     1  UNL1       -0.0095
     12 C          -1.8683   -0.2275   -0.3487 C.3     1  UNL1        0.1240
     13 C          -2.0173    0.9820    0.4790 C.3     1  UNL1       -0.0095
     14 C          -3.1714    1.8359    0.0770 C.3     1  UNL1        0.0017
     15 C          -0.5020   -0.1495   -1.0066 C.2     1  UNL1        0.2516
     16 O          -0.3255    0.2699   -2.1605 O.2     1  UNL1       -0.2724
     17 N           0.4742   -0.6212   -0.1024 N.am    1  UNL1       -0.1920
     18 C           1.8592   -0.3466   -0.1045 C.ar    1  UNL1        0.0455
     19 C           2.7020   -0.9139    0.8045 C.ar    1  UNL1       -0.0392
     20 C           4.0508   -0.6439    0.8137 C.ar    1  UNL1       -0.0523
     21 C           4.6158    0.2158   -0.0989 C.ar    1  UNL1       -0.0178
     22 C           6.0564    0.4784   -0.0568 C.ar    1  UNL1       -0.0178
     23 C           6.7785    0.7655   -1.1947 C.ar    1  UNL1       -0.0534
     24 C           8.1398    1.0111   -1.1468 C.ar    1  UNL1       -0.0519
     25 C           8.8346    0.9794    0.0419 C.ar    1  UNL1        0.0021
     26 C          10.2735    1.2350    0.1078 C.ar    1  UNL1        0.0925
     27 C          11.0910    1.2356    1.2173 C.ar    1  UNL1       -0.0165
     28 C          12.3847    1.5255    0.8230 C.ar    1  UNL1        0.0229
     29 N          12.3199    1.6929   -0.5102 N.ar    1  UNL1       -0.2842
     30 N          11.0681    1.5199   -0.9295 N.ar    1  UNL1       -0.1739
     31 C           8.1227    0.6933    1.1872 C.ar    1  UNL1       -0.0519
     32 C           6.7565    0.4467    1.1394 C.ar    1  UNL1       -0.0534
     33 C           3.7844    0.8010   -1.0270 C.ar    1  UNL1       -0.0523
     34 C           2.4109    0.5283   -1.0389 C.ar    1  UNL1       -0.0392
     35 C          -0.2685   -1.4310    0.8265 C.2     1  UNL1        0.3219
     36 O           0.1804   -2.0513    1.8036 O.2     1  UNL1       -0.2512
     37 N          -1.6376   -1.4336    0.4764 N.am    1  UNL1       -0.2240
     38 C          -2.6110   -2.4192    0.8357 C.ar    1  UNL1        0.1364
     39 C          -2.2712   -3.5697    1.5057 C.ar    1  UNL1        0.0432
     40 C          -3.2620   -4.4649    1.8340 C.ar    1  UNL1        0.2531
     41 O          -2.9329   -5.5239    2.4535 O.2     1  UNL1       -0.2678
     42 N          -4.5553   -4.2806    1.5358 N.ar    1  UNL1       -0.3133
     43 C          -4.8254   -3.1233    0.8726 C.ar    1  UNL1        0.0981
     44 N          -3.9069   -2.2297    0.5342 N.ar    1  UNL1       -0.2220
     45 H          -6.2432    1.7944    2.2278 H       1  UNL1        0.0278
     46 H          -7.4871    0.7027    2.8477 H       1  UNL1        0.0278
     47 H          -5.9976    0.0183    2.1733 H       1  UNL1        0.0278
     48 H          -9.0955   -0.2517    1.5269 H       1  UNL1        0.0621
     49 H         -10.2171   -0.3150   -0.7242 H       1  UNL1        0.0633
     50 H          -9.1281    0.6602   -2.6723 H       1  UNL1        0.0829
     51 H          -5.3039    2.5757   -1.2051 H       1  UNL1        0.0491
     52 H          -5.4847    2.6704    0.5550 H       1  UNL1        0.0491
     53 H          -4.3271    0.8636   -2.2100 H       1  UNL1        0.0427
     54 H          -5.0717   -0.5212   -1.2896 H       1  UNL1        0.0427
     55 H          -2.4390   -0.1728   -2.4263 H       1  UNL1        0.0303
     56 H          -3.0625   -1.5679   -1.5485 H       1  UNL1        0.0303
     57 H          -2.1924    0.6973    1.5478 H       1  UNL1        0.0303
     58 H          -1.1059    1.6191    0.3980 H       1  UNL1        0.0303
     59 H          -3.3649    2.5643    0.8911 H       1  UNL1        0.0427
     60 H          -2.9989    2.4285   -0.8367 H       1  UNL1        0.0427
     61 H           2.3409   -1.5912    1.5425 H       1  UNL1        0.0636
     62 H           4.7021   -1.1060    1.5458 H       1  UNL1        0.0624
     63 H           6.2456    0.7936   -2.1347 H       1  UNL1        0.0624
     64 H           8.7045    1.2371   -2.0478 H       1  UNL1        0.0624
     65 H          10.7721    1.0409    2.2330 H       1  UNL1        0.0654
     66 H          13.2857    1.6065    1.4489 H       1  UNL1        0.0824
     67 H          13.1514    1.9236   -1.0922 H       1  UNL1        0.1882
     68 H           8.6429    0.6626    2.1291 H       1  UNL1        0.0624
     69 H           6.1958    0.2211    2.0417 H       1  UNL1        0.0624
     70 H           4.1813    1.4893   -1.7716 H       1  UNL1        0.0624
     71 H           1.7731    0.9956   -1.7678 H       1  UNL1        0.0636
     72 H          -1.2251   -3.7715    1.7671 H       1  UNL1        0.0706
     73 H          -5.2968   -4.9707    1.7920 H       1  UNL1        0.1698
     74 H          -5.8942   -3.0020    0.6432 H       1  UNL1        0.1028
@<TRIPOS>BOND
     1     1     2    1
     2     2     3   ar
     3     3     4   ar
     4     4     5   ar
     5     5     6   ar
     6     6     7   ar
     7     7     8    1
     8     8     9    1
     9     9    10    1
    10    10    11    1
    11    11    12    1
    12    12    13    1
    13    13    14    1
    14    12    15    1
    15    15    16    2
    16    15    17   am
    17    17    18    1
    18    18    19   ar
    19    19    20   ar
    20    20    21   ar
    21    21    22    1
    22    22    23   ar
    23    23    24   ar
    24    24    25   ar
    25    25    26    1
    26    26    27   ar
    27    27    28   ar
    28    28    29   ar
    29    29    30   ar
    30    25    31   ar
    31    31    32   ar
    32    21    33   ar
    33    33    34   ar
    34    17    35   am
    35    35    36    2
    36    35    37   am
    37    37    38    1
    38    38    39   ar
    39    39    40   ar
    40    40    41    2
    41    40    42   ar
    42    42    43   ar
    43    43    44   ar
    44     7     2   ar
    45    14     9    1
    46    34    18   ar
    47    44    38   ar
    48    37    12    1
    49    32    22   ar
    50    30    26   ar
    51     1    45    1
    52     1    46    1
    53     1    47    1
    54     3    48    1
    55     4    49    1
    56     5    50    1
    57     8    51    1
    58     8    52    1
    59    10    53    1
    60    10    54    1
    61    11    55    1
    62    11    56    1
    63    13    57    1
    64    13    58    1
    65    14    59    1
    66    14    60    1
    67    19    61    1
    68    20    62    1
    69    23    63    1
    70    24    64    1
    71    27    65    1
    72    28    66    1
    73    29    67    1
    74    31    68    1
    75    32    69    1
    76    33    70    1
    77    34    71    1
    78    39    72    1
    79    42    73    1
    80    43    74    1
