
     RDKit          3D

 74 80  0  0  0  0  0  0  0  0999 V2000
   -6.7405    0.8100    2.0464 C   0  0  0  0  0  0  0  0  0  0  0  0
   -7.3927    0.7834    0.6886 C   0  0  0  0  0  0  0  0  0  0  0  0
   -8.6395    0.1710    0.6436 C   0  0  0  0  0  0  0  0  0  0  0  0
   -9.2444    0.1412   -0.5888 C   0  0  0  0  0  0  0  0  0  0  0  0
   -8.6329    0.6918   -1.6985 C   0  0  0  0  0  0  0  0  0  0  0  0
   -7.4433    1.2606   -1.5853 N   0  0  0  0  0  0  0  0  0  0  0  0
   -6.7870    1.3306   -0.4196 C   0  0  0  0  0  0  0  0  0  0  0  0
   -5.4763    1.9536   -0.2865 C   0  0  0  0  0  0  0  0  0  0  0  0
   -4.3682    1.0444   -0.1738 N   0  0  0  0  0  0  0  0  0  0  0  0
   -4.2069    0.1836   -1.3022 C   0  0  0  0  0  0  0  0  0  0  0  0
   -2.8763   -0.4515   -1.4038 C   0  0  0  0  0  0  0  0  0  0  0  0
   -1.8683   -0.2275   -0.3487 C   0  0  0  0  0  0  0  0  0  0  0  0
   -2.0173    0.9820    0.4790 C   0  0  0  0  0  0  0  0  0  0  0  0
   -3.1714    1.8359    0.0770 C   0  0  0  0  0  0  0  0  0  0  0  0
   -0.5020   -0.1495   -1.0066 C   0  0  0  0  0  0  0  0  0  0  0  0
   -0.3255    0.2699   -2.1605 O   0  0  0  0  0  0  0  0  0  0  0  0
    0.4742   -0.6212   -0.1024 N   0  0  0  0  0  0  0  0  0  0  0  0
    1.8592   -0.3466   -0.1045 C   0  0  0  0  0  0  0  0  0  0  0  0
    2.7020   -0.9139    0.8045 C   0  0  0  0  0  0  0  0  0  0  0  0
    4.0508   -0.6439    0.8137 C   0  0  0  0  0  0  0  0  0  0  0  0
    4.6158    0.2158   -0.0989 C   0  0  0  0  0  0  0  0  0  0  0  0
    6.0564    0.4784   -0.0568 C   0  0  0  0  0  0  0  0  0  0  0  0
    6.7785    0.7655   -1.1947 C   0  0  0  0  0  0  0  0  0  0  0  0
    8.1398    1.0111   -1.1468 C   0  0  0  0  0  0  0  0  0  0  0  0
    8.8346    0.9794    0.0419 C   0  0  0  0  0  0  0  0  0  0  0  0
   10.2735    1.2350    0.1078 C   0  0  0  0  0  0  0  0  0  0  0  0
   11.0910    1.2356    1.2173 C   0  0  0  0  0  0  0  0  0  0  0  0
   12.3847    1.5255    0.8230 C   0  0  0  0  0  0  0  0  0  0  0  0
   12.3199    1.6929   -0.5102 N   0  0  0  0  0  0  0  0  0  0  0  0
   11.0681    1.5199   -0.9295 N   0  0  0  0  0  0  0  0  0  0  0  0
    8.1227    0.6933    1.1872 C   0  0  0  0  0  0  0  0  0  0  0  0
    6.7565    0.4467    1.1394 C   0  0  0  0  0  0  0  0  0  0  0  0
    3.7844    0.8010   -1.0270 C   0  0  0  0  0  0  0  0  0  0  0  0
    2.4109    0.5283   -1.0389 C   0  0  0  0  0  0  0  0  0  0  0  0
   -0.2685   -1.4310    0.8265 C   0  0  0  0  0  0  0  0  0  0  0  0
    0.1804   -2.0513    1.8036 O   0  0  0  0  0  0  0  0  0  0  0  0
   -1.6376   -1.4336    0.4764 N   0  0  0  0  0  0  0  0  0  0  0  0
   -2.6110   -2.4192    0.8357 C   0  0  0  0  0  0  0  0  0  0  0  0
   -2.2712   -3.5697    1.5057 C   0  0  0  0  0  0  0  0  0  0  0  0
   -3.2620   -4.4649    1.8340 C   0  0  0  0  0  0  0  0  0  0  0  0
   -2.9329   -5.5239    2.4535 O   0  0  0  0  0  0  0  0  0  0  0  0
   -4.5553   -4.2806    1.5358 N   0  0  0  0  0  0  0  0  0  0  0  0
   -4.8254   -3.1233    0.8726 C   0  0  0  0  0  0  0  0  0  0  0  0
   -3.9069   -2.2297    0.5342 N   0  0  0  0  0  0  0  0  0  0  0  0
   -6.2432    1.7944    2.2278 H   0  0  0  0  0  0  0  0  0  0  0  0
   -7.4871    0.7027    2.8477 H   0  0  0  0  0  0  0  0  0  0  0  0
   -5.9976    0.0183    2.1733 H   0  0  0  0  0  0  0  0  0  0  0  0
   -9.0955   -0.2517    1.5269 H   0  0  0  0  0  0  0  0  0  0  0  0
  -10.2171   -0.3150   -0.7242 H   0  0  0  0  0  0  0  0  0  0  0  0
   -9.1281    0.6602   -2.6723 H   0  0  0  0  0  0  0  0  0  0  0  0
   -5.3039    2.5757   -1.2051 H   0  0  0  0  0  0  0  0  0  0  0  0
   -5.4847    2.6704    0.5550 H   0  0  0  0  0  0  0  0  0  0  0  0
   -4.3271    0.8636   -2.2100 H   0  0  0  0  0  0  0  0  0  0  0  0
   -5.0717   -0.5212   -1.2896 H   0  0  0  0  0  0  0  0  0  0  0  0
   -2.4390   -0.1728   -2.4263 H   0  0  0  0  0  0  0  0  0  0  0  0
   -3.0625   -1.5679   -1.5485 H   0  0  0  0  0  0  0  0  0  0  0  0
   -2.1924    0.6973    1.5478 H   0  0  0  0  0  0  0  0  0  0  0  0
   -1.1059    1.6191    0.3980 H   0  0  0  0  0  0  0  0  0  0  0  0
   -3.3649    2.5643    0.8911 H   0  0  0  0  0  0  0  0  0  0  0  0
   -2.9989    2.4285   -0.8367 H   0  0  0  0  0  0  0  0  0  0  0  0
    2.3409   -1.5912    1.5425 H   0  0  0  0  0  0  0  0  0  0  0  0
    4.7021   -1.1060    1.5458 H   0  0  0  0  0  0  0  0  0  0  0  0
    6.2456    0.7936   -2.1347 H   0  0  0  0  0  0  0  0  0  0  0  0
    8.7045    1.2371   -2.0478 H   0  0  0  0  0  0  0  0  0  0  0  0
   10.7721    1.0409    2.2330 H   0  0  0  0  0  0  0  0  0  0  0  0
   13.2857    1.6065    1.4489 H   0  0  0  0  0  0  0  0  0  0  0  0
   13.1514    1.9236   -1.0922 H   0  0  0  0  0  0  0  0  0  0  0  0
    8.6429    0.6626    2.1291 H   0  0  0  0  0  0  0  0  0  0  0  0
    6.1958    0.2211    2.0417 H   0  0  0  0  0  0  0  0  0  0  0  0
    4.1813    1.4893   -1.7716 H   0  0  0  0  0  0  0  0  0  0  0  0
    1.7731    0.9956   -1.7678 H   0  0  0  0  0  0  0  0  0  0  0  0
   -1.2251   -3.7715    1.7671 H   0  0  0  0  0  0  0  0  0  0  0  0
   -5.2968   -4.9707    1.7920 H   0  0  0  0  0  0  0  0  0  0  0  0
   -5.8942   -3.0020    0.6432 H   0  0  0  0  0  0  0  0  0  0  0  0
  1  2  1  0
  2  3  2  0
  3  4  1  0
  4  5  2  0
  5  6  1  0
  6  7  2  0
  7  8  1  0
  8  9  1  0
  9 10  1  0
 10 11  1  0
 11 12  1  0
 12 13  1  0
 13 14  1  0
 12 15  1  0
 15 16  2  0
 15 17  1  0
 17 18  1  0
 18 19  2  0
 19 20  1  0
 20 21  2  0
 21 22  1  0
 22 23  2  0
 23 24  1  0
 24 25  2  0
 25 26  1  0
 26 27  1  0
 27 28  2  0
 28 29  1  0
 29 30  1  0
 25 31  1  0
 31 32  2  0
 21 33  1  0
 33 34  2  0
 17 35  1  0
 35 36  2  0
 35 37  1  0
 37 38  1  0
 38 39  2  0
 39 40  1  0
 40 41  2  0
 40 42  1  0
 42 43  1  0
 43 44  2  0
  7  2  1  0
 14  9  1  0
 34 18  1  0
 44 38  1  0
 37 12  1  0
 32 22  1  0
 30 26  2  0
  1 45  1  0
  1 46  1  0
  1 47  1  0
  3 48  1  0
  4 49  1  0
  5 50  1  0
  8 51  1  0
  8 52  1  0
 10 53  1  0
 10 54  1  0
 11 55  1  0
 11 56  1  0
 13 57  1  0
 13 58  1  0
 14 59  1  0
 14 60  1  0
 19 61  1  0
 20 62  1  0
 23 63  1  0
 24 64  1  0
 27 65  1  0
 28 66  1  0
 29 67  1  0
 31 68  1  0
 32 69  1  0
 33 70  1  0
 34 71  1  0
 39 72  1  0
 42 73  1  0
 43 74  1  0
M  END
$$$$
