
     RDKit          3D

 28 28  0  0  0  0  0  0  0  0999 V2000
   -3.8944    1.9717    0.5588 N   0  0  0  0  0  0  0  0  0  0  0  0
   -2.8274    1.0287    0.3800 C   0  0  0  0  0  0  0  0  0  0  0  0
   -3.1766   -0.2824    0.1273 C   0  0  0  0  0  0  0  0  0  0  0  0
   -2.1351   -1.1614   -0.0602 C   0  0  0  0  0  0  0  0  0  0  0  0
   -2.4195   -2.5607   -0.3135 C   0  0  0  0  0  0  0  0  0  0  0  0
   -1.7277   -3.5813   -0.5065 O   0  0  0  0  0  0  0  0  0  0  0  0
   -0.8345   -0.7242    0.0059 C   0  0  0  0  0  0  0  0  0  0  0  0
    0.3851   -1.5331   -0.2227 C   0  0  0  0  0  0  0  0  0  0  0  0
    1.5651   -0.9642    0.4827 C   0  0  0  0  0  0  0  0  0  0  0  0
    1.7870   -1.0728    1.7181 O   0  0  0  0  0  0  0  0  0  0  0  0
    2.4990   -0.2479   -0.2580 O   0  0  0  0  0  0  0  0  0  0  0  0
    3.5914    0.2744    0.5054 C   0  0  0  0  0  0  0  0  0  0  0  0
    4.5026    1.1094   -0.3334 C   0  0  0  0  0  0  0  0  0  0  0  0
    3.4406    2.6024   -1.0087 Br  0  0  0  0  0  0  0  0  0  0  0  0
   -0.5418    0.5966    0.2640 C   0  0  0  0  0  0  0  0  0  0  0  0
   -1.5374    1.5307    0.4628 C   0  0  0  0  0  0  0  0  0  0  0  0
   -4.0681    2.2660   -0.4323 H   0  0  0  0  0  0  0  0  0  0  0  0
   -4.3306    2.2447    1.4937 H   0  0  0  0  0  0  0  0  0  0  0  0
   -4.2190   -0.5552    0.0807 H   0  0  0  0  0  0  0  0  0  0  0  0
   -3.4230   -2.9030   -0.3675 H   0  0  0  0  0  0  0  0  0  0  0  0
    0.2050   -2.5287    0.2062 H   0  0  0  0  0  0  0  0  0  0  0  0
    0.5359   -1.6630   -1.3118 H   0  0  0  0  0  0  0  0  0  0  0  0
    4.1279   -0.5298    1.0382 H   0  0  0  0  0  0  0  0  0  0  0  0
    3.1034    0.9608    1.2407 H   0  0  0  0  0  0  0  0  0  0  0  0
    5.0066    0.6048   -1.1568 H   0  0  0  0  0  0  0  0  0  0  0  0
    5.2692    1.5193    0.3660 H   0  0  0  0  0  0  0  0  0  0  0  0
    0.4688    1.0156    0.3460 H   0  0  0  0  0  0  0  0  0  0  0  0
   -1.3526    2.5826    0.6725 H   0  0  0  0  0  0  0  0  0  0  0  0
  1  2  1  0
  2  3  2  0
  3  4  1  0
  4  5  1  0
  5  6  2  0
  4  7  2  0
  7  8  1  0
  8  9  1  0
  9 10  2  0
  9 11  1  0
 11 12  1  0
 12 13  1  0
 13 14  1  0
  7 15  1  0
 15 16  2  0
 16  2  1  0
  1 17  1  0
  1 18  1  0
  3 19  1  0
  5 20  1  0
  8 21  1  0
  8 22  1  0
 12 23  1  0
 12 24  1  0
 13 25  1  0
 13 26  1  0
 15 27  1  0
 16 28  1  0
M  END
$$$$
