@<TRIPOS>MOLECULE
*****
 28 28 0 0 0
SMALL
GASTEIGER

@<TRIPOS>ATOM
      1 N          -3.8944    1.9717    0.5588 N.pl3   1  UNL1       -0.3579
      2 C          -2.8274    1.0287    0.3800 C.ar    1  UNL1        0.0252
      3 C          -3.1766   -0.2824    0.1273 C.ar    1  UNL1       -0.0306
      4 C          -2.1351   -1.1614   -0.0602 C.ar    1  UNL1        0.0196
      5 C          -2.4195   -2.5607   -0.3135 C.2     1  UNL1        0.1505
      6 O          -1.7277   -3.5813   -0.5065 O.2     1  UNL1       -0.2957
      7 C          -0.8345   -0.7242    0.0059 C.ar    1  UNL1       -0.0265
      8 C           0.3851   -1.5331   -0.2227 C.3     1  UNL1        0.0707
      9 C           1.5651   -0.9642    0.4827 C.2     1  UNL1        0.3115
     10 O           1.7870   -1.0728    1.7181 O.2     1  UNL1       -0.2505
     11 O           2.4990   -0.2479   -0.2580 O.3     1  UNL1       -0.4636
     12 C           3.5914    0.2744    0.5054 C.3     1  UNL1        0.1020
     13 C           4.5026    1.1094   -0.3334 C.3     1  UNL1        0.0376
     14 BR          3.4406    2.6024   -1.0087 Br      1  UNL1       -0.0883
     15 C          -0.5418    0.5966    0.2640 C.ar    1  UNL1       -0.0557
     16 C          -1.5374    1.5307    0.4628 C.ar    1  UNL1       -0.0407
     17 H          -4.0681    2.2660   -0.4323 H       1  UNL1        0.1423
     18 H          -4.3306    2.2447    1.4937 H       1  UNL1        0.1423
     19 H          -4.2190   -0.5552    0.0807 H       1  UNL1        0.0643
     20 H          -3.4230   -2.9030   -0.3675 H       1  UNL1        0.1081
     21 H           0.2050   -2.5287    0.2062 H       1  UNL1        0.0426
     22 H           0.5359   -1.6630   -1.3118 H       1  UNL1        0.0426
     23 H           4.1279   -0.5298    1.0382 H       1  UNL1        0.0706
     24 H           3.1034    0.9608    1.2407 H       1  UNL1        0.0706
     25 H           5.0066    0.6048   -1.1568 H       1  UNL1        0.0415
     26 H           5.2692    1.5193    0.3660 H       1  UNL1        0.0415
     27 H           0.4688    1.0156    0.3460 H       1  UNL1        0.0621
     28 H          -1.3526    2.5826    0.6725 H       1  UNL1        0.0636
@<TRIPOS>BOND
     1     1     2    1
     2     2     3   ar
     3     3     4   ar
     4     4     5    1
     5     5     6    2
     6     4     7   ar
     7     7     8    1
     8     8     9    1
     9     9    10    2
    10     9    11    1
    11    11    12    1
    12    12    13    1
    13    13    14    1
    14     7    15   ar
    15    15    16   ar
    16    16     2   ar
    17     1    17    1
    18     1    18    1
    19     3    19    1
    20     5    20    1
    21     8    21    1
    22     8    22    1
    23    12    23    1
    24    12    24    1
    25    13    25    1
    26    13    26    1
    27    15    27    1
    28    16    28    1
