@<TRIPOS>MOLECULE
*****
 30 32 0 0 0
SMALL
GASTEIGER

@<TRIPOS>ATOM
      1 O           5.9914    0.2439   -0.6168 O.3     1  UNL1       -0.5068
      2 C           4.6016    0.0898   -0.4530 C.ar    1  UNL1        0.1169
      3 C           3.9240    1.0293    0.2851 C.ar    1  UNL1       -0.0196
      4 C           2.5629    0.9419    0.4870 C.ar    1  UNL1       -0.0506
      5 C           1.8767   -0.1179   -0.0701 C.ar    1  UNL1       -0.0176
      6 C           2.5622   -1.0783   -0.8232 C.ar    1  UNL1       -0.0506
      7 C           3.9353   -0.9760   -1.0178 C.ar    1  UNL1       -0.0196
      8 C           0.4496   -0.4412   -0.0084 C.ar    1  UNL1       -0.0173
      9 C          -0.1311   -1.6923   -0.0278 C.ar    1  UNL1       -0.0534
     10 C          -1.4958   -1.7614    0.0409 C.ar    1  UNL1       -0.0519
     11 C          -2.2867   -0.6227    0.1276 C.ar    1  UNL1        0.0040
     12 C          -1.7100    0.6403    0.1479 C.ar    1  UNL1       -0.0157
     13 C          -2.5234    1.7507    0.2345 C.ar    1  UNL1       -0.0505
     14 C          -3.8909    1.6490    0.3020 C.ar    1  UNL1       -0.0181
     15 C          -4.4834    0.4037    0.2832 C.ar    1  UNL1        0.1357
     16 O          -5.8720    0.2105    0.3482 O.3     1  UNL1       -0.5053
     17 C          -3.6778   -0.7270    0.1961 C.ar    1  UNL1        0.0899
     18 CL         -4.3925   -2.3270    0.1697 Cl      1  UNL1       -0.0791
     19 C          -0.3146    0.7041    0.0773 C.ar    1  UNL1       -0.0463
     20 H           6.2360    0.7200   -1.4926 H       1  UNL1        0.2921
     21 H           4.3826    1.8928    0.7585 H       1  UNL1        0.0654
     22 H           1.9067    1.5981    1.0372 H       1  UNL1        0.0625
     23 H           2.1378   -1.9491   -1.3068 H       1  UNL1        0.0625
     24 H           4.5217   -1.6839   -1.5880 H       1  UNL1        0.0654
     25 H           0.5559   -2.5032   -0.0960 H       1  UNL1        0.0624
     26 H          -1.9408   -2.7617    0.0241 H       1  UNL1        0.0624
     27 H          -2.0543    2.7035    0.2480 H       1  UNL1        0.0625
     28 H          -4.5296    2.5223    0.3703 H       1  UNL1        0.0655
     29 H          -6.3837   -0.1881   -0.4506 H       1  UNL1        0.2922
     30 H           0.0423    1.7297    0.0991 H       1  UNL1        0.0630
@<TRIPOS>BOND
     1     1     2    1
     2     2     3   ar
     3     3     4   ar
     4     4     5   ar
     5     5     6   ar
     6     6     7   ar
     7     5     8    1
     8     8     9   ar
     9     9    10   ar
    10    10    11   ar
    11    11    12   ar
    12    12    13   ar
    13    13    14   ar
    14    14    15   ar
    15    15    16    1
    16    15    17   ar
    17    17    18    1
    18    12    19   ar
    19     7     2   ar
    20    19     8   ar
    21    17    11   ar
    22     1    20    1
    23     3    21    1
    24     4    22    1
    25     6    23    1
    26     7    24    1
    27     9    25    1
    28    10    26    1
    29    13    27    1
    30    14    28    1
    31    16    29    1
    32    19    30    1
