@<TRIPOS>MOLECULE
*****
 24 23 0 0 0
SMALL
GASTEIGER

@<TRIPOS>ATOM
      1 N          -1.8675   -1.7660    0.3347 N.3     1  UNL1       -0.3183
      2 CA         -2.1553   -0.3566    0.4747 C.3     1  UNL1        0.1055
      3 C          -1.1956    0.4095   -0.3723 C.3     1  UNL1       -0.0001
      4 C           0.2473    0.2285   -0.0405 C.3     1  UNL1        0.0917
      5 O           0.9379    1.0436   -0.9677 O.3     1  UNL1       -0.2184
      6 N           2.2466    0.9160   -0.7109 N.3     1  UNL1       -0.1394
      7 C           3.2476   -0.1092   -0.7784 C.2     1  UNL1        0.4042
      8 N           4.4314    0.3897   -0.1668 N.pl3   1  UNL1       -0.2872
      9 N           2.6619   -1.1114   -1.3863 N.pl3   1  UNL1       -0.1277
     10 C          -3.5231   -0.0512   -0.0555 C.2     1  UNL1        0.3218
     11 O          -3.8286    1.2829    0.0630 O.3     1  UNL1       -0.4795
     12 OXT        -4.3769   -0.8137   -0.5647 O.2     1  UNL1       -0.2493
     13 H1         -2.5311   -2.3590    0.8749 H       1  UNL1        0.1190
     14 H2         -0.8779   -1.9245    0.6191 H       1  UNL1        0.1190
     15 HA         -2.1569   -0.0273    1.5309 H       1  UNL1        0.0575
     16 H          -1.3554    0.0915   -1.4348 H       1  UNL1        0.0309
     17 H          -1.4263    1.4877   -0.2362 H       1  UNL1        0.0309
     18 H           0.4470    0.5842    1.0031 H       1  UNL1        0.0600
     19 H           0.6401   -0.7876   -0.1325 H       1  UNL1        0.0600
     20 H           2.1920    1.9380   -0.4322 H       1  UNL1        0.2988
     21 H           4.8165    0.1050    0.7702 H       1  UNL1        0.2547
     22 H           4.9594    1.1115   -0.7183 H       1  UNL1        0.2547
     23 H           3.1905   -1.9930   -1.5595 H       1  UNL1        0.3063
     24 H          -4.7233    1.7113   -0.1830 H       1  UNL1        0.2951
@<TRIPOS>BOND
     1     1     2    1
     2     2     3    1
     3     3     4    1
     4     4     5    1
     5     5     6    1
     6     6     7    1
     7     7     8    1
     8     7     9    2
     9     2    10    1
    10    10    11    1
    11    10    12    2
    12     1    13    1
    13     1    14    1
    14     2    15    1
    15     3    16    1
    16     3    17    1
    17     4    18    1
    18     4    19    1
    19     6    20    1
    20     8    21    1
    21     8    22    1
    22     9    23    1
    23    11    24    1
