
     RDKit          3D

 50 51  0  0  0  0  0  0  0  0999 V2000
   -4.4220   -3.6057   -1.2914 C   0  0  0  0  0  0  0  0  0  0  0  0
   -4.5306   -2.6921   -0.0940 C   0  0  0  0  0  0  0  0  0  0  0  0
   -3.1705   -2.2619    0.4088 C   0  0  0  0  0  0  0  0  0  0  0  0
   -2.4779   -1.5276   -0.7202 C   0  0  0  0  0  0  0  0  0  0  0  0
   -1.1350   -1.0581   -0.3384 C   0  0  0  0  0  0  0  0  0  0  0  0
   -0.0157   -1.7850   -0.5017 N   0  0  0  0  0  0  0  0  0  0  0  0
    1.0120   -1.0466   -0.0470 C   0  0  0  0  0  0  0  0  0  0  0  0
    2.3931   -1.2769    0.0381 C   0  0  0  0  0  0  0  0  0  0  0  0
    3.2446   -0.3387    0.5552 C   0  0  0  0  0  0  0  0  0  0  0  0
    4.6721   -0.5608    0.6491 C   0  0  0  0  0  0  0  0  0  0  0  0
    5.2539   -1.6627    0.2486 C   0  0  0  0  0  0  0  0  0  0  0  0
    6.6986   -1.8266    0.3700 C   0  0  0  0  0  0  0  0  0  0  0  0
    7.1841   -2.9244   -0.0422 O   0  0  0  0  0  0  0  0  0  0  0  0
    7.5820   -0.8649    0.9053 N   0  0  0  0  0  0  0  0  0  0  0  0
    8.9122   -1.1406    0.9627 O   0  0  0  0  0  0  0  0  0  0  0  0
    2.7222    0.8743    1.0077 C   0  0  0  0  0  0  0  0  0  0  0  0
    1.3675    1.0775    0.9144 C   0  0  0  0  0  0  0  0  0  0  0  0
    0.4944    0.1475    0.3976 C   0  0  0  0  0  0  0  0  0  0  0  0
   -0.8549    0.1278    0.2091 N   0  0  0  0  0  0  0  0  0  0  0  0
   -1.7105    1.2263    0.5667 C   0  0  0  0  0  0  0  0  0  0  0  0
   -1.8727    2.2078   -0.5847 C   0  0  0  0  0  0  0  0  0  0  0  0
   -2.7383    3.3033   -0.1968 N   0  0  0  0  0  0  0  0  0  0  0  0
   -2.1150    4.1413    0.8033 C   0  0  0  0  0  0  0  0  0  0  0  0
   -3.0237    4.0892   -1.4030 C   0  0  0  0  0  0  0  0  0  0  0  0
   -4.5992   -3.0617   -2.2414 H   0  0  0  0  0  0  0  0  0  0  0  0
   -5.1662   -4.4328   -1.2533 H   0  0  0  0  0  0  0  0  0  0  0  0
   -3.3777   -4.0192   -1.3520 H   0  0  0  0  0  0  0  0  0  0  0  0
   -5.1527   -1.8218   -0.4035 H   0  0  0  0  0  0  0  0  0  0  0  0
   -5.1188   -3.2035    0.7103 H   0  0  0  0  0  0  0  0  0  0  0  0
   -2.6043   -3.2059    0.6116 H   0  0  0  0  0  0  0  0  0  0  0  0
   -3.2117   -1.7084    1.3440 H   0  0  0  0  0  0  0  0  0  0  0  0
   -3.0767   -0.6598   -1.0667 H   0  0  0  0  0  0  0  0  0  0  0  0
   -2.4270   -2.2313   -1.5809 H   0  0  0  0  0  0  0  0  0  0  0  0
    2.7412   -2.2462   -0.3330 H   0  0  0  0  0  0  0  0  0  0  0  0
    5.2761    0.2460    1.0802 H   0  0  0  0  0  0  0  0  0  0  0  0
    4.6560   -2.4776   -0.1837 H   0  0  0  0  0  0  0  0  0  0  0  0
    7.2152    0.0322    1.2465 H   0  0  0  0  0  0  0  0  0  0  0  0
    9.3676   -0.4570    1.5159 H   0  0  0  0  0  0  0  0  0  0  0  0
    3.3978    1.6219    1.4199 H   0  0  0  0  0  0  0  0  0  0  0  0
    0.9506    2.0125    1.2625 H   0  0  0  0  0  0  0  0  0  0  0  0
   -2.7408    0.8191    0.7516 H   0  0  0  0  0  0  0  0  0  0  0  0
   -1.2958    1.7493    1.4274 H   0  0  0  0  0  0  0  0  0  0  0  0
   -2.2184    1.7411   -1.5057 H   0  0  0  0  0  0  0  0  0  0  0  0
   -0.8689    2.6728   -0.8060 H   0  0  0  0  0  0  0  0  0  0  0  0
   -2.7558    4.1927    1.7065 H   0  0  0  0  0  0  0  0  0  0  0  0
   -1.9991    5.1946    0.4513 H   0  0  0  0  0  0  0  0  0  0  0  0
   -1.1296    3.7496    1.0891 H   0  0  0  0  0  0  0  0  0  0  0  0
   -4.0796    3.9178   -1.6849 H   0  0  0  0  0  0  0  0  0  0  0  0
   -2.3415    3.7797   -2.2346 H   0  0  0  0  0  0  0  0  0  0  0  0
   -2.9106    5.1735   -1.1877 H   0  0  0  0  0  0  0  0  0  0  0  0
  1  2  1  0
  2  3  1  0
  3  4  1  0
  4  5  1  0
  5  6  2  0
  6  7  1  0
  7  8  2  0
  8  9  1  0
  9 10  1  0
 10 11  2  0
 11 12  1  0
 12 13  2  0
 12 14  1  0
 14 15  1  0
  9 16  2  0
 16 17  1  0
 17 18  2  0
 18 19  1  0
 19 20  1  0
 20 21  1  0
 21 22  1  0
 22 23  1  0
 22 24  1  0
 19  5  1  0
 18  7  1  0
  1 25  1  0
  1 26  1  0
  1 27  1  0
  2 28  1  0
  2 29  1  0
  3 30  1  0
  3 31  1  0
  4 32  1  0
  4 33  1  0
  8 34  1  0
 10 35  1  0
 11 36  1  0
 14 37  1  0
 15 38  1  0
 16 39  1  0
 17 40  1  0
 20 41  1  0
 20 42  1  0
 21 43  1  0
 21 44  1  0
 23 45  1  0
 23 46  1  0
 23 47  1  0
 24 48  1  0
 24 49  1  0
 24 50  1  0
M  END
$$$$
