@<TRIPOS>MOLECULE
*****
 50 51 0 0 0
SMALL
GASTEIGER

@<TRIPOS>ATOM
      1 C          -4.4220   -3.6057   -1.2914 C.3     1  UNL1       -0.0653
      2 C          -4.5306   -2.6921   -0.0940 C.3     1  UNL1       -0.0555
      3 C          -3.1705   -2.2619    0.4088 C.3     1  UNL1       -0.0465
      4 C          -2.4779   -1.5276   -0.7202 C.3     1  UNL1        0.0056
      5 C          -1.1350   -1.0581   -0.3384 C.ar    1  UNL1        0.1108
      6 N          -0.0157   -1.7850   -0.5017 N.ar    1  UNL1       -0.2323
      7 C           1.0120   -1.0466   -0.0470 C.ar    1  UNL1        0.0899
      8 C           2.3931   -1.2769    0.0381 C.ar    1  UNL1       -0.0271
      9 C           3.2446   -0.3387    0.5552 C.ar    1  UNL1       -0.0227
     10 C           4.6721   -0.5608    0.6491 C.2     1  UNL1       -0.0496
     11 C           5.2539   -1.6627    0.2486 C.2     1  UNL1        0.0027
     12 C           6.6986   -1.8266    0.3700 C.2     1  UNL1        0.2593
     13 O           7.1841   -2.9244   -0.0422 O.2     1  UNL1       -0.2687
     14 N           7.5820   -0.8649    0.9053 N.am    1  UNL1       -0.1940
     15 O           8.9122   -1.1406    0.9627 O.3     1  UNL1       -0.2949
     16 C           2.7222    0.8743    1.0077 C.ar    1  UNL1       -0.0525
     17 C           1.3675    1.0775    0.9144 C.ar    1  UNL1       -0.0355
     18 C           0.4944    0.1475    0.3976 C.ar    1  UNL1        0.0689
     19 N          -0.8549    0.1278    0.2091 N.ar    1  UNL1       -0.3263
     20 C          -1.7105    1.2263    0.5667 C.3     1  UNL1        0.0377
     21 C          -1.8727    2.2078   -0.5847 C.3     1  UNL1        0.0164
     22 N          -2.7383    3.3033   -0.1968 N.3     1  UNL1       -0.3067
     23 C          -2.1150    4.1413    0.8033 C.3     1  UNL1       -0.0130
     24 C          -3.0237    4.0892   -1.4030 C.3     1  UNL1       -0.0130
     25 H          -4.5992   -3.0617   -2.2414 H       1  UNL1        0.0230
     26 H          -5.1662   -4.4328   -1.2533 H       1  UNL1        0.0230
     27 H          -3.3777   -4.0192   -1.3520 H       1  UNL1        0.0230
     28 H          -5.1527   -1.8218   -0.4035 H       1  UNL1        0.0263
     29 H          -5.1188   -3.2035    0.7103 H       1  UNL1        0.0263
     30 H          -2.6043   -3.2059    0.6116 H       1  UNL1        0.0269
     31 H          -3.2117   -1.7084    1.3440 H       1  UNL1        0.0269
     32 H          -3.0767   -0.6598   -1.0667 H       1  UNL1        0.0343
     33 H          -2.4270   -2.2313   -1.5809 H       1  UNL1        0.0343
     34 H           2.7412   -2.2462   -0.3330 H       1  UNL1        0.0645
     35 H           5.2761    0.2460    1.0802 H       1  UNL1        0.0625
     36 H           4.6560   -2.4776   -0.1837 H       1  UNL1        0.0670
     37 H           7.2152    0.0322    1.2465 H       1  UNL1        0.1825
     38 H           9.3676   -0.4570    1.5159 H       1  UNL1        0.2414
     39 H           3.3978    1.6219    1.4199 H       1  UNL1        0.0624
     40 H           0.9506    2.0125    1.2625 H       1  UNL1        0.0639
     41 H          -2.7408    0.8191    0.7516 H       1  UNL1        0.0505
     42 H          -1.2958    1.7493    1.4274 H       1  UNL1        0.0505
     43 H          -2.2184    1.7411   -1.5057 H       1  UNL1        0.0444
     44 H          -0.8689    2.6728   -0.8060 H       1  UNL1        0.0444
     45 H          -2.7558    4.1927    1.7065 H       1  UNL1        0.0391
     46 H          -1.9991    5.1946    0.4513 H       1  UNL1        0.0391
     47 H          -1.1296    3.7496    1.0891 H       1  UNL1        0.0391
     48 H          -4.0796    3.9178   -1.6849 H       1  UNL1        0.0391
     49 H          -2.3415    3.7797   -2.2346 H       1  UNL1        0.0391
     50 H          -2.9106    5.1735   -1.1877 H       1  UNL1        0.0391
@<TRIPOS>BOND
     1     1     2    1
     2     2     3    1
     3     3     4    1
     4     4     5    1
     5     5     6   ar
     6     6     7   ar
     7     7     8   ar
     8     8     9   ar
     9     9    10    1
    10    10    11    2
    11    11    12    1
    12    12    13    2
    13    12    14   am
    14    14    15    1
    15     9    16   ar
    16    16    17   ar
    17    17    18   ar
    18    18    19   ar
    19    19    20    1
    20    20    21    1
    21    21    22    1
    22    22    23    1
    23    22    24    1
    24    19     5   ar
    25    18     7   ar
    26     1    25    1
    27     1    26    1
    28     1    27    1
    29     2    28    1
    30     2    29    1
    31     3    30    1
    32     3    31    1
    33     4    32    1
    34     4    33    1
    35     8    34    1
    36    10    35    1
    37    11    36    1
    38    14    37    1
    39    15    38    1
    40    16    39    1
    41    17    40    1
    42    20    41    1
    43    20    42    1
    44    21    43    1
    45    21    44    1
    46    23    45    1
    47    23    46    1
    48    23    47    1
    49    24    48    1
    50    24    49    1
    51    24    50    1
