@<TRIPOS>MOLECULE
*****
 40 42 0 0 0
SMALL
GASTEIGER

@<TRIPOS>ATOM
      1 C           3.2371   -0.7865   -1.0674 C.3     1  UNL1       -0.0130
      2 N           3.2391    0.3633   -0.1827 N.3     1  UNL1       -0.3083
      3 C           3.8310    1.4683   -0.8690 C.3     1  UNL1       -0.0130
      4 C           1.8881    0.6529    0.2931 C.3     1  UNL1       -0.0003
      5 C           1.4113   -0.4349    1.2118 C.3     1  UNL1       -0.0240
      6 C           0.0200   -0.2451    1.7628 C.3     1  UNL1        0.0185
      7 N          -0.9971   -0.1550    0.7392 N.pl3   1  UNL1       -0.2982
      8 C          -1.4037    1.0927    0.2085 C.ar    1  UNL1        0.0479
      9 C          -0.8936    2.2842    0.6758 C.ar    1  UNL1       -0.0393
     10 C          -1.2287    3.5493    0.2415 C.ar    1  UNL1       -0.0599
     11 C          -2.1670    3.6615   -0.7605 C.ar    1  UNL1       -0.0606
     12 C          -2.7190    2.5244   -1.2750 C.ar    1  UNL1       -0.0462
     13 C          -2.3259    1.3144   -0.7830 C.ar    1  UNL1        0.0341
     14 S          -3.1412   -0.0798   -1.5389 S.3     1  UNL1       -0.0857
     15 C          -2.4888   -1.5232   -0.7202 C.ar    1  UNL1        0.0342
     16 C          -1.5426   -1.3578    0.2628 C.ar    1  UNL1        0.0493
     17 C          -1.1484   -2.5789    0.7648 C.ar    1  UNL1       -0.0209
     18 C          -1.6124   -3.8110    0.3670 C.ar    1  UNL1        0.0428
     19 CL         -1.0873   -5.3427    1.0327 Cl      1  UNL1       -0.0835
     20 C          -2.5670   -3.8795   -0.6307 C.ar    1  UNL1       -0.0422
     21 C          -3.0077   -2.6943   -1.1802 C.ar    1  UNL1       -0.0448
     22 H           2.3786   -0.7698   -1.7632 H       1  UNL1        0.0391
     23 H           4.1383   -0.7947   -1.7168 H       1  UNL1        0.0391
     24 H           3.2912   -1.6924   -0.4405 H       1  UNL1        0.0391
     25 H           3.4366    1.6265   -1.9030 H       1  UNL1        0.0391
     26 H           3.8434    2.4046   -0.2703 H       1  UNL1        0.0391
     27 H           4.9118    1.2046   -1.0386 H       1  UNL1        0.0391
     28 H           2.0001    1.5741    0.9067 H       1  UNL1        0.0427
     29 H           1.2290    0.8277   -0.5625 H       1  UNL1        0.0427
     30 H           2.1013   -0.3805    2.1089 H       1  UNL1        0.0293
     31 H           1.5270   -1.4177    0.7039 H       1  UNL1        0.0293
     32 H          -0.2650   -1.0765    2.4565 H       1  UNL1        0.0468
     33 H           0.0966    0.6859    2.3857 H       1  UNL1        0.0468
     34 H          -0.1548    2.3307    1.4634 H       1  UNL1        0.0636
     35 H          -0.8120    4.4644    0.6290 H       1  UNL1        0.0618
     36 H          -2.4519    4.6380   -1.1219 H       1  UNL1        0.0618
     37 H          -3.4466    2.6594   -2.0565 H       1  UNL1        0.0629
     38 H          -0.4072   -2.7086    1.5340 H       1  UNL1        0.0651
     39 H          -2.9590   -4.8231   -0.9731 H       1  UNL1        0.0632
     40 H          -3.7532   -2.7749   -1.9573 H       1  UNL1        0.0630
@<TRIPOS>BOND
     1     1     2    1
     2     2     3    1
     3     2     4    1
     4     4     5    1
     5     5     6    1
     6     6     7    1
     7     7     8    1
     8     8     9   ar
     9     9    10   ar
    10    10    11   ar
    11    11    12   ar
    12    12    13   ar
    13    13    14    1
    14    14    15    1
    15    15    16   ar
    16    16    17   ar
    17    17    18   ar
    18    18    19    1
    19    18    20   ar
    20    20    21   ar
    21    16     7    1
    22    13     8   ar
    23    21    15   ar
    24     1    22    1
    25     1    23    1
    26     1    24    1
    27     3    25    1
    28     3    26    1
    29     3    27    1
    30     4    28    1
    31     4    29    1
    32     5    30    1
    33     5    31    1
    34     6    32    1
    35     6    33    1
    36     9    34    1
    37    10    35    1
    38    11    36    1
    39    12    37    1
    40    17    38    1
    41    20    39    1
    42    21    40    1
