@<TRIPOS>MOLECULE
*****
 48 49 0 0 0
SMALL
GASTEIGER

@<TRIPOS>ATOM
      1 C          -4.8293   -0.4305    1.5659 C.3     1  UNL1       -0.0493
      2 C          -4.7723    0.6791    0.5576 C.3     1  UNL1        0.0118
      3 N          -3.6423    0.5591   -0.3467 N.am    1  UNL1       -0.3017
      4 C          -3.7643   -0.1698   -1.5768 C.3     1  UNL1        0.0118
      5 C          -3.4274   -1.6162   -1.4595 C.3     1  UNL1       -0.0493
      6 C          -2.4289    1.1915    0.0446 C.2     1  UNL1        0.2214
      7 O          -2.3791    1.8170    1.1338 O.2     1  UNL1       -0.2752
      8 C          -1.2610    1.0845   -0.8595 C.3     1  UNL1        0.0665
      9 C          -0.0836    1.7981   -0.3004 C.ar    1  UNL1        0.0522
     10 C           0.0438    3.1434   -0.6572 C.ar    1  UNL1       -0.0398
     11 C           1.1236    3.8343   -0.1564 C.ar    1  UNL1       -0.0568
     12 C           1.9874    3.1552    0.6497 C.ar    1  UNL1       -0.0204
     13 C           1.8761    1.8292    1.0110 C.ar    1  UNL1        0.1380
     14 N           2.8265    1.2196    1.8527 N.pl3   1  UNL1       -0.1994
     15 S           2.6738   -0.4367    2.2949 S.O2    1  UNL1        0.0738
     16 O           3.7333   -0.8091    3.2989 O.2     1  UNL1       -0.1499
     17 O           1.3486   -0.6822    2.9771 O.2     1  UNL1       -0.1499
     18 C           2.7415   -1.4782    0.8745 C.ar    1  UNL1        0.1128
     19 C           3.8976   -1.4285    0.1019 C.ar    1  UNL1       -0.0056
     20 C           5.0352   -0.5435    0.4425 C.3     1  UNL1       -0.0365
     21 C           3.9804   -2.2441   -1.0319 C.ar    1  UNL1        0.0457
     22 CL          5.4003   -2.2420   -2.0583 Cl      1  UNL1       -0.0832
     23 C           2.9309   -3.0884   -1.3826 C.ar    1  UNL1       -0.0430
     24 C           1.8128   -3.1106   -0.6014 C.ar    1  UNL1       -0.0585
     25 C           1.6864   -2.3196    0.5315 C.ar    1  UNL1       -0.0347
     26 N           0.8208    1.1943    0.5084 N.ar    1  UNL1       -0.2352
     27 H          -5.7494   -1.0442    1.4891 H       1  UNL1        0.0245
     28 H          -4.8361   -0.0618    2.6335 H       1  UNL1        0.0245
     29 H          -3.8921   -1.0390    1.5081 H       1  UNL1        0.0245
     30 H          -4.6854    1.6312    1.1215 H       1  UNL1        0.0462
     31 H          -5.7199    0.7926   -0.0285 H       1  UNL1        0.0462
     32 H          -3.1282    0.3022   -2.3238 H       1  UNL1        0.0462
     33 H          -4.8527   -0.1215   -1.8680 H       1  UNL1        0.0462
     34 H          -2.9284   -1.9422   -2.3955 H       1  UNL1        0.0245
     35 H          -4.3198   -2.2701   -1.3357 H       1  UNL1        0.0245
     36 H          -2.6792   -1.8067   -0.6381 H       1  UNL1        0.0245
     37 H          -1.4823    1.4312   -1.9034 H       1  UNL1        0.0422
     38 H          -0.9994    0.0088   -0.9800 H       1  UNL1        0.0422
     39 H          -0.6787    3.6206   -1.3015 H       1  UNL1        0.0636
     40 H           1.2858    4.8854   -0.3930 H       1  UNL1        0.0619
     41 H           2.8378    3.7272    1.0350 H       1  UNL1        0.0652
     42 H           3.6295    1.7707    2.2129 H       1  UNL1        0.1752
     43 H           5.9543   -1.0285    0.0451 H       1  UNL1        0.0279
     44 H           5.1906   -0.3837    1.5112 H       1  UNL1        0.0279
     45 H           4.9094    0.3993   -0.1329 H       1  UNL1        0.0279
     46 H           3.0209   -3.7187   -2.2777 H       1  UNL1        0.0632
     47 H           0.9868   -3.7421   -0.8340 H       1  UNL1        0.0619
     48 H           0.8059   -2.3167    1.1737 H       1  UNL1        0.0637
@<TRIPOS>BOND
     1     1     2    1
     2     2     3    1
     3     3     4    1
     4     4     5    1
     5     3     6   am
     6     6     7    2
     7     6     8    1
     8     8     9    1
     9     9    10   ar
    10    10    11   ar
    11    11    12   ar
    12    12    13   ar
    13    13    14    1
    14    14    15    1
    15    15    16    2
    16    15    17    2
    17    15    18    1
    18    18    19   ar
    19    19    20    1
    20    19    21   ar
    21    21    22    1
    22    21    23   ar
    23    23    24   ar
    24    24    25   ar
    25    13    26   ar
    26    26     9   ar
    27    25    18   ar
    28     1    27    1
    29     1    28    1
    30     1    29    1
    31     2    30    1
    32     2    31    1
    33     4    32    1
    34     4    33    1
    35     5    34    1
    36     5    35    1
    37     5    36    1
    38     8    37    1
    39     8    38    1
    40    10    39    1
    41    11    40    1
    42    12    41    1
    43    14    42    1
    44    20    43    1
    45    20    44    1
    46    20    45    1
    47    23    46    1
    48    24    47    1
    49    25    48    1
