@<TRIPOS>MOLECULE
*****
 54 58 0 0 0
SMALL
GASTEIGER

@<TRIPOS>ATOM
      1 C           2.8829    0.1063   -3.4314 C.3     1  UNL1       -0.0203
      2 C           2.7429   -0.4279   -2.0296 C.ar    1  UNL1        0.0660
      3 N           3.6703   -1.0995   -1.3659 N.ar    1  UNL1       -0.1752
      4 N           3.2588   -1.4409   -0.1495 N.ar    1  UNL1       -0.2561
      5 C           4.0451   -2.1700    0.7914 C.3     1  UNL1        0.0479
      6 C           5.0111   -3.0672    0.0056 C.3     1  UNL1       -0.0428
      7 C           3.2759   -3.0572    1.7090 C.3     1  UNL1       -0.0428
      8 C           1.9985   -0.9542   -0.0454 C.ar    1  UNL1        0.1296
      9 C           1.6459   -0.3112   -1.2123 C.ar    1  UNL1        0.0305
     10 C           0.2744    0.2240   -1.0830 C.3     1  UNL1        0.0881
     11 C           0.2456    1.7014   -1.1877 C.ar    1  UNL1        0.0131
     12 C          -0.3808    2.2668   -2.2770 C.ar    1  UNL1       -0.0523
     13 C          -0.4709    3.6232   -2.4818 C.ar    1  UNL1       -0.0429
     14 C           0.0919    4.4753   -1.5548 C.ar    1  UNL1        0.0437
     15 CL         -0.0227    6.2022   -1.8155 Cl      1  UNL1       -0.0835
     16 C           0.7253    3.9221   -0.4542 C.ar    1  UNL1       -0.0078
     17 C           0.8005    2.5473   -0.2739 C.ar    1  UNL1        0.1300
     18 F           1.4290    2.0223    0.8161 F       1  UNL1       -0.2051
     19 N          -0.2149   -0.1567    0.2208 N.am    1  UNL1       -0.2530
     20 C          -1.5003    0.0907    0.7775 C.ar    1  UNL1        0.0545
     21 C          -1.8153    1.1831    1.5557 C.ar    1  UNL1       -0.0324
     22 C          -3.0935    1.3395    2.0483 C.ar    1  UNL1       -0.0041
     23 C          -3.4621    2.5231    2.8996 C.3     1  UNL1       -0.0361
     24 C          -4.0162    0.3677    1.7280 C.ar    1  UNL1        0.1641
     25 N          -5.3139    0.2604    2.0625 N.ar    1  UNL1       -0.1292
     26 N          -5.7990   -0.8556    1.5173 N.ar    1  UNL1       -0.1340
     27 C          -4.8288   -1.4806    0.8278 C.ar    1  UNL1        0.1347
     28 C          -4.9827   -2.7565    0.0806 C.3     1  UNL1       -0.0041
     29 N          -3.7295   -0.7036    0.9719 N.ar    1  UNL1       -0.2846
     30 C          -2.4980   -0.8550    0.4968 C.ar    1  UNL1        0.0344
     31 C           0.8565   -0.8660    0.8531 C.2     1  UNL1        0.2700
     32 O           0.7755   -1.3213    2.0036 O.2     1  UNL1       -0.2679
     33 H           2.6434   -0.6863   -4.1818 H       1  UNL1        0.0293
     34 H           3.9578    0.3551   -3.5665 H       1  UNL1        0.0293
     35 H           2.2291    0.9911   -3.5414 H       1  UNL1        0.0293
     36 H           4.7245   -1.4925    1.3867 H       1  UNL1        0.0539
     37 H           4.4192   -3.9173   -0.4422 H       1  UNL1        0.0250
     38 H           5.7489   -3.5460    0.6686 H       1  UNL1        0.0250
     39 H           5.4480   -2.5265   -0.8482 H       1  UNL1        0.0250
     40 H           3.8987   -3.9681    1.9543 H       1  UNL1        0.0250
     41 H           2.3613   -3.4377    1.2557 H       1  UNL1        0.0250
     42 H           3.1182   -2.5720    2.7093 H       1  UNL1        0.0250
     43 H          -0.4161   -0.2218   -1.8313 H       1  UNL1        0.0607
     44 H          -0.8468    1.6357   -3.0473 H       1  UNL1        0.0622
     45 H          -0.9637    4.0574   -3.3386 H       1  UNL1        0.0632
     46 H           1.1697    4.5764    0.2785 H       1  UNL1        0.0661
     47 H          -1.0850    1.9109    1.7879 H       1  UNL1        0.0640
     48 H          -2.9313    3.4320    2.5487 H       1  UNL1        0.0279
     49 H          -4.5460    2.7447    2.8234 H       1  UNL1        0.0279
     50 H          -3.2563    2.3232    3.9687 H       1  UNL1        0.0279
     51 H          -4.2153   -2.8215   -0.7392 H       1  UNL1        0.0308
     52 H          -5.9644   -2.7995   -0.4568 H       1  UNL1        0.0308
     53 H          -4.8370   -3.6435    0.7280 H       1  UNL1        0.0308
     54 H          -2.2583   -1.7260   -0.1201 H       1  UNL1        0.0833
@<TRIPOS>BOND
     1     1     2    1
     2     2     3   ar
     3     3     4   ar
     4     4     5    1
     5     5     6    1
     6     5     7    1
     7     4     8   ar
     8     8     9   ar
     9     9    10    1
    10    10    11    1
    11    11    12   ar
    12    12    13   ar
    13    13    14   ar
    14    14    15    1
    15    14    16   ar
    16    16    17   ar
    17    17    18    1
    18    10    19    1
    19    19    20    1
    20    20    21   ar
    21    21    22   ar
    22    22    23    1
    23    22    24   ar
    24    24    25   ar
    25    25    26   ar
    26    26    27   ar
    27    27    28    1
    28    27    29   ar
    29    29    30   ar
    30    19    31   am
    31    31    32    2
    32     9     2   ar
    33    17    11   ar
    34    30    20   ar
    35    31     8    1
    36    29    24   ar
    37     1    33    1
    38     1    34    1
    39     1    35    1
    40     5    36    1
    41     6    37    1
    42     6    38    1
    43     6    39    1
    44     7    40    1
    45     7    41    1
    46     7    42    1
    47    10    43    1
    48    12    44    1
    49    13    45    1
    50    16    46    1
    51    21    47    1
    52    23    48    1
    53    23    49    1
    54    23    50    1
    55    28    51    1
    56    28    52    1
    57    28    53    1
    58    30    54    1
