
     RDKit          3D

 54 58  0  0  0  0  0  0  0  0999 V2000
    2.8829    0.1063   -3.4314 C   0  0  0  0  0  0  0  0  0  0  0  0
    2.7429   -0.4279   -2.0296 C   0  0  0  0  0  0  0  0  0  0  0  0
    3.6703   -1.0995   -1.3659 N   0  0  0  0  0  0  0  0  0  0  0  0
    3.2588   -1.4409   -0.1495 N   0  0  0  0  0  0  0  0  0  0  0  0
    4.0451   -2.1700    0.7914 C   0  0  0  0  0  0  0  0  0  0  0  0
    5.0111   -3.0672    0.0056 C   0  0  0  0  0  0  0  0  0  0  0  0
    3.2759   -3.0572    1.7090 C   0  0  0  0  0  0  0  0  0  0  0  0
    1.9985   -0.9542   -0.0454 C   0  0  0  0  0  0  0  0  0  0  0  0
    1.6459   -0.3112   -1.2123 C   0  0  0  0  0  0  0  0  0  0  0  0
    0.2744    0.2240   -1.0830 C   0  0  0  0  0  0  0  0  0  0  0  0
    0.2456    1.7014   -1.1877 C   0  0  0  0  0  0  0  0  0  0  0  0
   -0.3808    2.2668   -2.2770 C   0  0  0  0  0  0  0  0  0  0  0  0
   -0.4709    3.6232   -2.4818 C   0  0  0  0  0  0  0  0  0  0  0  0
    0.0919    4.4753   -1.5548 C   0  0  0  0  0  0  0  0  0  0  0  0
   -0.0227    6.2022   -1.8155 Cl  0  0  0  0  0  0  0  0  0  0  0  0
    0.7253    3.9221   -0.4542 C   0  0  0  0  0  0  0  0  0  0  0  0
    0.8005    2.5473   -0.2739 C   0  0  0  0  0  0  0  0  0  0  0  0
    1.4290    2.0223    0.8161 F   0  0  0  0  0  0  0  0  0  0  0  0
   -0.2149   -0.1567    0.2208 N   0  0  0  0  0  0  0  0  0  0  0  0
   -1.5003    0.0907    0.7775 C   0  0  0  0  0  0  0  0  0  0  0  0
   -1.8153    1.1831    1.5557 C   0  0  0  0  0  0  0  0  0  0  0  0
   -3.0935    1.3395    2.0483 C   0  0  0  0  0  0  0  0  0  0  0  0
   -3.4621    2.5231    2.8996 C   0  0  0  0  0  0  0  0  0  0  0  0
   -4.0162    0.3677    1.7280 C   0  0  0  0  0  0  0  0  0  0  0  0
   -5.3139    0.2604    2.0625 N   0  0  0  0  0  0  0  0  0  0  0  0
   -5.7990   -0.8556    1.5173 N   0  0  0  0  0  0  0  0  0  0  0  0
   -4.8288   -1.4806    0.8278 C   0  0  0  0  0  0  0  0  0  0  0  0
   -4.9827   -2.7565    0.0806 C   0  0  0  0  0  0  0  0  0  0  0  0
   -3.7295   -0.7036    0.9719 N   0  0  0  0  0  0  0  0  0  0  0  0
   -2.4980   -0.8550    0.4968 C   0  0  0  0  0  0  0  0  0  0  0  0
    0.8565   -0.8660    0.8531 C   0  0  0  0  0  0  0  0  0  0  0  0
    0.7755   -1.3213    2.0036 O   0  0  0  0  0  0  0  0  0  0  0  0
    2.6434   -0.6863   -4.1818 H   0  0  0  0  0  0  0  0  0  0  0  0
    3.9578    0.3551   -3.5665 H   0  0  0  0  0  0  0  0  0  0  0  0
    2.2291    0.9911   -3.5414 H   0  0  0  0  0  0  0  0  0  0  0  0
    4.7245   -1.4925    1.3867 H   0  0  0  0  0  0  0  0  0  0  0  0
    4.4192   -3.9173   -0.4422 H   0  0  0  0  0  0  0  0  0  0  0  0
    5.7489   -3.5460    0.6686 H   0  0  0  0  0  0  0  0  0  0  0  0
    5.4480   -2.5265   -0.8482 H   0  0  0  0  0  0  0  0  0  0  0  0
    3.8987   -3.9681    1.9543 H   0  0  0  0  0  0  0  0  0  0  0  0
    2.3613   -3.4377    1.2557 H   0  0  0  0  0  0  0  0  0  0  0  0
    3.1182   -2.5720    2.7093 H   0  0  0  0  0  0  0  0  0  0  0  0
   -0.4161   -0.2218   -1.8313 H   0  0  0  0  0  0  0  0  0  0  0  0
   -0.8468    1.6357   -3.0473 H   0  0  0  0  0  0  0  0  0  0  0  0
   -0.9637    4.0574   -3.3386 H   0  0  0  0  0  0  0  0  0  0  0  0
    1.1697    4.5764    0.2785 H   0  0  0  0  0  0  0  0  0  0  0  0
   -1.0850    1.9109    1.7879 H   0  0  0  0  0  0  0  0  0  0  0  0
   -2.9313    3.4320    2.5487 H   0  0  0  0  0  0  0  0  0  0  0  0
   -4.5460    2.7447    2.8234 H   0  0  0  0  0  0  0  0  0  0  0  0
   -3.2563    2.3232    3.9687 H   0  0  0  0  0  0  0  0  0  0  0  0
   -4.2153   -2.8215   -0.7392 H   0  0  0  0  0  0  0  0  0  0  0  0
   -5.9644   -2.7995   -0.4568 H   0  0  0  0  0  0  0  0  0  0  0  0
   -4.8370   -3.6435    0.7280 H   0  0  0  0  0  0  0  0  0  0  0  0
   -2.2583   -1.7260   -0.1201 H   0  0  0  0  0  0  0  0  0  0  0  0
  1  2  1  0
  2  3  2  0
  3  4  1  0
  4  5  1  0
  5  6  1  0
  5  7  1  0
  4  8  1  0
  8  9  2  0
  9 10  1  0
 10 11  1  0
 11 12  2  0
 12 13  1  0
 13 14  2  0
 14 15  1  0
 14 16  1  0
 16 17  2  0
 17 18  1  0
 10 19  1  0
 19 20  1  0
 20 21  1  0
 21 22  2  0
 22 23  1  0
 22 24  1  0
 24 25  2  0
 25 26  1  0
 26 27  2  0
 27 28  1  0
 27 29  1  0
 29 30  1  0
 19 31  1  0
 31 32  2  0
  9  2  1  0
 17 11  1  0
 30 20  2  0
 31  8  1  0
 29 24  1  0
  1 33  1  0
  1 34  1  0
  1 35  1  0
  5 36  1  0
  6 37  1  0
  6 38  1  0
  6 39  1  0
  7 40  1  0
  7 41  1  0
  7 42  1  0
 10 43  1  0
 12 44  1  0
 13 45  1  0
 16 46  1  0
 21 47  1  0
 23 48  1  0
 23 49  1  0
 23 50  1  0
 28 51  1  0
 28 52  1  0
 28 53  1  0
 30 54  1  0
M  END
$$$$
