
     RDKit          3D

 49 52  0  0  0  0  0  0  0  0999 V2000
    1.9348   -0.7958   -0.2396 O   0  0  0  0  0  0  0  0  0  0  0  0
    2.2282   -0.1408    0.7917 C   0  0  0  0  0  0  0  0  0  0  0  0
    3.3122   -0.4936    1.5992 N   0  0  0  0  0  0  0  0  0  0  0  0
    4.1622   -1.6198    1.3065 C   0  0  0  0  0  0  0  0  0  0  0  0
    5.1192   -1.3095    0.2233 C   0  0  0  0  0  0  0  0  0  0  0  0
    6.3160   -0.7053    0.6080 C   0  0  0  0  0  0  0  0  0  0  0  0
    7.2951   -0.3718   -0.2877 C   0  0  0  0  0  0  0  0  0  0  0  0
    7.1092   -0.6354   -1.6256 C   0  0  0  0  0  0  0  0  0  0  0  0
    5.9288   -1.2324   -2.0125 C   0  0  0  0  0  0  0  0  0  0  0  0
    4.9267   -1.5756   -1.1081 C   0  0  0  0  0  0  0  0  0  0  0  0
    1.3893    1.0179    1.1259 C   0  0  0  0  0  0  0  0  0  0  0  0
    1.6100    1.8071    2.2296 C   0  0  0  0  0  0  0  0  0  0  0  0
    0.7828    2.8974    2.5014 C   0  0  0  0  0  0  0  0  0  0  0  0
   -0.2598    3.1861    1.6631 C   0  0  0  0  0  0  0  0  0  0  0  0
   -0.5338    2.4125    0.5183 C   0  0  0  0  0  0  0  0  0  0  0  0
   -1.6085    2.7773   -0.3255 N   0  0  0  0  0  0  0  0  0  0  0  0
   -2.0001    1.9969   -1.4548 C   0  0  0  0  0  0  0  0  0  0  0  0
   -2.7466    0.7570   -1.1268 C   0  0  0  0  0  0  0  0  0  0  0  0
   -4.0974    0.6839   -0.8879 N   0  0  0  0  0  0  0  0  0  0  0  0
   -4.4663   -0.5865   -0.6445 C   0  0  0  0  0  0  0  0  0  0  0  0
   -5.7930   -1.1049   -0.3463 C   0  0  0  0  0  0  0  0  0  0  0  0
   -6.8581   -0.2619   -0.1857 C   0  0  0  0  0  0  0  0  0  0  0  0
   -8.1172   -0.7472    0.0962 C   0  0  0  0  0  0  0  0  0  0  0  0
   -8.2748   -2.0766    0.2101 N   0  0  0  0  0  0  0  0  0  0  0  0
   -7.2406   -2.9194    0.0556 C   0  0  0  0  0  0  0  0  0  0  0  0
   -5.9757   -2.4530   -0.2262 C   0  0  0  0  0  0  0  0  0  0  0  0
   -3.3395   -1.2991   -0.7337 N   0  0  0  0  0  0  0  0  0  0  0  0
   -2.3059   -0.4864   -1.0247 N   0  0  0  0  0  0  0  0  0  0  0  0
    0.3131    1.3591    0.3066 C   0  0  0  0  0  0  0  0  0  0  0  0
    3.5433    0.0530    2.4491 H   0  0  0  0  0  0  0  0  0  0  0  0
    4.7482   -1.9429    2.1915 H   0  0  0  0  0  0  0  0  0  0  0  0
    3.4779   -2.4640    1.0086 H   0  0  0  0  0  0  0  0  0  0  0  0
    6.4779   -0.4919    1.6499 H   0  0  0  0  0  0  0  0  0  0  0  0
    8.1980    0.0964    0.0974 H   0  0  0  0  0  0  0  0  0  0  0  0
    7.8780   -0.3731   -2.3263 H   0  0  0  0  0  0  0  0  0  0  0  0
    5.7332   -1.4618   -3.0603 H   0  0  0  0  0  0  0  0  0  0  0  0
    4.0143   -2.0465   -1.4208 H   0  0  0  0  0  0  0  0  0  0  0  0
    2.4205    1.6052    2.9064 H   0  0  0  0  0  0  0  0  0  0  0  0
    0.9676    3.5140    3.3768 H   0  0  0  0  0  0  0  0  0  0  0  0
   -0.9043    4.0256    1.8640 H   0  0  0  0  0  0  0  0  0  0  0  0
   -2.1612    3.6525   -0.1410 H   0  0  0  0  0  0  0  0  0  0  0  0
   -1.1078    1.6543   -2.0600 H   0  0  0  0  0  0  0  0  0  0  0  0
   -2.6084    2.5748   -2.1876 H   0  0  0  0  0  0  0  0  0  0  0  0
   -6.7364    0.8274   -0.2776 H   0  0  0  0  0  0  0  0  0  0  0  0
   -8.9485   -0.0475    0.2189 H   0  0  0  0  0  0  0  0  0  0  0  0
   -7.4683   -3.9833    0.1672 H   0  0  0  0  0  0  0  0  0  0  0  0
   -5.1619   -3.1806   -0.3436 H   0  0  0  0  0  0  0  0  0  0  0  0
   -1.3379   -0.8410   -1.1479 H   0  0  0  0  0  0  0  0  0  0  0  0
    0.1652    0.7490   -0.5586 H   0  0  0  0  0  0  0  0  0  0  0  0
  1  2  2  0
  2  3  1  0
  3  4  1  0
  4  5  1  0
  5  6  2  0
  6  7  1  0
  7  8  2  0
  8  9  1  0
  9 10  2  0
  2 11  1  0
 11 12  2  0
 12 13  1  0
 13 14  2  0
 14 15  1  0
 15 16  1  0
 16 17  1  0
 17 18  1  0
 18 19  2  0
 19 20  1  0
 20 21  1  0
 21 22  2  0
 22 23  1  0
 23 24  2  0
 24 25  1  0
 25 26  2  0
 20 27  2  0
 27 28  1  0
 15 29  2  0
 10  5  1  0
 29 11  1  0
 28 18  1  0
 26 21  1  0
  3 30  1  0
  4 31  1  0
  4 32  1  0
  6 33  1  0
  7 34  1  0
  8 35  1  0
  9 36  1  0
 10 37  1  0
 12 38  1  0
 13 39  1  0
 14 40  1  0
 16 41  1  0
 17 42  1  0
 17 43  1  0
 22 44  1  0
 23 45  1  0
 25 46  1  0
 26 47  1  0
 28 48  1  0
 29 49  1  0
M  END
$$$$
