@<TRIPOS>MOLECULE
*****
 49 52 0 0 0
SMALL
GASTEIGER

@<TRIPOS>ATOM
      1 O           1.9348   -0.7958   -0.2396 O.2     1  UNL1       -0.2702
      2 C           2.2282   -0.1408    0.7917 C.2     1  UNL1        0.2444
      3 N           3.3122   -0.4936    1.5992 N.am    1  UNL1       -0.3072
      4 C           4.1622   -1.6198    1.3065 C.3     1  UNL1        0.0371
      5 C           5.1192   -1.3095    0.2233 C.ar    1  UNL1       -0.0303
      6 C           6.3160   -0.7053    0.6080 C.ar    1  UNL1       -0.0571
      7 C           7.2951   -0.3718   -0.2877 C.ar    1  UNL1       -0.0615
      8 C           7.1092   -0.6354   -1.6256 C.ar    1  UNL1       -0.0617
      9 C           5.9288   -1.2324   -2.0125 C.ar    1  UNL1       -0.0615
     10 C           4.9267   -1.5756   -1.1081 C.ar    1  UNL1       -0.0571
     11 C           1.3893    1.0179    1.1259 C.ar    1  UNL1        0.0384
     12 C           1.6100    1.8071    2.2296 C.ar    1  UNL1       -0.0495
     13 C           0.7828    2.8974    2.5014 C.ar    1  UNL1       -0.0593
     14 C          -0.2598    3.1861    1.6631 C.ar    1  UNL1       -0.0408
     15 C          -0.5338    2.4125    0.5183 C.ar    1  UNL1        0.0282
     16 N          -1.6085    2.7773   -0.3255 N.pl3   1  UNL1       -0.3367
     17 C          -2.0001    1.9969   -1.4548 C.3     1  UNL1        0.0686
     18 C          -2.7466    0.7570   -1.1268 C.ar    1  UNL1        0.1427
     19 N          -4.0974    0.6839   -0.8879 N.ar    1  UNL1       -0.2099
     20 C          -4.4663   -0.5865   -0.6445 C.ar    1  UNL1        0.1815
     21 C          -5.7930   -1.1049   -0.3463 C.ar    1  UNL1        0.0237
     22 C          -6.8581   -0.2619   -0.1857 C.ar    1  UNL1       -0.0328
     23 C          -8.1172   -0.7472    0.0962 C.ar    1  UNL1        0.0282
     24 N          -8.2748   -2.0766    0.2101 N.ar    1  UNL1       -0.2632
     25 C          -7.2406   -2.9194    0.0556 C.ar    1  UNL1        0.0282
     26 C          -5.9757   -2.4530   -0.2262 C.ar    1  UNL1       -0.0328
     27 N          -3.3395   -1.2991   -0.7337 N.ar    1  UNL1       -0.1522
     28 N          -2.3059   -0.4864   -1.0247 N.ar    1  UNL1       -0.2609
     29 C           0.3131    1.3591    0.3066 C.ar    1  UNL1       -0.0287
     30 H           3.5433    0.0530    2.4491 H       1  UNL1        0.1493
     31 H           4.7482   -1.9429    2.1915 H       1  UNL1        0.0512
     32 H           3.4779   -2.4640    1.0086 H       1  UNL1        0.0512
     33 H           6.4779   -0.4919    1.6499 H       1  UNL1        0.0621
     34 H           8.1980    0.0964    0.0974 H       1  UNL1        0.0618
     35 H           7.8780   -0.3731   -2.3263 H       1  UNL1        0.0618
     36 H           5.7332   -1.4618   -3.0603 H       1  UNL1        0.0618
     37 H           4.0143   -2.0465   -1.4208 H       1  UNL1        0.0621
     38 H           2.4205    1.6052    2.9064 H       1  UNL1        0.0625
     39 H           0.9676    3.5140    3.3768 H       1  UNL1        0.0618
     40 H          -0.9043    4.0256    1.8640 H       1  UNL1        0.0636
     41 H          -2.1612    3.6525   -0.1410 H       1  UNL1        0.1465
     42 H          -1.1078    1.6543   -2.0600 H       1  UNL1        0.0542
     43 H          -2.6084    2.5748   -2.1876 H       1  UNL1        0.0542
     44 H          -6.7364    0.8274   -0.2776 H       1  UNL1        0.0640
     45 H          -8.9485   -0.0475    0.2189 H       1  UNL1        0.0830
     46 H          -7.4683   -3.9833    0.1672 H       1  UNL1        0.0830
     47 H          -5.1619   -3.1806   -0.3436 H       1  UNL1        0.0640
     48 H          -1.3379   -0.8410   -1.1479 H       1  UNL1        0.1903
     49 H           0.1652    0.7490   -0.5586 H       1  UNL1        0.0643
@<TRIPOS>BOND
     1     1     2    2
     2     2     3   am
     3     3     4    1
     4     4     5    1
     5     5     6   ar
     6     6     7   ar
     7     7     8   ar
     8     8     9   ar
     9     9    10   ar
    10     2    11    1
    11    11    12   ar
    12    12    13   ar
    13    13    14   ar
    14    14    15   ar
    15    15    16    1
    16    16    17    1
    17    17    18    1
    18    18    19   ar
    19    19    20   ar
    20    20    21    1
    21    21    22   ar
    22    22    23   ar
    23    23    24   ar
    24    24    25   ar
    25    25    26   ar
    26    20    27   ar
    27    27    28   ar
    28    15    29   ar
    29    10     5   ar
    30    29    11   ar
    31    28    18   ar
    32    26    21   ar
    33     3    30    1
    34     4    31    1
    35     4    32    1
    36     6    33    1
    37     7    34    1
    38     8    35    1
    39     9    36    1
    40    10    37    1
    41    12    38    1
    42    13    39    1
    43    14    40    1
    44    16    41    1
    45    17    42    1
    46    17    43    1
    47    22    44    1
    48    23    45    1
    49    25    46    1
    50    26    47    1
    51    28    48    1
    52    29    49    1
