@<TRIPOS>MOLECULE
*****
 42 45 0 0 0
SMALL
GASTEIGER

@<TRIPOS>ATOM
      1 N          -5.3289    2.1942    0.7874 N.pl3   1  UNL1       -0.3579
      2 C          -4.5764    1.0242    1.0552 C.ar    1  UNL1        0.0251
      3 C          -4.7664    0.2971    2.2326 C.ar    1  UNL1       -0.0410
      4 C          -4.0292   -0.8381    2.4815 C.ar    1  UNL1       -0.0594
      5 C          -3.0879   -1.2879    1.5822 C.ar    1  UNL1       -0.0538
      6 C          -2.8676   -0.5900    0.3939 C.ar    1  UNL1       -0.0121
      7 C          -1.8749   -1.0626   -0.5580 C.ar    1  UNL1        0.0313
      8 C          -2.2537   -1.9402   -1.5434 C.ar    1  UNL1        0.1251
      9 O          -3.5791   -2.3397   -1.5869 O.3     1  UNL1       -0.5061
     10 C          -1.3861   -2.4369   -2.4811 C.ar    1  UNL1       -0.0190
     11 C          -0.0626   -2.0242   -2.4202 C.ar    1  UNL1       -0.0505
     12 C           0.3608   -1.1482   -1.4525 C.ar    1  UNL1       -0.0165
     13 C           1.6593   -0.7278   -1.3715 C.ar    1  UNL1       -0.0463
     14 C           2.0897    0.1597   -0.3901 C.ar    1  UNL1       -0.0172
     15 C           3.4616    0.6260   -0.2764 C.ar    1  UNL1       -0.0144
     16 C           4.2275    0.7694   -1.4125 C.ar    1  UNL1       -0.0538
     17 C           5.5520    1.2165   -1.3327 C.ar    1  UNL1       -0.0577
     18 C           6.1197    1.5233   -0.1160 C.ar    1  UNL1       -0.0201
     19 C           5.3552    1.3804    1.0211 C.ar    1  UNL1        0.1174
     20 O           5.9287    1.6896    2.2446 O.3     1  UNL1       -0.5067
     21 C           4.0399    0.9358    0.9358 C.ar    1  UNL1       -0.0125
     22 C           1.1475    0.6052    0.5087 C.ar    1  UNL1       -0.0534
     23 C          -0.1644    0.2106    0.4652 C.ar    1  UNL1       -0.0528
     24 C          -0.5501   -0.6736   -0.5277 C.ar    1  UNL1       -0.0067
     25 C          -3.6218    0.5346    0.1840 C.ar    1  UNL1       -0.0332
     26 H          -6.3537    2.2428    0.9225 H       1  UNL1        0.1423
     27 H          -4.8345    3.0353    0.4423 H       1  UNL1        0.1423
     28 H          -5.5128    0.6776    2.9164 H       1  UNL1        0.0636
     29 H          -4.1770   -1.4020    3.3957 H       1  UNL1        0.0618
     30 H          -2.4887   -2.1726    1.7383 H       1  UNL1        0.0624
     31 H          -4.0389   -2.8646   -0.8571 H       1  UNL1        0.2922
     32 H          -1.7093   -3.1390   -3.2622 H       1  UNL1        0.0654
     33 H           0.6062   -2.4256   -3.1665 H       1  UNL1        0.0625
     34 H           2.3809   -1.0849   -2.0803 H       1  UNL1        0.0630
     35 H           3.8360    0.5439   -2.3965 H       1  UNL1        0.0624
     36 H           6.1187    1.3154   -2.2480 H       1  UNL1        0.0619
     37 H           7.1464    1.8669   -0.0852 H       1  UNL1        0.0654
     38 H           6.6092    1.0916    2.6790 H       1  UNL1        0.2921
     39 H           3.4942    0.8442    1.8549 H       1  UNL1        0.0660
     40 H           1.4676    1.3009    1.2839 H       1  UNL1        0.0624
     41 H          -0.8873    0.5749    1.1834 H       1  UNL1        0.0624
     42 H          -3.4498    1.0793   -0.7438 H       1  UNL1        0.0642
@<TRIPOS>BOND
     1     1     2    1
     2     2     3   ar
     3     3     4   ar
     4     4     5   ar
     5     5     6   ar
     6     6     7    1
     7     7     8   ar
     8     8     9    1
     9     8    10   ar
    10    10    11   ar
    11    11    12   ar
    12    12    13   ar
    13    13    14   ar
    14    14    15    1
    15    15    16   ar
    16    16    17   ar
    17    17    18   ar
    18    18    19   ar
    19    19    20    1
    20    19    21   ar
    21    14    22   ar
    22    22    23   ar
    23    23    24   ar
    24     6    25   ar
    25    25     2   ar
    26    24     7   ar
    27    24    12   ar
    28    21    15   ar
    29     1    26    1
    30     1    27    1
    31     3    28    1
    32     4    29    1
    33     5    30    1
    34     9    31    1
    35    10    32    1
    36    11    33    1
    37    13    34    1
    38    16    35    1
    39    17    36    1
    40    18    37    1
    41    20    38    1
    42    21    39    1
    43    22    40    1
    44    23    41    1
    45    25    42    1
