@<TRIPOS>MOLECULE
*****
 30 31 0 0 0
SMALL
GASTEIGER

@<TRIPOS>ATOM
      1 N4         -5.2369    0.7910   -0.8184 N.pl3   1    C1       -0.3430
      2 C4         -3.8790    0.5761   -0.5032 C.ar    1    C1        0.1230
      3 N3         -3.4048   -0.6994   -0.4479 N.ar    1    C1       -0.1783
      4 C2         -2.1134   -0.9279   -0.1493 C.ar    1    C1        0.3522
      5 O2         -1.7324   -2.1261   -0.1128 O.2     1    C1       -0.2444
      6 N1         -1.1911    0.0019    0.1139 N.ar    1    C1       -0.2700
      7 C6         -1.6282    1.2887    0.0680 C.ar    1    C1        0.0152
      8 C5         -2.9586    1.5710   -0.2376 C.ar    1    C1       -0.0056
      9 C1*         0.1726   -0.1986    0.4311 C.3     1    C1        0.1680
     10 O4*         1.0465    0.7048   -0.1932 O.3     1    C1       -0.3456
     11 C4*         2.2455    0.2809    0.3813 C.3     1    C1        0.1126
     12 C5*         3.4509    0.9035   -0.2622 C.3     1    C1        0.0730
     13 O5*         3.5449    0.6056   -1.6144 O.3     1    C1       -0.3924
     14 C3*         2.2620   -1.2274    0.3147 C.3     1    C1        0.1135
     15 O3*         2.6018   -1.7988    1.5430 O.3     1    C1       -0.3864
     16 C2*         0.7728   -1.5124    0.0894 C.3     1    C1        0.1286
     17 O2*         0.6555   -1.8852   -1.2335 O.3     1    C1       -0.3847
     18 H41        -5.9658    0.3700   -0.1924 H       1    C1        0.1437
     19 H42        -5.6054    1.3470   -1.6419 H       1    C1        0.1437
     20 H6         -0.9939    2.1615    0.2596 H       1    C1        0.0812
     21 H5         -3.3604    2.5842   -0.2875 H       1    C1        0.0666
     22 H1*         0.3316   -0.0509    1.5224 H       1    C1        0.0867
     23 H4*         2.1730    0.5509    1.4508 H       1    C1        0.0647
     24 H5*1        3.4637    1.9809   -0.1105 H       1    C1        0.0584
     25 H5*2        4.3390    0.4200    0.2231 H       1    C1        0.0584
     26 H5*         4.4790    0.4347   -1.8796 H       1    C1        0.2095
     27 H3*         2.8938   -1.6063   -0.5107 H       1    C1        0.0647
     28 H3*         2.5737   -1.0693    2.2285 H       1    C1        0.2100
     29 H2*         0.4390   -2.3620    0.7211 H       1    C1        0.0665
     30 H2*         0.6247   -1.1083   -1.8660 H       1    C1        0.2101
@<TRIPOS>BOND
     1     1     2    1
     2     2     3   ar
     3     3     4   ar
     4     4     5    2
     5     4     6   ar
     6     6     7   ar
     7     7     8   ar
     8     6     9    1
     9     9    10    1
    10    10    11    1
    11    11    12    1
    12    12    13    1
    13    11    14    1
    14    14    15    1
    15    14    16    1
    16    16    17    1
    17     8     2   ar
    18    16     9    1
    19     1    18    1
    20     1    19    1
    21     7    20    1
    22     8    21    1
    23     9    22    1
    24    11    23    1
    25    12    24    1
    26    12    25    1
    27    13    26    1
    28    14    27    1
    29    15    28    1
    30    16    29    1
    31    17    30    1
