
     RDKit          3D

 30 31  0  0  0  0  0  0  0  0999 V2000
   -5.2369    0.7910   -0.8184 N   0  0  0  0  0  0  0  0  0  0  0  0
   -3.8790    0.5761   -0.5032 C   0  0  0  0  0  0  0  0  0  0  0  0
   -3.4048   -0.6994   -0.4479 N   0  0  0  0  0  0  0  0  0  0  0  0
   -2.1134   -0.9279   -0.1493 C   0  0  0  0  0  0  0  0  0  0  0  0
   -1.7324   -2.1261   -0.1128 O   0  0  0  0  0  0  0  0  0  0  0  0
   -1.1911    0.0019    0.1139 N   0  0  0  0  0  0  0  0  0  0  0  0
   -1.6282    1.2887    0.0680 C   0  0  0  0  0  0  0  0  0  0  0  0
   -2.9586    1.5710   -0.2376 C   0  0  0  0  0  0  0  0  0  0  0  0
    0.1726   -0.1986    0.4311 C   0  0  2  0  0  0  0  0  0  0  0  0
    1.0465    0.7048   -0.1932 O   0  0  0  0  0  0  0  0  0  0  0  0
    2.2455    0.2809    0.3813 C   0  0  2  0  0  0  0  0  0  0  0  0
    3.4509    0.9035   -0.2622 C   0  0  0  0  0  0  0  0  0  0  0  0
    3.5449    0.6056   -1.6144 O   0  0  0  0  0  0  0  0  0  0  0  0
    2.2620   -1.2274    0.3147 C   0  0  1  0  0  0  0  0  0  0  0  0
    2.6018   -1.7988    1.5430 O   0  0  0  0  0  0  0  0  0  0  0  0
    0.7728   -1.5124    0.0894 C   0  0  2  0  0  0  0  0  0  0  0  0
    0.6555   -1.8852   -1.2335 O   0  0  0  0  0  0  0  0  0  0  0  0
   -5.9658    0.3700   -0.1924 H   0  0  0  0  0  0  0  0  0  0  0  0
   -5.6054    1.3470   -1.6419 H   0  0  0  0  0  0  0  0  0  0  0  0
   -0.9939    2.1615    0.2596 H   0  0  0  0  0  0  0  0  0  0  0  0
   -3.3604    2.5842   -0.2875 H   0  0  0  0  0  0  0  0  0  0  0  0
    0.3316   -0.0509    1.5224 H   0  0  0  0  0  0  0  0  0  0  0  0
    2.1730    0.5509    1.4508 H   0  0  0  0  0  0  0  0  0  0  0  0
    3.4637    1.9809   -0.1105 H   0  0  0  0  0  0  0  0  0  0  0  0
    4.3390    0.4200    0.2231 H   0  0  0  0  0  0  0  0  0  0  0  0
    4.4790    0.4347   -1.8796 H   0  0  0  0  0  0  0  0  0  0  0  0
    2.8938   -1.6063   -0.5107 H   0  0  0  0  0  0  0  0  0  0  0  0
    2.5737   -1.0693    2.2285 H   0  0  0  0  0  0  0  0  0  0  0  0
    0.4390   -2.3620    0.7211 H   0  0  0  0  0  0  0  0  0  0  0  0
    0.6247   -1.1083   -1.8660 H   0  0  0  0  0  0  0  0  0  0  0  0
  1  2  1  0
  2  3  2  0
  3  4  1  0
  4  5  2  0
  4  6  1  0
  6  7  1  0
  7  8  2  0
  6  9  1  0
  9 10  1  0
 10 11  1  0
 11 12  1  0
 12 13  1  0
 11 14  1  0
 14 15  1  0
 14 16  1  0
 16 17  1  0
  8  2  1  0
 16  9  1  0
  1 18  1  0
  1 19  1  0
  7 20  1  0
  8 21  1  0
  9 22  1  1
 11 23  1  1
 12 24  1  0
 12 25  1  0
 13 26  1  0
 14 27  1  6
 15 28  1  0
 16 29  1  1
 17 30  1  0
M  END
$$$$
