@<TRIPOS>MOLECULE
*****
 48 50 0 0 0
SMALL
GASTEIGER

@<TRIPOS>ATOM
      1 C           6.1282    0.5858    2.5791 C.3     1  UNL1        0.0789
      2 O           6.4816   -0.4292    1.6784 O.3     1  UNL1       -0.4936
      3 C           5.5880   -0.7911    0.6719 C.ar    1  UNL1        0.1401
      4 C           4.3750   -0.1638    0.5602 C.ar    1  UNL1        0.0026
      5 C           3.4986   -0.5396   -0.4487 C.ar    1  UNL1        0.0333
      6 N           2.2524    0.1232   -0.5317 N.pl3   1  UNL1       -0.3268
      7 C           1.8271    0.9501    0.5991 C.3     1  UNL1        0.0280
      8 C           0.4914    1.5637    0.2725 C.3     1  UNL1        0.0305
      9 N          -0.4108    0.5766   -0.2447 N.am    1  UNL1       -0.2970
     10 C          -1.7790    0.6184    0.0963 C.2     1  UNL1        0.2371
     11 O          -2.1921    1.5336    0.8663 O.2     1  UNL1       -0.2736
     12 C          -2.6943   -0.4130   -0.4595 C.3     1  UNL1        0.1181
     13 N          -4.0549   -0.2037   -0.0210 N.ar    1  UNL1       -0.2578
     14 N          -4.5666   -0.7385    1.0746 N.ar    1  UNL1       -0.1650
     15 C          -5.8517   -0.3681    1.2156 C.ar    1  UNL1        0.1837
     16 C          -6.7405   -0.7787    2.3267 C.3     1  UNL1        0.4373
     17 F          -7.8414   -1.4640    1.8184 F       1  UNL1       -0.1643
     18 F          -6.0873   -1.7007    3.1576 F       1  UNL1       -0.1643
     19 F          -7.1331    0.2633    3.1134 F       1  UNL1       -0.1643
     20 C          -6.1136    0.4391    0.1303 C.ar    1  UNL1        0.0932
     21 CL         -7.6452    1.1918   -0.1827 Cl      1  UNL1       -0.0795
     22 C          -4.9733    0.5442   -0.6555 C.ar    1  UNL1        0.0555
     23 C          -4.8844    1.3244   -1.8991 C.3     1  UNL1       -0.0212
     24 C           0.0479   -0.4968   -1.1394 C.3     1  UNL1        0.0305
     25 C           1.3889    0.0256   -1.6807 C.3     1  UNL1        0.0280
     26 C           3.8381   -1.5263   -1.3265 C.ar    1  UNL1       -0.0391
     27 C           5.0713   -2.1676   -1.2192 C.ar    1  UNL1       -0.0381
     28 C           5.9373   -1.8005   -0.2259 C.ar    1  UNL1        0.0826
     29 CL          7.5167   -2.5800   -0.0373 Cl      1  UNL1       -0.0798
     30 H           5.1959    0.3672    3.1452 H       1  UNL1        0.0660
     31 H           6.9873    0.8288    3.2657 H       1  UNL1        0.0660
     32 H           5.8931    1.4944    1.9616 H       1  UNL1        0.0660
     33 H           4.1202    0.6288    1.2787 H       1  UNL1        0.0673
     34 H           2.5358    1.8026    0.7607 H       1  UNL1        0.0479
     35 H           1.7002    0.3510    1.5179 H       1  UNL1        0.0479
     36 H           0.6031    2.3334   -0.5219 H       1  UNL1        0.0480
     37 H           0.0473    2.0284    1.1941 H       1  UNL1        0.0480
     38 H          -2.6154   -0.3272   -1.5658 H       1  UNL1        0.0605
     39 H          -2.3520   -1.4066   -0.1176 H       1  UNL1        0.0605
     40 H          -5.3664    2.3182   -1.8355 H       1  UNL1        0.0293
     41 H          -5.3704    0.8053   -2.7743 H       1  UNL1        0.0293
     42 H          -3.8414    1.5097   -2.2169 H       1  UNL1        0.0293
     43 H           0.2489   -1.3812   -0.5285 H       1  UNL1        0.0480
     44 H          -0.6406   -0.6703   -1.9705 H       1  UNL1        0.0480
     45 H           1.7563   -0.5476   -2.5166 H       1  UNL1        0.0479
     46 H           1.1306    1.0729   -2.0374 H       1  UNL1        0.0479
     47 H           3.1723   -1.8378   -2.1159 H       1  UNL1        0.0636
     48 H           5.3210   -2.9484   -1.9246 H       1  UNL1        0.0634
@<TRIPOS>BOND
     1     1     2    1
     2     2     3    1
     3     3     4   ar
     4     4     5   ar
     5     5     6    1
     6     6     7    1
     7     7     8    1
     8     8     9    1
     9     9    10   am
    10    10    11    2
    11    10    12    1
    12    12    13    1
    13    13    14   ar
    14    14    15   ar
    15    15    16    1
    16    16    17    1
    17    16    18    1
    18    16    19    1
    19    15    20   ar
    20    20    21    1
    21    20    22   ar
    22    22    23    1
    23     9    24    1
    24    24    25    1
    25     5    26   ar
    26    26    27   ar
    27    27    28   ar
    28    28    29    1
    29    28     3   ar
    30    25     6    1
    31    22    13   ar
    32     1    30    1
    33     1    31    1
    34     1    32    1
    35     4    33    1
    36     7    34    1
    37     7    35    1
    38     8    36    1
    39     8    37    1
    40    12    38    1
    41    12    39    1
    42    23    40    1
    43    23    41    1
    44    23    42    1
    45    24    43    1
    46    24    44    1
    47    25    45    1
    48    25    46    1
    49    26    47    1
    50    27    48    1
