@<TRIPOS>MOLECULE
*****
 58 62 0 0 0
SMALL
GASTEIGER

@<TRIPOS>ATOM
      1 C          -8.4689    4.2551    0.8826 C.3     1  UNL1       -0.0209
      2 C          -7.3412    3.3699    0.5290 C.ar    1  UNL1        0.0563
      3 C          -6.8097    2.3525    1.3009 C.ar    1  UNL1        0.0322
      4 N          -5.7991    1.7712    0.6524 N.ar    1  UNL1       -0.3055
      5 C          -5.0149    0.6984    1.1221 C.ar    1  UNL1        0.0492
      6 C          -5.4245   -0.0041    2.2397 C.ar    1  UNL1       -0.0377
      7 C          -4.6610   -1.0437    2.6915 C.ar    1  UNL1       -0.0581
      8 C          -3.4765   -1.3864    2.0220 C.ar    1  UNL1       -0.0403
      9 C          -3.0810   -0.6780    0.9103 C.ar    1  UNL1        0.0356
     10 N          -1.8730   -1.0282    0.2280 N.am    1  UNL1       -0.2814
     11 C          -1.8421   -1.9609   -0.8247 C.2     1  UNL1        0.2483
     12 O          -2.9481   -2.4883   -1.1511 O.2     1  UNL1       -0.2699
     13 C          -0.6419   -2.3376   -1.5344 C.ar    1  UNL1        0.0388
     14 C          -0.7430   -3.2723   -2.5574 C.ar    1  UNL1       -0.0493
     15 C           0.3916   -3.6355   -3.2353 C.ar    1  UNL1       -0.0564
     16 C           1.6000   -3.0778   -2.8991 C.ar    1  UNL1       -0.0292
     17 C           2.8109   -3.4736   -3.6315 C.3     1  UNL1       -0.0380
     18 C           1.7269   -2.1328   -1.8709 C.ar    1  UNL1        0.0372
     19 N           3.0054   -1.6244   -1.6072 N.pl3   1  UNL1       -0.2834
     20 C           3.3713   -0.6734   -0.6287 C.ar    1  UNL1        0.2200
     21 N           2.5017   -0.1122    0.2086 N.ar    1  UNL1       -0.2226
     22 C           2.8374    0.7937    1.1443 C.ar    1  UNL1        0.0332
     23 C           4.1637    1.1893    1.2710 C.ar    1  UNL1       -0.0174
     24 C           5.0777    0.6235    0.4179 C.ar    1  UNL1        0.0775
     25 C           6.5176    0.9758    0.4690 C.ar    1  UNL1        0.0186
     26 C           7.0298    1.8698    1.3497 C.ar    1  UNL1       -0.0497
     27 C           8.3862    2.1383    1.3268 C.ar    1  UNL1       -0.0430
     28 C           9.2026    1.5048    0.4208 C.ar    1  UNL1        0.0276
     29 N           8.6647    0.6322   -0.4296 N.ar    1  UNL1       -0.2626
     30 C           7.3585    0.3536   -0.4301 C.ar    1  UNL1        0.0367
     31 N           4.6742   -0.2744   -0.4927 N.ar    1  UNL1       -0.2142
     32 C           0.6112   -1.7820   -1.2114 C.ar    1  UNL1       -0.0281
     33 C          -3.8302    0.3539    0.4542 C.ar    1  UNL1       -0.0166
     34 C          -5.6745    2.3978   -0.5199 C.ar    1  UNL1        0.1007
     35 N          -6.6147    3.3806   -0.6077 N.ar    1  UNL1       -0.2406
     36 H          -8.3244    4.7564    1.8631 H       1  UNL1        0.0293
     37 H          -9.3704    3.6072    1.0105 H       1  UNL1        0.0293
     38 H          -8.6313    4.9843    0.0640 H       1  UNL1        0.0293
     39 H          -7.1889    2.1018    2.2777 H       1  UNL1        0.0831
     40 H          -6.3511    0.2900    2.7354 H       1  UNL1        0.0638
     41 H          -4.9539   -1.6067    3.5561 H       1  UNL1        0.0619
     42 H          -2.8509   -2.2075    2.3590 H       1  UNL1        0.0636
     43 H          -1.0043   -0.5473    0.5588 H       1  UNL1        0.1551
     44 H          -1.7146   -3.7042   -2.8092 H       1  UNL1        0.0625
     45 H           0.2989   -4.3622   -4.0271 H       1  UNL1        0.0621
     46 H           3.1510   -2.6472   -4.2797 H       1  UNL1        0.0278
     47 H           2.5652   -4.3241   -4.2943 H       1  UNL1        0.0278
     48 H           3.6137   -3.8378   -2.9572 H       1  UNL1        0.0278
     49 H           3.8489   -1.9647   -2.1910 H       1  UNL1        0.1550
     50 H           2.1352    1.2515    1.8257 H       1  UNL1        0.0831
     51 H           4.4581    1.9098    2.0086 H       1  UNL1        0.0654
     52 H           6.3879    2.3787    2.0742 H       1  UNL1        0.0625
     53 H           8.8130    2.8501    2.0235 H       1  UNL1        0.0633
     54 H          10.2802    1.7276    0.4133 H       1  UNL1        0.0829
     55 H           7.0011   -0.3723   -1.1590 H       1  UNL1        0.0836
     56 H           0.6378   -1.0604   -0.4094 H       1  UNL1        0.0644
     57 H          -3.5380    0.9190   -0.4119 H       1  UNL1        0.0657
     58 H          -4.9506    2.1831   -1.2999 H       1  UNL1        0.1032
@<TRIPOS>BOND
     1     1     2    1
     2     2     3   ar
     3     3     4   ar
     4     4     5    1
     5     5     6   ar
     6     6     7   ar
     7     7     8   ar
     8     8     9   ar
     9     9    10    1
    10    10    11   am
    11    11    12    2
    12    11    13    1
    13    13    14   ar
    14    14    15   ar
    15    15    16   ar
    16    16    17    1
    17    16    18   ar
    18    18    19    1
    19    19    20    1
    20    20    21   ar
    21    21    22   ar
    22    22    23   ar
    23    23    24   ar
    24    24    25    1
    25    25    26   ar
    26    26    27   ar
    27    27    28   ar
    28    28    29   ar
    29    29    30   ar
    30    24    31   ar
    31    18    32   ar
    32     9    33   ar
    33     4    34   ar
    34    34    35   ar
    35    35     2   ar
    36    33     5   ar
    37    32    13   ar
    38    31    20   ar
    39    30    25   ar
    40     1    36    1
    41     1    37    1
    42     1    38    1
    43     3    39    1
    44     6    40    1
    45     7    41    1
    46     8    42    1
    47    10    43    1
    48    14    44    1
    49    15    45    1
    50    17    46    1
    51    17    47    1
    52    17    48    1
    53    19    49    1
    54    22    50    1
    55    23    51    1
    56    26    52    1
    57    27    53    1
    58    28    54    1
    59    30    55    1
    60    32    56    1
    61    33    57    1
    62    34    58    1
