@<TRIPOS>MOLECULE
*****
 33 35 0 0 0
SMALL
GASTEIGER

@<TRIPOS>ATOM
      1 C          -3.5931    2.2628    0.8684 C.3     1  UNL1        0.0576
      2 N          -2.9337    1.0730    0.3687 N.am    1  UNL1       -0.1586
      3 C          -3.4930    0.0161   -0.3955 C.2     1  UNL1        0.3784
      4 N          -4.7130   -0.0922   -0.7990 N.2     1  UNL1       -0.1325
      5 N          -2.4573   -0.9193   -0.6437 N.pl3   1  UNL1       -0.1888
      6 C          -2.6051   -2.1398   -1.3878 C.3     1  UNL1        0.0547
      7 C          -1.2233   -0.4940   -0.0535 C.2     1  UNL1        0.1731
      8 C          -0.0533   -1.0910   -0.1096 C.2     1  UNL1       -0.0092
      9 C           1.1412   -0.5699    0.5364 C.ar    1  UNL1        0.0033
     10 C           1.2942   -0.1933    1.8512 C.ar    1  UNL1        0.0100
     11 N           2.5499    0.2662    2.0669 N.ar    1  UNL1       -0.3601
     12 C           3.1969    0.1842    0.9019 C.ar    1  UNL1        0.0470
     13 C           4.4898    0.5178    0.5689 C.ar    1  UNL1       -0.0378
     14 C           4.9263    0.3372   -0.7163 C.ar    1  UNL1       -0.0598
     15 C           4.0599   -0.1847   -1.6880 C.ar    1  UNL1       -0.0611
     16 C           2.7687   -0.5198   -1.3631 C.ar    1  UNL1       -0.0520
     17 C           2.3689   -0.3250   -0.0676 C.ar    1  UNL1        0.0069
     18 C          -1.5419    0.7754    0.5865 C.2     1  UNL1        0.3381
     19 O          -0.7651    1.5033    1.2184 O.2     1  UNL1       -0.2485
     20 H          -4.3063    2.6482    0.1102 H       1  UNL1        0.0602
     21 H          -4.1348    2.0379    1.8072 H       1  UNL1        0.0602
     22 H          -2.8731    3.0804    1.0725 H       1  UNL1        0.0602
     23 H          -5.4457    0.6077   -0.6016 H       1  UNL1        0.3058
     24 H          -3.4168   -2.0676   -2.1236 H       1  UNL1        0.0601
     25 H          -1.6506   -2.4281   -1.8717 H       1  UNL1        0.0601
     26 H          -2.8256   -2.9444   -0.6291 H       1  UNL1        0.0601
     27 H           0.0306   -2.0123   -0.6604 H       1  UNL1        0.0659
     28 H           0.5601   -0.2501    2.6538 H       1  UNL1        0.0813
     29 H           2.9419    0.6225    2.9882 H       1  UNL1        0.1654
     30 H           5.1983    0.9297    1.3018 H       1  UNL1        0.0638
     31 H           5.9320    0.5844   -1.0217 H       1  UNL1        0.0618
     32 H           4.4620   -0.3014   -2.6751 H       1  UNL1        0.0618
     33 H           2.1112   -0.9143   -2.0933 H       1  UNL1        0.0624
@<TRIPOS>BOND
     1     1     2    1
     2     2     3    1
     3     3     4    2
     4     3     5    1
     5     5     6    1
     6     5     7    1
     7     7     8    2
     8     8     9    1
     9     9    10   ar
    10    10    11   ar
    11    11    12   ar
    12    12    13   ar
    13    13    14   ar
    14    14    15   ar
    15    15    16   ar
    16    16    17   ar
    17     7    18    1
    18    18    19    2
    19    18     2   am
    20    17     9   ar
    21    17    12   ar
    22     1    20    1
    23     1    21    1
    24     1    22    1
    25     4    23    1
    26     6    24    1
    27     6    25    1
    28     6    26    1
    29     8    27    1
    30    10    28    1
    31    11    29    1
    32    13    30    1
    33    14    31    1
    34    15    32    1
    35    16    33    1
