@<TRIPOS>MOLECULE
*****
 72 77 0 0 0
SMALL
GASTEIGER

@<TRIPOS>ATOM
      1 C           9.0157   -2.2892    3.3913 C.3     1  UNL1        0.0125
      2 C           8.4078   -1.7776    2.1445 C.2     1  UNL1        0.2141
      3 O           9.1487   -1.0052    1.4523 O.2     1  UNL1       -0.2758
      4 N           7.1102   -2.0768    1.6840 N.am    1  UNL1       -0.2857
      5 C           6.5846   -1.5490    0.4679 C.ar    1  UNL1        0.0341
      6 C           6.7970   -2.2570   -0.6923 C.ar    1  UNL1       -0.0385
      7 C           6.3340   -1.7953   -1.9066 C.ar    1  UNL1       -0.0360
      8 C           5.6325   -0.5900   -2.0030 C.ar    1  UNL1        0.0468
      9 N           5.1070    0.0802   -3.0415 N.ar    1  UNL1       -0.3604
     10 C           4.5527    1.2150   -2.5894 C.ar    1  UNL1        0.0060
     11 C           4.7271    1.2708   -1.2312 C.ar    1  UNL1       -0.0200
     12 C           4.2882    2.3092   -0.2764 C.3     1  UNL1        0.0032
     13 CA          3.0237    3.0026   -0.5664 C.3     1  UNL1        0.1245
     14 N           1.8191    2.2557   -0.6703 N.am    1  UNL1       -0.2981
     15 C           0.6860    2.4795    0.1888 C.2     1  UNL1        0.2448
     16 O           0.8162    3.3643    1.0577 O.2     1  UNL1       -0.2702
     17 C          -0.5616    1.7521    0.0966 C.ar    1  UNL1        0.0388
     18 C          -1.5219    1.9803    1.0759 C.ar    1  UNL1       -0.0476
     19 C          -2.7505    1.3580    1.0622 C.ar    1  UNL1       -0.0353
     20 C          -3.0823    0.4707    0.0622 C.ar    1  UNL1        0.0694
     21 C          -2.1478    0.2305   -0.9152 C.ar    1  UNL1        0.0904
     22 C          -0.9017    0.8670   -0.8936 C.ar    1  UNL1       -0.0221
     23 N          -2.7168   -0.6511   -1.7516 N.ar    1  UNL1       -0.2274
     24 C          -3.9442   -0.9356   -1.3038 C.ar    1  UNL1        0.1451
     25 C          -4.9209   -1.8632   -1.9164 C.ar    1  UNL1        0.0551
     26 C          -5.4529   -2.9471   -1.2740 C.ar    1  UNL1       -0.0132
     27 C          -6.2994   -3.5349   -2.1771 C.ar    1  UNL1        0.0924
     28 O          -6.2969   -2.8728   -3.2896 O.2     1  UNL1       -0.4703
     29 C          -5.4637   -1.8368   -3.1721 C.ar    1  UNL1        0.1023
     30 N          -4.2101   -0.2569   -0.1743 N.ar    1  UNL1       -0.3204
     31 C          -5.4191   -0.2795    0.6348 C.3     1  UNL1        0.0365
     32 C          -6.1625    1.0171    0.6608 C.3     1  UNL1       -0.0320
     33 C          -7.5775    0.6914    1.1548 C.3     1  UNL1       -0.0512
     34 C          -7.4858    0.0390    2.4948 C.3     1  UNL1       -0.0529
     35 C          -6.6099   -1.1816    2.5390 C.3     1  UNL1       -0.0512
     36 C          -5.2113   -0.8889    1.9982 C.3     1  UNL1       -0.0320
     37 C           3.1973    3.8603   -1.7803 C.2     1  UNL1        0.3256
     38 O           4.2220    4.5612   -1.9355 O.2     1  UNL1       -0.2489
     39 OXT         2.1931    3.8620   -2.7305 O.3     1  UNL1       -0.4793
     40 C           5.4174    0.1186   -0.8553 C.ar    1  UNL1        0.0046
     41 C           5.8931   -0.3642    0.3720 C.ar    1  UNL1       -0.0311
     42 H           8.2912   -2.6529    4.1196 H       1  UNL1        0.0323
     43 H           9.6183   -1.4977    3.9050 H       1  UNL1        0.0323
     44 H           9.7503   -3.0860    3.0785 H       1  UNL1        0.0323
     45 H           6.5109   -2.6987    2.2404 H       1  UNL1        0.1548
     46 H           7.3397   -3.2061   -0.6951 H       1  UNL1        0.0637
     47 H           6.5003   -2.3450   -2.8111 H       1  UNL1        0.0639
     48 H           5.1492   -0.2725   -4.0201 H       1  UNL1        0.1653
     49 H           4.0516    1.9522   -3.2366 H       1  UNL1        0.0810
     50 H           5.1116    3.0887   -0.3026 H       1  UNL1        0.0337
     51 H           4.3583    1.9149    0.7692 H       1  UNL1        0.0337
     52 HA          2.9136    3.7980    0.2682 H       1  UNL1        0.0618
     53 H           1.6859    1.5013   -1.3786 H       1  UNL1        0.1498
     54 H          -1.3318    2.6644    1.8925 H       1  UNL1        0.0626
     55 H          -3.4611    1.5598    1.8301 H       1  UNL1        0.0639
     56 H          -0.1863    0.6679   -1.6596 H       1  UNL1        0.0647
     57 H          -5.2526   -3.2804   -0.2566 H       1  UNL1        0.0656
     58 H          -6.8734   -4.4208   -1.9703 H       1  UNL1        0.1029
     59 H          -5.2680   -1.1195   -3.9403 H       1  UNL1        0.1036
     60 H          -6.1179   -1.0045    0.1114 H       1  UNL1        0.0528
     61 H          -5.7848    1.7891    1.3217 H       1  UNL1        0.0285
     62 H          -6.2728    1.3473   -0.3974 H       1  UNL1        0.0285
     63 H          -8.1182    0.0734    0.4264 H       1  UNL1        0.0266
     64 H          -8.0874    1.6700    1.2996 H       1  UNL1        0.0266
     65 H          -8.4896   -0.2919    2.8419 H       1  UNL1        0.0265
     66 H          -7.1218    0.7566    3.2527 H       1  UNL1        0.0265
     67 H          -7.1054   -2.0025    1.9846 H       1  UNL1        0.0266
     68 H          -6.5027   -1.4869    3.5911 H       1  UNL1        0.0266
     69 H          -4.7047   -1.8488    1.8697 H       1  UNL1        0.0285
     70 H          -4.7429   -0.2336    2.7372 H       1  UNL1        0.0285
     71 HXT         2.1856    4.4715   -3.5450 H       1  UNL1        0.2951
     72 H           5.7185    0.2047    1.2820 H       1  UNL1        0.0643
@<TRIPOS>BOND
     1     1     2    1
     2     2     3    2
     3     2     4   am
     4     4     5    1
     5     5     6   ar
     6     6     7   ar
     7     7     8   ar
     8     8     9   ar
     9     9    10   ar
    10    10    11   ar
    11    11    12    1
    12    12    13    1
    13    13    14    1
    14    14    15   am
    15    15    16    2
    16    15    17    1
    17    17    18   ar
    18    18    19   ar
    19    19    20   ar
    20    20    21   ar
    21    21    22   ar
    22    21    23   ar
    23    23    24   ar
    24    24    25    1
    25    25    26   ar
    26    26    27   ar
    27    27    28   ar
    28    28    29   ar
    29    24    30   ar
    30    30    31    1
    31    31    32    1
    32    32    33    1
    33    33    34    1
    34    34    35    1
    35    35    36    1
    36    13    37    1
    37    37    38    2
    38    37    39    1
    39    11    40   ar
    40    40    41   ar
    41    41     5   ar
    42    40     8   ar
    43    22    17   ar
    44    29    25   ar
    45    36    31    1
    46    30    20   ar
    47     1    42    1
    48     1    43    1
    49     1    44    1
    50     4    45    1
    51     6    46    1
    52     7    47    1
    53     9    48    1
    54    10    49    1
    55    12    50    1
    56    12    51    1
    57    13    52    1
    58    14    53    1
    59    18    54    1
    60    19    55    1
    61    22    56    1
    62    26    57    1
    63    27    58    1
    64    29    59    1
    65    31    60    1
    66    32    61    1
    67    32    62    1
    68    33    63    1
    69    33    64    1
    70    34    65    1
    71    34    66    1
    72    35    67    1
    73    35    68    1
    74    36    69    1
    75    36    70    1
    76    39    71    1
    77    41    72    1
