@<TRIPOS>MOLECULE
*****
 68 70 0 0 0
SMALL
GASTEIGER

@<TRIPOS>ATOM
      1 C          -0.6707   -5.4867    2.4037 C.3     1  UNL1       -0.0652
      2 C          -0.3178   -3.9990    2.3307 C.3     1  UNL1       -0.0544
      3 C          -0.8587   -3.4457    1.0246 C.3     1  UNL1       -0.0357
      4 C          -0.5030   -1.9748    0.9670 C.3     1  UNL1        0.0350
      5 N          -1.0039   -1.3746   -0.2894 N.pl3   1  UNL1       -0.2030
      6 C          -2.3070   -0.8534   -0.2474 C.ar    1  UNL1        0.0524
      7 C          -2.6802    0.4194    0.0906 C.ar    1  UNL1       -0.0313
      8 C          -3.9988    0.8654    0.1243 C.ar    1  UNL1       -0.0156
      9 C          -4.3369    2.2361    0.4919 C.ar    1  UNL1       -0.0177
     10 C          -5.4430    2.8754   -0.0395 C.ar    1  UNL1       -0.0527
     11 C          -5.7595    4.1716    0.3102 C.ar    1  UNL1       -0.0428
     12 C          -4.9920    4.8886    1.2020 C.ar    1  UNL1        0.0410
     13 CL         -5.4037    6.5384    1.6404 Cl      1  UNL1       -0.0835
     14 C          -3.8840    4.2647    1.7418 C.ar    1  UNL1       -0.0428
     15 C          -3.5734    2.9602    1.3840 C.ar    1  UNL1       -0.0527
     16 C          -4.9747   -0.0495   -0.2072 C.ar    1  UNL1       -0.0423
     17 C          -4.6756   -1.3488   -0.5579 C.ar    1  UNL1        0.0572
     18 C          -5.7652   -2.2996   -0.9074 C.3     1  UNL1        0.4175
     19 F          -6.8773   -1.5803   -1.2920 F       1  UNL1       -0.1659
     20 F          -6.0281   -3.1438    0.1466 F       1  UNL1       -0.1659
     21 F          -5.3137   -3.0535   -1.9778 F       1  UNL1       -0.1659
     22 C          -3.3538   -1.7324   -0.5736 C.ar    1  UNL1       -0.0274
     23 S           0.0870   -1.4461   -1.5760 S.O2    1  UNL1        0.0750
     24 O           0.4337   -2.9094   -1.8489 O.2     1  UNL1       -0.1498
     25 O          -0.4536   -0.9442   -2.8799 O.2     1  UNL1       -0.1498
     26 C           1.5956   -0.6067   -1.3173 C.ar    1  UNL1        0.1121
     27 C           2.8063   -1.3008   -1.2607 C.ar    1  UNL1       -0.0313
     28 C           4.0217   -0.6821   -1.0413 C.ar    1  UNL1       -0.0178
     29 C           4.0757    0.6778   -0.8667 C.ar    1  UNL1        0.1249
     30 O           5.2351    1.3541   -0.6463 O.3     1  UNL1       -0.4776
     31 C           6.5363    0.9063   -0.5493 C.3     1  UNL1        0.1931
     32 C           7.1249    1.1531    0.8359 C.3     1  UNL1       -0.0172
     33 C           7.4518    1.5090   -1.5528 C.2     1  UNL1        0.3456
     34 O           7.0349    2.3475   -2.3950 O.2     1  UNL1       -0.2468
     35 O           8.7810    1.1610   -1.5822 O.3     1  UNL1       -0.4781
     36 C           2.8989    1.3942   -0.9168 C.ar    1  UNL1       -0.0040
     37 C           2.9298    2.8522   -0.7326 C.3     1  UNL1       -0.0359
     38 C           1.6760    0.7523   -1.1404 C.ar    1  UNL1       -0.0175
     39 C           0.4619    1.5946   -1.1995 C.3     1  UNL1       -0.0375
     40 H          -1.7512   -5.6405    2.2646 H       1  UNL1        0.0230
     41 H          -0.1443   -6.0557    1.6348 H       1  UNL1        0.0230
     42 H          -0.4248   -5.8511    3.4234 H       1  UNL1        0.0230
     43 H           0.7615   -3.8664    2.4265 H       1  UNL1        0.0263
     44 H          -0.8322   -3.5037    3.1634 H       1  UNL1        0.0263
     45 H          -1.9551   -3.6024    1.0589 H       1  UNL1        0.0281
     46 H          -0.3632   -3.9881    0.2154 H       1  UNL1        0.0281
     47 H          -0.9682   -1.4984    1.8398 H       1  UNL1        0.0482
     48 H           0.5873   -1.8624    1.0535 H       1  UNL1        0.0482
     49 H          -1.8996    1.1071    0.3499 H       1  UNL1        0.0643
     50 H          -6.0593    2.3287   -0.7424 H       1  UNL1        0.0624
     51 H          -6.6371    4.6859   -0.1084 H       1  UNL1        0.0632
     52 H          -3.2881    4.8394    2.4424 H       1  UNL1        0.0632
     53 H          -2.7000    2.4830    1.8160 H       1  UNL1        0.0624
     54 H          -6.0056    0.3174   -0.1758 H       1  UNL1        0.0629
     55 H          -3.1348   -2.7689   -0.8550 H       1  UNL1        0.0642
     56 H           2.8003   -2.3667   -1.3933 H       1  UNL1        0.0638
     57 H           4.9295   -1.2823   -1.0088 H       1  UNL1        0.0655
     58 H           6.5730   -0.1892   -0.6896 H       1  UNL1        0.0849
     59 H           7.9985    0.4895    0.9885 H       1  UNL1        0.0271
     60 H           7.4162    2.2050    0.9744 H       1  UNL1        0.0271
     61 H           6.3765    0.8568    1.5996 H       1  UNL1        0.0271
     62 H           9.3507    1.1917   -2.4325 H       1  UNL1        0.2952
     63 H           2.4147    3.1145    0.2282 H       1  UNL1        0.0279
     64 H           2.5103    3.4235   -1.5852 H       1  UNL1        0.0279
     65 H           3.9732    3.2067   -0.6096 H       1  UNL1        0.0279
     66 H          -0.4183    1.0624   -1.5596 H       1  UNL1        0.0278
     67 H           0.6465    2.5400   -1.7718 H       1  UNL1        0.0278
     68 H           0.2676    1.9336   -0.1622 H       1  UNL1        0.0278
@<TRIPOS>BOND
     1     1     2    1
     2     2     3    1
     3     3     4    1
     4     4     5    1
     5     5     6    1
     6     6     7   ar
     7     7     8   ar
     8     8     9    1
     9     9    10   ar
    10    10    11   ar
    11    11    12   ar
    12    12    13    1
    13    12    14   ar
    14    14    15   ar
    15     8    16   ar
    16    16    17   ar
    17    17    18    1
    18    18    19    1
    19    18    20    1
    20    18    21    1
    21    17    22   ar
    22     5    23    1
    23    23    24    2
    24    23    25    2
    25    23    26    1
    26    26    27   ar
    27    27    28   ar
    28    28    29   ar
    29    29    30    1
    30    30    31    1
    31    31    32    1
    32    31    33    1
    33    33    34    2
    34    33    35    1
    35    29    36   ar
    36    36    37    1
    37    36    38   ar
    38    38    39    1
    39    22     6   ar
    40    38    26   ar
    41    15     9   ar
    42     1    40    1
    43     1    41    1
    44     1    42    1
    45     2    43    1
    46     2    44    1
    47     3    45    1
    48     3    46    1
    49     4    47    1
    50     4    48    1
    51     7    49    1
    52    10    50    1
    53    11    51    1
    54    14    52    1
    55    15    53    1
    56    16    54    1
    57    22    55    1
    58    27    56    1
    59    28    57    1
    60    31    58    1
    61    32    59    1
    62    32    60    1
    63    32    61    1
    64    35    62    1
    65    37    63    1
    66    37    64    1
    67    37    65    1
    68    39    66    1
    69    39    67    1
    70    39    68    1
