@<TRIPOS>MOLECULE
*****
 57 61 0 0 0
SMALL
GASTEIGER

@<TRIPOS>ATOM
      1 C          -0.1671   -0.5546   -1.1173 C.3     1  UNL1       -0.0351
      2 C          -0.5893   -1.1182    0.3100 C.3     1  UNL1        0.0935
      3 C           0.7449   -1.4994    0.8997 C.ar    1  UNL1        0.0158
      4 C           1.9226   -0.9778    0.4056 C.ar    1  UNL1       -0.0463
      5 C           3.1583   -1.2676    0.9624 C.ar    1  UNL1       -0.0217
      6 C           4.4147   -0.7171    0.4535 C.2     1  UNL1       -0.0172
      7 C           4.5640    0.5271    0.0384 C.2     1  UNL1        0.1492
      8 F           3.4333    1.3067    0.1137 F       1  UNL1       -0.2032
      9 C           5.8122    1.0845   -0.4721 C.ar    1  UNL1        0.0990
     10 C           6.9823    0.4098   -0.5944 C.ar    1  UNL1       -0.0324
     11 C           8.1262    1.0304   -1.0937 C.ar    1  UNL1       -0.0442
     12 C           8.0765    2.3518   -1.4721 C.ar    1  UNL1        0.0360
     13 BR          9.6328    3.2423   -2.1648 Br      1  UNL1       -0.0487
     14 C           6.8765    3.0141   -1.3380 C.ar    1  UNL1        0.0423
     15 N           5.7896    2.3952   -0.8548 N.ar    1  UNL1       -0.2516
     16 C           3.1509   -2.1172    2.0529 C.ar    1  UNL1       -0.0518
     17 C           1.9785   -2.6420    2.5513 C.ar    1  UNL1       -0.0255
     18 C           0.7533   -2.3470    1.9877 C.ar    1  UNL1        0.1289
     19 F          -0.3875   -2.9288    2.4934 F       1  UNL1       -0.2051
     20 N          -1.3238   -2.2713   -0.0687 N.2     1  UNL1       -0.2521
     21 C          -2.4495   -2.7012    0.3425 C.2     1  UNL1        0.1485
     22 N          -3.0386   -3.9010   -0.1646 N.pl3   1  UNL1       -0.3380
     23 S          -3.2827   -1.7393    1.5931 S.3     1  UNL1       -0.0746
     24 C          -2.5681   -0.0831    1.5417 C.3     1  UNL1        0.1054
     25 C          -3.5949    0.9962    1.4960 C.2     1  UNL1        0.2326
     26 O          -3.3957    1.9931    2.2744 O.2     1  UNL1       -0.2741
     27 N          -4.7391    1.0311    0.6998 N.am    1  UNL1       -0.2960
     28 C          -5.1496    0.0335   -0.2671 C.3     1  UNL1        0.0382
     29 C          -5.3821    0.7792   -1.5871 C.3     1  UNL1        0.0635
     30 O          -4.9986    2.1144   -1.4974 O.3     1  UNL1       -0.3767
     31 C          -5.7812    2.7868   -0.5604 C.3     1  UNL1        0.0635
     32 C          -5.6777    2.1663    0.8095 C.3     1  UNL1        0.0382
     33 C          -1.3546    0.1769    2.3999 C.3     1  UNL1       -0.0220
     34 C          -1.2592    0.0239    0.9321 C.3     1  UNL1        0.0134
     35 H           0.5881   -1.2014   -1.5348 H       1  UNL1        0.0256
     36 H          -1.1040   -0.5395   -1.7311 H       1  UNL1        0.0256
     37 H           0.2101    0.4519   -0.9334 H       1  UNL1        0.0256
     38 H           1.9559   -0.3023   -0.4549 H       1  UNL1        0.0628
     39 H           5.3143   -1.3582    0.4004 H       1  UNL1        0.0653
     40 H           7.0302   -0.6267   -0.3003 H       1  UNL1        0.0640
     41 H           9.0442    0.4915   -1.1867 H       1  UNL1        0.0630
     42 H           6.8021    4.0474   -1.6244 H       1  UNL1        0.0841
     43 H           4.1088   -2.3507    2.4972 H       1  UNL1        0.0624
     44 H           1.9683   -3.3126    3.4116 H       1  UNL1        0.0646
     45 H          -2.9836   -4.1037   -1.1528 H       1  UNL1        0.1442
     46 H          -3.5075   -4.5312    0.5012 H       1  UNL1        0.1442
     47 H          -6.1300   -0.4292    0.0175 H       1  UNL1        0.0487
     48 H          -4.4607   -0.7973   -0.3991 H       1  UNL1        0.0487
     49 H          -6.4581    0.7635   -1.8477 H       1  UNL1        0.0575
     50 H          -4.7835    0.3057   -2.4012 H       1  UNL1        0.0575
     51 H          -6.8412    2.7736   -0.9369 H       1  UNL1        0.0575
     52 H          -5.4704    3.8346   -0.5031 H       1  UNL1        0.0575
     53 H          -5.3157    2.8870    1.5718 H       1  UNL1        0.0487
     54 H          -6.6604    1.7186    1.0511 H       1  UNL1        0.0487
     55 H          -1.1846   -0.5900    3.1455 H       1  UNL1        0.0287
     56 H          -1.3361    1.2069    2.8442 H       1  UNL1        0.0287
     57 H          -1.0634    1.0645    0.4367 H       1  UNL1        0.0346
@<TRIPOS>BOND
     1     2     1    1
     2     2     3    1
     3     3     4   ar
     4     4     5   ar
     5     5     6    1
     6     6     7    2
     7     7     8    1
     8     7     9    1
     9     9    10   ar
    10    10    11   ar
    11    11    12   ar
    12    12    13    1
    13    12    14   ar
    14    14    15   ar
    15     5    16   ar
    16    16    17   ar
    17    17    18   ar
    18    18    19    1
    19     2    20    1
    20    20    21    2
    21    21    22    1
    22    21    23    1
    23    23    24    1
    24    24    25    1
    25    25    26    2
    26    25    27   am
    27    27    28    1
    28    28    29    1
    29    29    30    1
    30    30    31    1
    31    31    32    1
    32    24    33    1
    33    33    34    1
    34    34     2    1
    35    18     3   ar
    36    34    24    1
    37    15     9   ar
    38    32    27    1
    39     1    35    1
    40     1    36    1
    41     1    37    1
    42     4    38    1
    43     6    39    1
    44    10    40    1
    45    11    41    1
    46    14    42    1
    47    16    43    1
    48    17    44    1
    49    22    45    1
    50    22    46    1
    51    28    47    1
    52    28    48    1
    53    29    49    1
    54    29    50    1
    55    31    51    1
    56    31    52    1
    57    32    53    1
    58    32    54    1
    59    33    55    1
    60    33    56    1
    61    34    57    1
