
     RDKit          3D

 57 61  0  0  0  0  0  0  0  0999 V2000
   -0.1671   -0.5546   -1.1173 C   0  0  0  0  0  0  0  0  0  0  0  0
   -0.5893   -1.1182    0.3100 C   0  0  2  0  0  0  0  0  0  0  0  0
    0.7449   -1.4994    0.8997 C   0  0  0  0  0  0  0  0  0  0  0  0
    1.9226   -0.9778    0.4056 C   0  0  0  0  0  0  0  0  0  0  0  0
    3.1583   -1.2676    0.9624 C   0  0  0  0  0  0  0  0  0  0  0  0
    4.4147   -0.7171    0.4535 C   0  0  0  0  0  0  0  0  0  0  0  0
    4.5640    0.5271    0.0384 C   0  0  0  0  0  0  0  0  0  0  0  0
    3.4333    1.3067    0.1137 F   0  0  0  0  0  0  0  0  0  0  0  0
    5.8122    1.0845   -0.4721 C   0  0  0  0  0  0  0  0  0  0  0  0
    6.9823    0.4098   -0.5944 C   0  0  0  0  0  0  0  0  0  0  0  0
    8.1262    1.0304   -1.0937 C   0  0  0  0  0  0  0  0  0  0  0  0
    8.0765    2.3518   -1.4721 C   0  0  0  0  0  0  0  0  0  0  0  0
    9.6328    3.2423   -2.1648 Br  0  0  0  0  0  0  0  0  0  0  0  0
    6.8765    3.0141   -1.3380 C   0  0  0  0  0  0  0  0  0  0  0  0
    5.7896    2.3952   -0.8548 N   0  0  0  0  0  0  0  0  0  0  0  0
    3.1509   -2.1172    2.0529 C   0  0  0  0  0  0  0  0  0  0  0  0
    1.9785   -2.6420    2.5513 C   0  0  0  0  0  0  0  0  0  0  0  0
    0.7533   -2.3470    1.9877 C   0  0  0  0  0  0  0  0  0  0  0  0
   -0.3875   -2.9288    2.4934 F   0  0  0  0  0  0  0  0  0  0  0  0
   -1.3238   -2.2713   -0.0687 N   0  0  0  0  0  0  0  0  0  0  0  0
   -2.4495   -2.7012    0.3425 C   0  0  0  0  0  0  0  0  0  0  0  0
   -3.0386   -3.9010   -0.1646 N   0  0  0  0  0  0  0  0  0  0  0  0
   -3.2827   -1.7393    1.5931 S   0  0  0  0  0  0  0  0  0  0  0  0
   -2.5681   -0.0831    1.5417 C   0  0  1  0  0  0  0  0  0  0  0  0
   -3.5949    0.9962    1.4960 C   0  0  0  0  0  0  0  0  0  0  0  0
   -3.3957    1.9931    2.2744 O   0  0  0  0  0  0  0  0  0  0  0  0
   -4.7391    1.0311    0.6998 N   0  0  0  0  0  0  0  0  0  0  0  0
   -5.1496    0.0335   -0.2671 C   0  0  0  0  0  0  0  0  0  0  0  0
   -5.3821    0.7792   -1.5871 C   0  0  0  0  0  0  0  0  0  0  0  0
   -4.9986    2.1144   -1.4974 O   0  0  0  0  0  0  0  0  0  0  0  0
   -5.7812    2.7868   -0.5604 C   0  0  0  0  0  0  0  0  0  0  0  0
   -5.6777    2.1663    0.8095 C   0  0  0  0  0  0  0  0  0  0  0  0
   -1.3546    0.1769    2.3999 C   0  0  0  0  0  0  0  0  0  0  0  0
   -1.2592    0.0239    0.9321 C   0  0  1  0  0  0  0  0  0  0  0  0
    0.5881   -1.2014   -1.5348 H   0  0  0  0  0  0  0  0  0  0  0  0
   -1.1040   -0.5395   -1.7311 H   0  0  0  0  0  0  0  0  0  0  0  0
    0.2101    0.4519   -0.9334 H   0  0  0  0  0  0  0  0  0  0  0  0
    1.9559   -0.3023   -0.4549 H   0  0  0  0  0  0  0  0  0  0  0  0
    5.3143   -1.3582    0.4004 H   0  0  0  0  0  0  0  0  0  0  0  0
    7.0302   -0.6267   -0.3003 H   0  0  0  0  0  0  0  0  0  0  0  0
    9.0442    0.4915   -1.1867 H   0  0  0  0  0  0  0  0  0  0  0  0
    6.8021    4.0474   -1.6244 H   0  0  0  0  0  0  0  0  0  0  0  0
    4.1088   -2.3507    2.4972 H   0  0  0  0  0  0  0  0  0  0  0  0
    1.9683   -3.3126    3.4116 H   0  0  0  0  0  0  0  0  0  0  0  0
   -2.9836   -4.1037   -1.1528 H   0  0  0  0  0  0  0  0  0  0  0  0
   -3.5075   -4.5312    0.5012 H   0  0  0  0  0  0  0  0  0  0  0  0
   -6.1300   -0.4292    0.0175 H   0  0  0  0  0  0  0  0  0  0  0  0
   -4.4607   -0.7973   -0.3991 H   0  0  0  0  0  0  0  0  0  0  0  0
   -6.4581    0.7635   -1.8477 H   0  0  0  0  0  0  0  0  0  0  0  0
   -4.7835    0.3057   -2.4012 H   0  0  0  0  0  0  0  0  0  0  0  0
   -6.8412    2.7736   -0.9369 H   0  0  0  0  0  0  0  0  0  0  0  0
   -5.4704    3.8346   -0.5031 H   0  0  0  0  0  0  0  0  0  0  0  0
   -5.3157    2.8870    1.5718 H   0  0  0  0  0  0  0  0  0  0  0  0
   -6.6604    1.7186    1.0511 H   0  0  0  0  0  0  0  0  0  0  0  0
   -1.1846   -0.5900    3.1455 H   0  0  0  0  0  0  0  0  0  0  0  0
   -1.3361    1.2069    2.8442 H   0  0  0  0  0  0  0  0  0  0  0  0
   -1.0634    1.0645    0.4367 H   0  0  0  0  0  0  0  0  0  0  0  0
  2  1  1  6
  2  3  1  0
  3  4  2  0
  4  5  1  0
  5  6  1  0
  6  7  2  0
  7  8  1  0
  7  9  1  0
  9 10  2  0
 10 11  1  0
 11 12  2  0
 12 13  1  0
 12 14  1  0
 14 15  2  0
  5 16  2  0
 16 17  1  0
 17 18  2  0
 18 19  1  0
  2 20  1  0
 20 21  2  0
 21 22  1  0
 21 23  1  0
 23 24  1  0
 24 25  1  6
 25 26  2  0
 25 27  1  0
 27 28  1  0
 28 29  1  0
 29 30  1  0
 30 31  1  0
 31 32  1  0
 24 33  1  0
 33 34  1  0
 34  2  1  0
 18  3  1  0
 34 24  1  0
 15  9  1  0
 32 27  1  0
  1 35  1  0
  1 36  1  0
  1 37  1  0
  4 38  1  0
  6 39  1  0
 10 40  1  0
 11 41  1  0
 14 42  1  0
 16 43  1  0
 17 44  1  0
 22 45  1  0
 22 46  1  0
 28 47  1  0
 28 48  1  0
 29 49  1  0
 29 50  1  0
 31 51  1  0
 31 52  1  0
 32 53  1  0
 32 54  1  0
 33 55  1  0
 33 56  1  0
 34 57  1  6
M  END
$$$$
