@<TRIPOS>MOLECULE
*****
 57 62 0 0 0
SMALL
GASTEIGER

@<TRIPOS>ATOM
      1 O           8.3295    1.8162    1.4536 O.3     1  UNL1       -0.3888
      2 C           8.8667    1.1028    0.3584 C.3     1  UNL1        0.0900
      3 C           8.6486   -0.3492    0.5565 C.ar    1  UNL1        0.1157
      4 N           9.5875   -1.2506    0.9382 N.ar    1  UNL1       -0.1569
      5 N           8.9797   -2.4094    1.0001 N.ar    1  UNL1       -0.1958
      6 N           7.7113   -2.3410    0.6882 N.ar    1  UNL1       -0.1545
      7 C           7.4679   -1.0350    0.3988 C.ar    1  UNL1        0.1179
      8 C           6.1407   -0.5803    0.0154 C.ar    1  UNL1        0.0060
      9 C           5.7629    0.2304   -1.0314 C.ar    1  UNL1       -0.0270
     10 C           4.4515    0.5726   -1.2437 C.ar    1  UNL1        0.0670
     11 C           3.4326    0.1434   -0.4470 C.ar    1  UNL1        0.0288
     12 C           3.7965   -0.6677    0.6023 C.ar    1  UNL1       -0.0498
     13 C           5.0902   -1.0206    0.8331 C.ar    1  UNL1       -0.0517
     14 C           2.2192    0.6190   -0.8633 C.ar    1  UNL1        0.1163
     15 N           2.5571    1.3563   -1.9505 N.ar    1  UNL1       -0.1713
     16 N           3.8542    1.3280   -2.1695 N.ar    1  UNL1       -0.2763
     17 C           0.8765    0.4476   -0.3591 C.ar    1  UNL1        0.0683
     18 C          -0.2180    1.0421   -0.9640 C.ar    1  UNL1       -0.0271
     19 C          -1.3936    0.7450   -0.3192 C.ar    1  UNL1        0.0006
     20 C          -1.0235   -0.0664    0.7298 C.ar    1  UNL1        0.0470
     21 N           0.2949   -0.1985    0.6504 N.ar    1  UNL1       -0.3529
     22 C          -2.0021   -0.5365    1.5750 C.ar    1  UNL1       -0.0375
     23 C          -3.3180   -0.2096    1.3844 C.ar    1  UNL1       -0.0554
     24 C          -3.7234    0.6066    0.3357 C.ar    1  UNL1       -0.0327
     25 C          -5.1236    1.0211    0.0378 C.3     1  UNL1        0.0241
     26 N          -5.7689    0.1080   -0.8416 N.3     1  UNL1       -0.2982
     27 C          -5.9035   -1.2331   -0.3921 C.3     1  UNL1       -0.0008
     28 C          -6.8658   -1.3680    0.7391 C.3     1  UNL1       -0.0402
     29 C          -8.0321   -0.4403    0.6562 C.3     1  UNL1       -0.0507
     30 C          -8.2389    0.1762   -0.6848 C.3     1  UNL1       -0.0402
     31 C          -6.9914    0.6045   -1.3720 C.3     1  UNL1       -0.0008
     32 C          -2.7226    1.0624   -0.4941 C.ar    1  UNL1       -0.0482
     33 H           8.5238    2.7687    1.2388 H       1  UNL1        0.2099
     34 H           9.9705    1.3291    0.3556 H       1  UNL1        0.0624
     35 H           8.4034    1.4832   -0.5445 H       1  UNL1        0.0624
     36 H           9.4572   -3.2904    1.2693 H       1  UNL1        0.2125
     37 H           6.5510    0.5655   -1.6635 H       1  UNL1        0.0645
     38 H           3.0411   -1.0393    1.2660 H       1  UNL1        0.0625
     39 H           5.3063   -1.6740    1.6939 H       1  UNL1        0.0624
     40 H           4.2903    1.8371   -2.9607 H       1  UNL1        0.1889
     41 H          -0.2511    1.6878   -1.8507 H       1  UNL1        0.0645
     42 H           0.8007   -0.7735    1.3454 H       1  UNL1        0.1660
     43 H          -1.6985   -1.1721    2.3942 H       1  UNL1        0.0638
     44 H          -4.0936   -0.5668    2.0340 H       1  UNL1        0.0621
     45 H          -5.6215    1.1312    1.0222 H       1  UNL1        0.0476
     46 H          -5.0764    2.0281   -0.4153 H       1  UNL1        0.0476
     47 H          -4.8936   -1.5907   -0.1015 H       1  UNL1        0.0427
     48 H          -6.2696   -1.8462   -1.2376 H       1  UNL1        0.0427
     49 H          -6.3652   -1.2630    1.7415 H       1  UNL1        0.0278
     50 H          -7.2014   -2.4473    0.7446 H       1  UNL1        0.0278
     51 H          -8.9610   -1.0493    0.8631 H       1  UNL1        0.0266
     52 H          -7.9736    0.2975    1.4894 H       1  UNL1        0.0266
     53 H          -8.8587    1.1059   -0.5154 H       1  UNL1        0.0278
     54 H          -8.8872   -0.4582   -1.3293 H       1  UNL1        0.0278
     55 H          -7.0467    0.2314   -2.4359 H       1  UNL1        0.0427
     56 H          -6.9098    1.7213   -1.4675 H       1  UNL1        0.0427
     57 H          -2.9785    1.7077   -1.3362 H       1  UNL1        0.0627
@<TRIPOS>BOND
     1     1     2    1
     2     2     3    1
     3     3     4   ar
     4     4     5   ar
     5     5     6   ar
     6     6     7   ar
     7     7     8    1
     8     8     9   ar
     9     9    10   ar
    10    10    11   ar
    11    11    12   ar
    12    12    13   ar
    13    11    14   ar
    14    14    15   ar
    15    15    16   ar
    16    14    17    1
    17    17    18   ar
    18    18    19   ar
    19    19    20   ar
    20    20    21   ar
    21    20    22   ar
    22    22    23   ar
    23    23    24   ar
    24    24    25    1
    25    25    26    1
    26    26    27    1
    27    27    28    1
    28    28    29    1
    29    29    30    1
    30    30    31    1
    31    24    32   ar
    32     7     3   ar
    33    13     8   ar
    34    21    17   ar
    35    31    26    1
    36    16    10   ar
    37    32    19   ar
    38     1    33    1
    39     2    34    1
    40     2    35    1
    41     5    36    1
    42     9    37    1
    43    12    38    1
    44    13    39    1
    45    16    40    1
    46    18    41    1
    47    21    42    1
    48    22    43    1
    49    23    44    1
    50    25    45    1
    51    25    46    1
    52    27    47    1
    53    27    48    1
    54    28    49    1
    55    28    50    1
    56    29    51    1
    57    29    52    1
    58    30    53    1
    59    30    54    1
    60    31    55    1
    61    31    56    1
    62    32    57    1
