@<TRIPOS>MOLECULE
*****
 220 227 0 0 0
SMALL
GASTEIGER

@<TRIPOS>ATOM
      1 C          -0.4753   -6.4014    2.3593 C.3     1  UNL1       -0.0626
      2 C           0.8787   -6.5860    1.7278 C.3     1  UNL1       -0.0446
      3 C           1.6567   -7.6328    2.4865 C.3     1  UNL1       -0.0626
      4 C           1.6164   -5.3356    1.4755 C.3     1  UNL1       -0.0236
      5 C           1.9418   -4.4661    2.6634 C.3     1  UNL1        0.0996
      6 N           0.7755   -3.9907    3.3706 N.am    1  UNL1       -0.3025
      7 C           0.2502   -4.2061    4.6641 C.2     1  UNL1        0.2343
      8 O           0.7813   -4.9569    5.5430 O.2     1  UNL1       -0.2738
      9 C          -1.0347   -3.5428    5.1297 C.3     1  UNL1        0.1034
     10 C          -0.6966   -2.8346    6.4095 C.3     1  UNL1       -0.0007
     11 C          -1.8527   -2.1636    7.0546 C.ar    1  UNL1       -0.0450
     12 C          -2.4455   -3.0809    7.9371 C.ar    1  UNL1       -0.0567
     13 C          -3.5681   -2.7169    8.6874 C.ar    1  UNL1       -0.0402
     14 C          -3.9971   -1.4297    8.4698 C.ar    1  UNL1        0.0348
     15 N          -5.1213   -1.0331    9.2177 N.am    1  UNL1       -0.2696
     16 C          -6.2163   -1.5129    8.3913 C.2     1  UNL1        0.3013
     17 N          -7.6603   -1.5201    8.4259 N.am    1  UNL1       -0.3131
     18 O          -6.0795   -2.1352    7.2709 O.2     1  UNL1       -0.2527
     19 C          -3.4567   -0.4897    7.6207 C.ar    1  UNL1       -0.0402
     20 C          -2.3478   -0.8957    6.9001 C.ar    1  UNL1       -0.0567
     21 N          -1.4334   -2.5922    4.1075 N.am    1  UNL1       -0.3022
     22 C          -2.4342   -2.2052    3.1550 C.2     1  UNL1        0.2343
     23 O          -3.3645   -3.0398    3.2447 O.2     1  UNL1       -0.2738
     24 C          -2.0813   -0.9842    2.3719 C.3     1  UNL1        0.1034
     25 C          -2.4939    0.3109    2.9837 C.3     1  UNL1       -0.0007
     26 C          -3.9670    0.4532    3.1099 C.ar    1  UNL1       -0.0450
     27 C          -4.5485    1.0630    1.9728 C.ar    1  UNL1       -0.0568
     28 C          -5.8959    1.3185    1.8020 C.ar    1  UNL1       -0.0402
     29 C          -6.7216    0.9434    2.8285 C.ar    1  UNL1        0.0335
     30 N          -8.0964    1.2392    2.6024 N.am    1  UNL1       -0.2840
     31 C          -8.6801    0.1757    1.9059 C.2     1  UNL1        0.2381
     32 O          -7.9280   -0.8188    1.6104 O.2     1  UNL1       -0.2734
     33 C         -10.0737   -0.0282    1.4192 C.3     1  UNL1        0.1093
     34 C         -10.0097   -0.1967   -0.0759 C.3     1  UNL1        0.0513
     35 C         -11.1422    0.3618   -0.8106 C.2     1  UNL1        0.2226
     36 O         -11.6761   -0.2650   -1.7857 O.2     1  UNL1       -0.2753
     37 N         -11.6956    1.6324   -0.4667 N.am    1  UNL1       -0.2401
     38 C         -11.6023    2.0039    0.9131 C.2     1  UNL1        0.3065
     39 O         -12.0545    3.0962    1.3315 O.2     1  UNL1       -0.2524
     40 N         -10.9606    1.0387    1.7594 N.am    1  UNL1       -0.2873
     41 C          -6.2048    0.3488    3.9493 C.ar    1  UNL1       -0.0402
     42 C          -4.8572    0.1069    4.0928 C.ar    1  UNL1       -0.0568
     43 N          -2.9220   -1.0312    1.1301 N.am    1  UNL1       -0.3021
     44 C          -2.1581   -1.0450   -0.0288 C.2     1  UNL1        0.2362
     45 O          -0.8745   -0.9974   -0.0308 O.2     1  UNL1       -0.2737
     46 CA         -2.5422   -1.1194   -1.4464 C.3     1  UNL1        0.1226
     47 C          -3.2414   -2.5101   -1.6460 C.3     1  UNL1        0.0711
     48 O          -3.6255   -2.5869   -2.9488 O.3     1  UNL1       -0.3927
     49 N          -1.3709   -1.0644   -2.2852 N.am    1  UNL1       -0.3006
     50 C          -0.6375   -1.5277   -3.4117 C.2     1  UNL1        0.2343
     51 O          -1.3141   -2.4402   -3.9484 O.2     1  UNL1       -0.2738
     52 CA          0.6843   -0.8749   -3.6749 C.3     1  UNL1        0.1034
     53 C           1.1049   -0.9628   -5.0704 C.3     1  UNL1        0.0008
     54 C           1.2587   -2.3365   -5.5918 C.ar    1  UNL1       -0.0270
     55 C           2.3267   -3.1908   -5.4666 C.ar    1  UNL1       -0.0556
     56 C           2.3630   -4.4393   -6.0182 C.ar    1  UNL1       -0.0433
     57 C           1.3281   -4.9558   -6.7529 C.ar    1  UNL1        0.0276
     58 N           0.2430   -4.1622   -6.9152 N.ar    1  UNL1       -0.2630
     59 C           0.2511   -2.9529   -6.3603 C.ar    1  UNL1        0.0308
     60 N           0.7795    0.3997   -3.0437 N.am    1  UNL1       -0.3022
     61 C           1.2567    1.1129   -1.9356 C.2     1  UNL1        0.2343
     62 O           1.8719    0.4690   -1.0554 O.2     1  UNL1       -0.2738
     63 CA          1.0606    2.5486   -1.7709 C.3     1  UNL1        0.1034
     64 C           2.2388    3.3143   -1.2616 C.3     1  UNL1       -0.0007
     65 C           3.4548    3.2984   -2.0714 C.ar    1  UNL1       -0.0451
     66 C           4.5543    2.4844   -2.0855 C.ar    1  UNL1       -0.0571
     67 C           5.6166    2.6840   -2.9357 C.ar    1  UNL1       -0.0431
     68 C           5.6546    3.7371   -3.8570 C.ar    1  UNL1        0.0410
     69 CL          6.9562    4.0494   -4.9624 Cl      1  UNL1       -0.0835
     70 C           4.5415    4.5804   -3.8596 C.ar    1  UNL1       -0.0431
     71 C           3.4764    4.3493   -2.9785 C.ar    1  UNL1       -0.0571
     72 N           0.5234    3.1517   -2.9852 N.am    1  UNL1       -0.3022
     73 C          -0.3853    4.2296   -2.9115 C.2     1  UNL1        0.2343
     74 O          -0.7791    4.7224   -1.7918 O.2     1  UNL1       -0.2738
     75 CA         -1.2176    5.2095   -3.5818 C.3     1  UNL1        0.1033
     76 C          -2.3372    4.6585   -4.3512 C.3     1  UNL1       -0.0006
     77 C          -1.9514    3.7492   -5.4266 C.ar    1  UNL1       -0.0445
     78 C          -1.9737    2.3732   -5.2728 C.ar    1  UNL1       -0.0579
     79 C          -1.6356    1.5613   -6.3170 C.ar    1  UNL1       -0.0538
     80 C          -1.2481    2.0150   -7.5872 C.ar    1  UNL1       -0.0179
     81 C          -0.9338    1.0945   -8.5562 C.ar    1  UNL1       -0.0540
     82 C          -0.5609    1.5845   -9.7896 C.ar    1  UNL1       -0.0612
     83 C          -0.5200    2.9614   -9.9935 C.ar    1  UNL1       -0.0612
     84 C          -0.8491    3.8493   -8.9760 C.ar    1  UNL1       -0.0540
     85 C          -1.2332    3.3832   -7.7078 C.ar    1  UNL1       -0.0176
     86 C          -1.5701    4.2234   -6.6735 C.ar    1  UNL1       -0.0508
     87 N          -1.7084    6.1239   -2.5241 N.am    1  UNL1       -0.3039
     88 C          -1.3802    7.4913   -2.4926 C.2     1  UNL1        0.2105
     89 C          -1.8759    8.4201   -1.4163 C.3     1  UNL1        0.0122
     90 O          -0.6359    8.0335   -3.3770 O.2     1  UNL1       -0.2761
     91 C           2.6592   -3.2854    2.1328 C.2     1  UNL1        0.2340
     92 O           2.1134   -2.1769    2.3711 O.2     1  UNL1       -0.2738
     93 N           3.8878   -3.5278    1.4093 N.am    1  UNL1       -0.3025
     94 C           4.8131   -2.5569    0.7706 C.3     1  UNL1        0.0996
     95 C           4.7006   -2.5611   -0.6789 C.3     1  UNL1       -0.0259
     96 C           5.5634   -1.6836   -1.5173 C.3     1  UNL1       -0.0498
     97 C           5.1908   -1.9480   -2.9795 C.3     1  UNL1       -0.0404
     98 C           5.9975   -1.1374   -3.9459 C.3     1  UNL1       -0.0039
     99 N           5.5703   -1.4590   -5.3063 N.3     1  UNL1       -0.3138
    100 C           6.3660   -0.7009   -6.2779 C.3     1  UNL1        0.0020
    101 C           6.1951    0.7931   -5.9949 C.3     1  UNL1       -0.0499
    102 C           5.7785   -0.9396   -7.6497 C.3     1  UNL1       -0.0499
    103 C           4.7163   -1.2528    1.4780 C.2     1  UNL1        0.2365
    104 O           4.6794   -0.3138    0.6443 O.2     1  UNL1       -0.2735
    105 N           4.6739   -1.0875    2.8842 N.am    1  UNL1       -0.2884
    106 C           4.9259   -2.2386    3.7812 C.3     1  UNL1        0.0156
    107 C           6.0921   -1.7167    4.6389 C.3     1  UNL1       -0.0350
    108 C           5.7628   -0.2356    4.7363 C.3     1  UNL1       -0.0243
    109 C           4.4407   -0.1547    3.9307 C.3     1  UNL1        0.1023
    110 C           4.0799    1.2086    3.6318 C.2     1  UNL1        0.2342
    111 O           4.0425    1.7280    4.8198 O.2     1  UNL1       -0.2738
    112 N           3.7555    2.2381    2.7473 N.am    1  UNL1       -0.3027
    113 C           3.4424    3.5903    3.0744 C.3     1  UNL1        0.0964
    114 C           1.9984    3.8722    2.6956 C.3     1  UNL1       -0.0381
    115 C           4.3352    4.5616    2.4134 C.2     1  UNL1        0.2306
    116 N           4.7219    5.8962    2.1639 N.am    1  UNL1       -0.3278
    117 O           4.8108    3.4544    1.9954 O.2     1  UNL1       -0.2740
    118 H          -0.8865   -5.3959    2.2798 H       1  UNL1        0.0232
    119 H          -1.1726   -7.1551    1.8942 H       1  UNL1        0.0232
    120 H          -0.4135   -6.7153    3.4348 H       1  UNL1        0.0232
    121 H           0.6953   -7.0545    0.7103 H       1  UNL1        0.0296
    122 H           0.9760   -8.4201    2.8684 H       1  UNL1        0.0232
    123 H           2.3981   -8.1652    1.8270 H       1  UNL1        0.0232
    124 H           2.2253   -7.2476    3.3382 H       1  UNL1        0.0232
    125 H           2.5293   -5.4841    0.8803 H       1  UNL1        0.0290
    126 H           0.9639   -4.6893    0.8100 H       1  UNL1        0.0290
    127 H           2.6481   -4.9916    3.3521 H       1  UNL1        0.0594
    128 H           0.1940   -3.3423    2.7959 H       1  UNL1        0.1495
    129 H          -1.8018   -4.3347    5.2702 H       1  UNL1        0.0598
    130 H          -0.1417   -3.4812    7.1142 H       1  UNL1        0.0336
    131 H           0.0234   -1.9939    6.1708 H       1  UNL1        0.0336
    132 H          -2.1267   -4.1202    8.1331 H       1  UNL1        0.0621
    133 H          -4.0593   -3.3839    9.3847 H       1  UNL1        0.0636
    134 H          -5.7388   -0.6097    9.9736 H       1  UNL1        0.1564
    135 H          -7.9846   -2.2794    9.0537 H       1  UNL1        0.1465
    136 H          -8.2613   -0.8566    7.8922 H       1  UNL1        0.1465
    137 H          -3.7963    0.5046    7.4612 H       1  UNL1        0.0636
    138 H          -1.7718   -0.3326    6.1868 H       1  UNL1        0.0621
    139 H          -0.5609   -1.9571    4.1423 H       1  UNL1        0.1495
    140 H          -1.0256   -0.9924    2.1579 H       1  UNL1        0.0598
    141 H          -1.9855    0.5181    3.9570 H       1  UNL1        0.0336
    142 H          -2.1141    1.1084    2.3196 H       1  UNL1        0.0336
    143 H          -3.9279    1.3760    1.1220 H       1  UNL1        0.0621
    144 H          -6.2497    1.7908    0.8942 H       1  UNL1        0.0636
    145 H          -8.7458    2.0067    2.8061 H       1  UNL1        0.1549
    146 H         -10.4018   -0.9860    1.9055 H       1  UNL1        0.0600
    147 H          -9.0579    0.2698   -0.4281 H       1  UNL1        0.0381
    148 H          -9.8964   -1.2929   -0.3230 H       1  UNL1        0.0381
    149 H         -12.1472    2.2592   -1.1737 H       1  UNL1        0.1591
    150 H         -11.1563    1.1016    2.7920 H       1  UNL1        0.1510
    151 H          -6.8686    0.0621    4.7432 H       1  UNL1        0.0636
    152 H          -4.3784   -0.3486    4.9179 H       1  UNL1        0.0621
    153 H          -3.9043   -1.0585    0.8174 H       1  UNL1        0.1495
    154 HA         -3.3339   -0.4562   -1.8156 H       1  UNL1        0.0618
    155 H1         -4.1436   -2.4073   -1.0133 H       1  UNL1        0.0580
    156 H2         -2.6346   -3.3167   -1.2428 H       1  UNL1        0.0580
    157 H          -4.5404   -2.2372   -3.1026 H       1  UNL1        0.2095
    158 H          -0.8639   -0.2647   -1.7759 H       1  UNL1        0.1496
    159 HA          1.4520   -1.5169   -3.0770 H       1  UNL1        0.0598
    160 H           0.3841   -0.4123   -5.7056 H       1  UNL1        0.0336
    161 H           2.0781   -0.4419   -5.2384 H       1  UNL1        0.0336
    162 H           3.1506   -2.8123   -4.8880 H       1  UNL1        0.0621
    163 H           3.2603   -5.0572   -5.8676 H       1  UNL1        0.0633
    164 H           1.4400   -5.9469   -7.1493 H       1  UNL1        0.0829
    165 H          -0.6856   -2.4193   -6.5879 H       1  UNL1        0.0832
    166 H           0.2628    0.9832   -3.7438 H       1  UNL1        0.1495
    167 HA          0.2676    2.7065   -0.9622 H       1  UNL1        0.0598
    168 H           1.8914    4.3716   -1.0444 H       1  UNL1        0.0336
    169 H           2.4687    2.9452   -0.2081 H       1  UNL1        0.0336
    170 H           4.4866    1.6905   -1.3636 H       1  UNL1        0.0621
    171 H           6.4668    2.0324   -2.9190 H       1  UNL1        0.0632
    172 H           4.5577    5.4035   -4.5706 H       1  UNL1        0.0632
    173 H           2.6870    5.0986   -3.1193 H       1  UNL1        0.0621
    174 H           0.5780    3.0583   -4.0350 H       1  UNL1        0.1495
    175 HA         -0.5757    5.8104   -4.2862 H       1  UNL1        0.0598
    176 H          -2.8812    5.5162   -4.8430 H       1  UNL1        0.0336
    177 H          -3.0627    4.0888   -3.7089 H       1  UNL1        0.0336
    178 H          -2.2724    2.0062   -4.2964 H       1  UNL1        0.0620
    179 H          -1.7108    0.5162   -6.0794 H       1  UNL1        0.0624
    180 H          -0.9960    0.0318   -8.3030 H       1  UNL1        0.0624
    181 H          -0.3058    0.8752  -10.5835 H       1  UNL1        0.0618
    182 H          -0.2239    3.3490  -10.9768 H       1  UNL1        0.0618
    183 H          -0.8095    4.9043   -9.1501 H       1  UNL1        0.0624
    184 H          -1.5123    5.2903   -6.9202 H       1  UNL1        0.0626
    185 H          -2.3278    5.8249   -1.7423 H       1  UNL1        0.1495
    186 H          -1.0592    9.1300   -1.1943 H       1  UNL1        0.0322
    187 H          -2.0940    7.8150   -0.5128 H       1  UNL1        0.0322
    188 H          -2.7984    8.9515   -1.7498 H       1  UNL1        0.0322
    189 H           4.2071   -4.5377    1.3098 H       1  UNL1        0.1495
    190 H           5.8262   -2.9319    1.1058 H       1  UNL1        0.0594
    191 H           3.6140   -2.4484   -1.0073 H       1  UNL1        0.0288
    192 H           4.9202   -3.6225   -1.0391 H       1  UNL1        0.0288
    193 H           6.6287   -1.9947   -1.3798 H       1  UNL1        0.0266
    194 H           5.5000   -0.6150   -1.3711 H       1  UNL1        0.0266
    195 H           4.1120   -1.6993   -3.0540 H       1  UNL1        0.0277
    196 H           5.3713   -3.0225   -3.1900 H       1  UNL1        0.0277
    197 H           5.7940   -0.0430   -3.8233 H       1  UNL1        0.0424
    198 H           7.0833   -1.2848   -3.8180 H       1  UNL1        0.0424
    199 H           4.5985   -1.0200   -5.4163 H       1  UNL1        0.1222
    200 H           7.4250   -1.0091   -6.3008 H       1  UNL1        0.0455
    201 H           6.3965    1.4136   -6.8822 H       1  UNL1        0.0245
    202 H           6.8393    1.0739   -5.1542 H       1  UNL1        0.0245
    203 H           5.1088    0.9551   -5.7527 H       1  UNL1        0.0245
    204 H           4.7850   -0.4299   -7.7692 H       1  UNL1        0.0245
    205 H           6.4267   -0.4588   -8.4142 H       1  UNL1        0.0245
    206 H           5.6127   -1.9940   -7.8914 H       1  UNL1        0.0245
    207 H           5.2458   -3.1285    3.2369 H       1  UNL1        0.0465
    208 H           4.0807   -2.3989    4.4656 H       1  UNL1        0.0465
    209 H           7.0557   -1.9317    4.1838 H       1  UNL1        0.0281
    210 H           6.0316   -2.1377    5.6618 H       1  UNL1        0.0281
    211 H           6.5612    0.3234    4.2266 H       1  UNL1        0.0288
    212 H           5.5715    0.1100    5.7627 H       1  UNL1        0.0288
    213 H           3.6707   -0.6525    4.6108 H       1  UNL1        0.0597
    214 H           3.7805    1.8130    1.7989 H       1  UNL1        0.1495
    215 H           3.5090    3.7558    4.1699 H       1  UNL1        0.0592
    216 H           1.9531    4.7183    1.9818 H       1  UNL1        0.0252
    217 H           1.5448    3.0059    2.1684 H       1  UNL1        0.0252
    218 H           1.3764    4.1153    3.5754 H       1  UNL1        0.0252
    219 H           3.8537    6.4593    2.3816 H       1  UNL1        0.1450
    220 H           3.8085    6.3572    2.4059 H       1  UNL1        0.1450
@<TRIPOS>BOND
     1     1     2    1
     2     2     3    1
     3     2     4    1
     4     4     5    1
     5     5     6    1
     6     6     7   am
     7     7     8    2
     8     7     9    1
     9     9    10    1
    10    10    11    1
    11    11    12   ar
    12    12    13   ar
    13    13    14   ar
    14    14    15    1
    15    15    16   am
    16    16    17   am
    17    16    18    2
    18    14    19   ar
    19    19    20   ar
    20     9    21    1
    21    21    22   am
    22    22    23    2
    23    22    24    1
    24    24    25    1
    25    25    26    1
    26    26    27   ar
    27    27    28   ar
    28    28    29   ar
    29    29    30    1
    30    30    31   am
    31    31    32    2
    32    31    33    1
    33    33    34    1
    34    34    35    1
    35    35    36    2
    36    35    37   am
    37    37    38   am
    38    38    39    2
    39    38    40   am
    40    29    41   ar
    41    41    42   ar
    42    24    43    1
    43    43    44   am
    44    44    45    2
    45    44    46    1
    46    46    47    1
    47    47    48    1
    48    46    49    1
    49    49    50   am
    50    50    51    2
    51    50    52    1
    52    52    53    1
    53    53    54    1
    54    54    55   ar
    55    55    56   ar
    56    56    57   ar
    57    57    58   ar
    58    58    59   ar
    59    52    60    1
    60    60    61   am
    61    61    62    2
    62    61    63    1
    63    63    64    1
    64    64    65    1
    65    65    66   ar
    66    66    67   ar
    67    67    68   ar
    68    68    69    1
    69    68    70   ar
    70    70    71   ar
    71    63    72    1
    72    72    73   am
    73    73    74    2
    74    73    75    1
    75    75    76    1
    76    76    77    1
    77    77    78   ar
    78    78    79   ar
    79    79    80   ar
    80    80    81   ar
    81    81    82   ar
    82    82    83   ar
    83    83    84   ar
    84    84    85   ar
    85    85    86   ar
    86    75    87    1
    87    87    88   am
    88    88    89    1
    89    88    90    2
    90     5    91    1
    91    91    92    2
    92    91    93   am
    93    93    94    1
    94    94    95    1
    95    95    96    1
    96    96    97    1
    97    97    98    1
    98    98    99    1
    99    99   100    1
   100   100   101    1
   101   100   102    1
   102    94   103    1
   103   103   104    2
   104   103   105   am
   105   105   106    1
   106   106   107    1
   107   107   108    1
   108   108   109    1
   109   109   110    1
   110   110   111    2
   111   110   112   am
   112   112   113    1
   113   113   114    1
   114   113   115    1
   115   115   116   am
   116   115   117    2
   117    20    11   ar
   118    42    26   ar
   119    59    54   ar
   120    71    65   ar
   121    86    77   ar
   122   109   105    1
   123    40    33    1
   124    85    80   ar
   125     1   118    1
   126     1   119    1
   127     1   120    1
   128     2   121    1
   129     3   122    1
   130     3   123    1
   131     3   124    1
   132     4   125    1
   133     4   126    1
   134     5   127    1
   135     6   128    1
   136     9   129    1
   137    10   130    1
   138    10   131    1
   139    12   132    1
   140    13   133    1
   141    15   134    1
   142    17   135    1
   143    17   136    1
   144    19   137    1
   145    20   138    1
   146    21   139    1
   147    24   140    1
   148    25   141    1
   149    25   142    1
   150    27   143    1
   151    28   144    1
   152    30   145    1
   153    33   146    1
   154    34   147    1
   155    34   148    1
   156    37   149    1
   157    40   150    1
   158    41   151    1
   159    42   152    1
   160    43   153    1
   161    46   154    1
   162    47   155    1
   163    47   156    1
   164    48   157    1
   165    49   158    1
   166    52   159    1
   167    53   160    1
   168    53   161    1
   169    55   162    1
   170    56   163    1
   171    57   164    1
   172    59   165    1
   173    60   166    1
   174    63   167    1
   175    64   168    1
   176    64   169    1
   177    66   170    1
   178    67   171    1
   179    70   172    1
   180    71   173    1
   181    72   174    1
   182    75   175    1
   183    76   176    1
   184    76   177    1
   185    78   178    1
   186    79   179    1
   187    81   180    1
   188    82   181    1
   189    83   182    1
   190    84   183    1
   191    86   184    1
   192    87   185    1
   193    89   186    1
   194    89   187    1
   195    89   188    1
   196    93   189    1
   197    94   190    1
   198    95   191    1
   199    95   192    1
   200    96   193    1
   201    96   194    1
   202    97   195    1
   203    97   196    1
   204    98   197    1
   205    98   198    1
   206    99   199    1
   207   100   200    1
   208   101   201    1
   209   101   202    1
   210   101   203    1
   211   102   204    1
   212   102   205    1
   213   102   206    1
   214   106   207    1
   215   106   208    1
   216   107   209    1
   217   107   210    1
   218   108   211    1
   219   108   212    1
   220   109   213    1
   221   112   214    1
   222   113   215    1
   223   114   216    1
   224   114   217    1
   225   114   218    1
   226   116   219    1
   227   116   220    1
