
     RDKit          3D

 85 85  0  0  0  0  0  0  0  0999 V2000
    7.2417    4.6199   -2.1548 C   0  0  0  0  0  0  0  0  0  0  0  0
    6.1348    4.6107   -1.1368 C   0  0  0  0  0  0  0  0  0  0  0  0
    4.8249    4.7297   -1.5384 C   0  0  0  0  0  0  0  0  0  0  0  0
    3.7894    4.7215   -0.6013 C   0  0  0  0  0  0  0  0  0  0  0  0
    4.0417    4.5951    0.7438 C   0  0  0  0  0  0  0  0  0  0  0  0
    2.8216    4.5650    1.9833 S   0  0  0  0  0  6  0  0  0  0  0  0
    3.4110    5.1830    3.2179 O   0  0  0  0  0  0  0  0  0  0  0  0
    1.6219    5.3847    1.6161 O   0  0  0  0  0  0  0  0  0  0  0  0
    2.4173    2.9289    2.3107 N   0  0  0  0  0  0  0  0  0  0  0  0
    1.8556    2.2657    1.0910 C   0  0  1  0  0  0  0  0  0  0  0  0
    2.7246    1.1045    0.7762 C   0  0  0  0  0  0  0  0  0  0  0  0
    2.4365    0.3060   -0.4079 C   0  0  0  0  0  0  0  0  0  0  0  0
    1.6403    0.5826   -1.3277 O   0  0  0  0  0  0  0  0  0  0  0  0
    3.1249   -0.9724   -0.5963 N   0  0  0  0  0  0  0  0  0  0  0  0
    2.8468   -1.7717   -1.7651 C   0  0  0  0  0  0  0  0  0  0  0  0
    3.6770   -3.0290   -1.7255 C   0  0  0  0  0  0  0  0  0  0  0  0
    5.1379   -2.5823   -1.7046 C   0  0  0  0  0  0  0  0  0  0  0  0
    3.3785   -3.8520   -0.5153 C   0  0  0  0  0  0  0  0  0  0  0  0
    3.4749   -3.8646   -2.9558 C   0  0  0  0  0  0  0  0  0  0  0  0
    0.4594    1.8872    1.4652 C   0  0  0  0  0  0  0  0  0  0  0  0
    0.1151    1.8324    2.6888 O   0  0  0  0  0  0  0  0  0  0  0  0
   -0.5638    1.5767    0.5628 N   0  0  0  0  0  0  0  0  0  0  0  0
   -1.8939    1.2060    1.0010 C   0  0  1  0  0  0  0  0  0  0  0  0
   -2.9518    2.1663    0.5462 C   0  0  0  0  0  0  0  0  0  0  0  0
   -3.0432    2.2864   -0.8203 O   0  0  0  0  0  0  0  0  0  0  0  0
   -2.2118   -0.1619    0.5597 C   0  0  0  0  0  0  0  0  0  0  0  0
   -1.3474   -0.8046   -0.1076 O   0  0  0  0  0  0  0  0  0  0  0  0
   -3.4179   -0.8377    0.8181 N   0  0  0  0  0  0  0  0  0  0  0  0
   -3.6895   -2.1927    0.3607 C   0  0  2  0  0  0  0  0  0  0  0  0
   -4.8537   -2.2986   -0.5350 C   0  0  0  0  0  0  0  0  0  0  0  0
   -5.2795   -1.2988   -1.2903 C   0  0  0  0  0  0  0  0  0  0  0  0
   -6.6732   -1.5395   -2.3156 S   0  0  0  0  0  6  0  0  0  0  0  0
   -8.0751   -0.7860   -1.5160 C   0  0  0  0  0  0  0  0  0  0  0  0
   -6.4539   -0.9529   -3.6819 O   0  0  0  0  0  0  0  0  0  0  0  0
   -6.9114   -3.0159   -2.4413 O   0  0  0  0  0  0  0  0  0  0  0  0
   -3.8533   -3.0611    1.5783 C   0  0  0  0  0  0  0  0  0  0  0  0
   -4.9596   -2.6472    2.4988 C   0  0  0  0  0  0  0  0  0  0  0  0
   -4.9558   -3.6406    3.6736 C   0  0  0  0  0  0  0  0  0  0  0  0
   -6.3375   -2.7530    1.9011 C   0  0  0  0  0  0  0  0  0  0  0  0
    5.3615    4.4781    1.1158 C   0  0  0  0  0  0  0  0  0  0  0  0
    6.3964    4.4841    0.2055 C   0  0  0  0  0  0  0  0  0  0  0  0
    6.9870    3.8124   -2.9005 H   0  0  0  0  0  0  0  0  0  0  0  0
    7.2415    5.5555   -2.7131 H   0  0  0  0  0  0  0  0  0  0  0  0
    8.1968    4.3887   -1.6800 H   0  0  0  0  0  0  0  0  0  0  0  0
    4.5927    4.8301   -2.5834 H   0  0  0  0  0  0  0  0  0  0  0  0
    2.7586    4.8181   -0.9178 H   0  0  0  0  0  0  0  0  0  0  0  0
    3.2923    2.4280    2.5234 H   0  0  0  0  0  0  0  0  0  0  0  0
    1.8422    2.9995    0.3116 H   0  0  0  0  0  0  0  0  0  0  0  0
    3.8113    1.3979    0.7218 H   0  0  0  0  0  0  0  0  0  0  0  0
    2.7342    0.3715    1.6569 H   0  0  0  0  0  0  0  0  0  0  0  0
    3.8022   -1.2460    0.1484 H   0  0  0  0  0  0  0  0  0  0  0  0
    3.0451   -1.2195   -2.7050 H   0  0  0  0  0  0  0  0  0  0  0  0
    1.7763   -2.0687   -1.7681 H   0  0  0  0  0  0  0  0  0  0  0  0
    5.2302   -1.7517   -2.4477 H   0  0  0  0  0  0  0  0  0  0  0  0
    5.8213   -3.4094   -1.9770 H   0  0  0  0  0  0  0  0  0  0  0  0
    5.3613   -2.2732   -0.6849 H   0  0  0  0  0  0  0  0  0  0  0  0
    2.2921   -4.0007   -0.4266 H   0  0  0  0  0  0  0  0  0  0  0  0
    3.8391   -3.3460    0.3596 H   0  0  0  0  0  0  0  0  0  0  0  0
    3.8768   -4.8461   -0.6539 H   0  0  0  0  0  0  0  0  0  0  0  0
    4.4110   -4.4716   -3.1011 H   0  0  0  0  0  0  0  0  0  0  0  0
    2.6608   -4.6162   -2.8292 H   0  0  0  0  0  0  0  0  0  0  0  0
    3.3310   -3.2618   -3.8771 H   0  0  0  0  0  0  0  0  0  0  0  0
   -0.4614    1.6164   -0.4710 H   0  0  0  0  0  0  0  0  0  0  0  0
   -1.8953    1.2200    2.1070 H   0  0  0  0  0  0  0  0  0  0  0  0
   -2.8167    3.1518    1.0609 H   0  0  0  0  0  0  0  0  0  0  0  0
   -3.9242    1.7756    0.9136 H   0  0  0  0  0  0  0  0  0  0  0  0
   -3.3136    3.2342   -1.0120 H   0  0  0  0  0  0  0  0  0  0  0  0
   -4.1574   -0.3571    1.3603 H   0  0  0  0  0  0  0  0  0  0  0  0
   -2.8116   -2.5912   -0.2137 H   0  0  0  0  0  0  0  0  0  0  0  0
   -5.3869   -3.2380   -0.5844 H   0  0  0  0  0  0  0  0  0  0  0  0
   -4.7532   -0.3459   -1.2578 H   0  0  0  0  0  0  0  0  0  0  0  0
   -8.3523    0.1175   -2.0947 H   0  0  0  0  0  0  0  0  0  0  0  0
   -7.8491   -0.4507   -0.4901 H   0  0  0  0  0  0  0  0  0  0  0  0
   -8.9183   -1.5062   -1.4591 H   0  0  0  0  0  0  0  0  0  0  0  0
   -2.8849   -3.1766    2.1141 H   0  0  0  0  0  0  0  0  0  0  0  0
   -4.0800   -4.0884    1.1943 H   0  0  0  0  0  0  0  0  0  0  0  0
   -4.7821   -1.6327    2.9090 H   0  0  0  0  0  0  0  0  0  0  0  0
   -4.1414   -3.3956    4.3645 H   0  0  0  0  0  0  0  0  0  0  0  0
   -4.7873   -4.6636    3.2419 H   0  0  0  0  0  0  0  0  0  0  0  0
   -5.9609   -3.6719    4.1414 H   0  0  0  0  0  0  0  0  0  0  0  0
   -7.0561   -2.6822    2.7611 H   0  0  0  0  0  0  0  0  0  0  0  0
   -6.5405   -3.7140    1.4330 H   0  0  0  0  0  0  0  0  0  0  0  0
   -6.5097   -1.9098    1.2371 H   0  0  0  0  0  0  0  0  0  0  0  0
    5.5883    4.3767    2.1821 H   0  0  0  0  0  0  0  0  0  0  0  0
    7.4294    4.3890    0.5292 H   0  0  0  0  0  0  0  0  0  0  0  0
  1  2  1  0
  2  3  2  0
  3  4  1  0
  4  5  2  0
  5  6  1  0
  6  7  2  0
  6  8  2  0
  6  9  1  0
  9 10  1  0
 10 11  1  0
 11 12  1  0
 12 13  2  0
 12 14  1  0
 14 15  1  0
 15 16  1  0
 16 17  1  0
 16 18  1  0
 16 19  1  0
 10 20  1  0
 20 21  2  0
 20 22  1  0
 22 23  1  0
 23 24  1  0
 24 25  1  0
 23 26  1  0
 26 27  2  0
 26 28  1  0
 28 29  1  0
 29 30  1  0
 30 31  2  0
 31 32  1  0
 32 33  1  0
 32 34  2  0
 32 35  2  0
 29 36  1  0
 36 37  1  0
 37 38  1  0
 37 39  1  0
  5 40  1  0
 40 41  2  0
 41  2  1  0
  1 42  1  0
  1 43  1  0
  1 44  1  0
  3 45  1  0
  4 46  1  0
  9 47  1  0
 10 48  1  6
 11 49  1  0
 11 50  1  0
 14 51  1  0
 15 52  1  0
 15 53  1  0
 17 54  1  0
 17 55  1  0
 17 56  1  0
 18 57  1  0
 18 58  1  0
 18 59  1  0
 19 60  1  0
 19 61  1  0
 19 62  1  0
 22 63  1  0
 23 64  1  1
 24 65  1  0
 24 66  1  0
 25 67  1  0
 28 68  1  0
 29 69  1  6
 30 70  1  0
 31 71  1  0
 33 72  1  0
 33 73  1  0
 33 74  1  0
 36 75  1  0
 36 76  1  0
 37 77  1  0
 38 78  1  0
 38 79  1  0
 38 80  1  0
 39 81  1  0
 39 82  1  0
 39 83  1  0
 40 84  1  0
 41 85  1  0
M  END
$$$$
