@<TRIPOS>MOLECULE
*****
 85 85 0 0 0
SMALL
GASTEIGER

@<TRIPOS>ATOM
      1 C           7.2417    4.6199   -2.1548 C.3     1  UNL1       -0.0397
      2 C           6.1348    4.6107   -1.1368 C.ar    1  UNL1       -0.0503
      3 C           4.8249    4.7297   -1.5384 C.ar    1  UNL1       -0.0570
      4 C           3.7894    4.7215   -0.6013 C.ar    1  UNL1       -0.0351
      5 C           4.0417    4.5951    0.7438 C.ar    1  UNL1        0.1053
      6 S           2.8216    4.5650    1.9833 S.O2    1  UNL1        0.0591
      7 O           3.4110    5.1830    3.2179 O.2     1  UNL1       -0.1530
      8 O           1.6219    5.3847    1.6161 O.2     1  UNL1       -0.1530
      9 N           2.4173    2.9289    2.3107 N.3     1  UNL1       -0.1776
     10 C           1.8556    2.2657    1.0910 C.3     1  UNL1        0.1129
     11 C           2.7246    1.1045    0.7762 C.3     1  UNL1        0.0494
     12 C           2.4365    0.3060   -0.4079 C.2     1  UNL1        0.2151
     13 O           1.6403    0.5826   -1.3277 O.2     1  UNL1       -0.2757
     14 N           3.1249   -0.9724   -0.5963 N.am    1  UNL1       -0.3147
     15 C           2.8468   -1.7717   -1.7651 C.3     1  UNL1        0.0165
     16 C           3.6770   -3.0290   -1.7255 C.3     1  UNL1       -0.0222
     17 C           5.1379   -2.5823   -1.7046 C.3     1  UNL1       -0.0586
     18 C           3.3785   -3.8520   -0.5153 C.3     1  UNL1       -0.0586
     19 C           3.4749   -3.8646   -2.9558 C.3     1  UNL1       -0.0586
     20 C           0.4594    1.8872    1.4652 C.2     1  UNL1        0.2328
     21 O           0.1151    1.8324    2.6888 O.2     1  UNL1       -0.2740
     22 N          -0.5638    1.5767    0.5628 N.am    1  UNL1       -0.3008
     23 CA         -1.8939    1.2060    1.0010 C.3     1  UNL1        0.1226
     24 C          -2.9518    2.1663    0.5462 C.3     1  UNL1        0.0711
     25 O          -3.0432    2.2864   -0.8203 O.3     1  UNL1       -0.3927
     26 C          -2.2118   -0.1619    0.5597 C.2     1  UNL1        0.2361
     27 O          -1.3474   -0.8046   -0.1076 O.2     1  UNL1       -0.2737
     28 N          -3.4179   -0.8377    0.8181 N.am    1  UNL1       -0.3074
     29 C          -3.6895   -2.1927    0.3607 C.3     1  UNL1        0.0432
     30 C          -4.8537   -2.2986   -0.5350 C.2     1  UNL1       -0.0464
     31 C          -5.2795   -1.2988   -1.2903 C.2     1  UNL1        0.0495
     32 S          -6.6732   -1.5395   -2.3156 S.O2    1  UNL1       -0.0127
     33 C          -8.0751   -0.7860   -1.5160 C.3     1  UNL1        0.0589
     34 O          -6.4539   -0.9529   -3.6819 O.2     1  UNL1       -0.1702
     35 O          -6.9114   -3.0159   -2.4413 O.2     1  UNL1       -0.1702
     36 C          -3.8533   -3.0611    1.5783 C.3     1  UNL1       -0.0285
     37 C          -4.9596   -2.6472    2.4988 C.3     1  UNL1       -0.0448
     38 C          -4.9558   -3.6406    3.6736 C.3     1  UNL1       -0.0626
     39 C          -6.3375   -2.7530    1.9011 C.3     1  UNL1       -0.0626
     40 C           5.3615    4.4781    1.1158 C.ar    1  UNL1       -0.0351
     41 C           6.3964    4.4841    0.2055 C.ar    1  UNL1       -0.0570
     42 H           6.9870    3.8124   -2.9005 H       1  UNL1        0.0278
     43 H           7.2415    5.5555   -2.7131 H       1  UNL1        0.0278
     44 H           8.1968    4.3887   -1.6800 H       1  UNL1        0.0278
     45 H           4.5927    4.8301   -2.5834 H       1  UNL1        0.0621
     46 H           2.7586    4.8181   -0.9178 H       1  UNL1        0.0637
     47 H           3.2923    2.4280    2.5234 H       1  UNL1        0.1489
     48 H           1.8422    2.9995    0.3116 H       1  UNL1        0.0578
     49 H           3.8113    1.3979    0.7218 H       1  UNL1        0.0379
     50 H           2.7342    0.3715    1.6569 H       1  UNL1        0.0379
     51 H           3.8022   -1.2460    0.1484 H       1  UNL1        0.1487
     52 H           3.0451   -1.2195   -2.7050 H       1  UNL1        0.0467
     53 H           1.7763   -2.0687   -1.7681 H       1  UNL1        0.0467
     54 H           5.2302   -1.7517   -2.4477 H       1  UNL1        0.0235
     55 H           5.8213   -3.4094   -1.9770 H       1  UNL1        0.0235
     56 H           5.3613   -2.2732   -0.6849 H       1  UNL1        0.0235
     57 H           2.2921   -4.0007   -0.4266 H       1  UNL1        0.0235
     58 H           3.8391   -3.3460    0.3596 H       1  UNL1        0.0235
     59 H           3.8768   -4.8461   -0.6539 H       1  UNL1        0.0235
     60 H           4.4110   -4.4716   -3.1011 H       1  UNL1        0.0235
     61 H           2.6608   -4.6162   -2.8292 H       1  UNL1        0.0235
     62 H           3.3310   -3.2618   -3.8771 H       1  UNL1        0.0235
     63 H          -0.4614    1.6164   -0.4710 H       1  UNL1        0.1496
     64 HA         -1.8953    1.2200    2.1070 H       1  UNL1        0.0618
     65 H1         -2.8167    3.1518    1.0609 H       1  UNL1        0.0580
     66 H2         -3.9242    1.7756    0.9136 H       1  UNL1        0.0580
     67 H          -3.3136    3.2342   -1.0120 H       1  UNL1        0.2095
     68 H          -4.1574   -0.3571    1.3603 H       1  UNL1        0.1493
     69 H          -2.8116   -2.5912   -0.2137 H       1  UNL1        0.0543
     70 H          -5.3869   -3.2380   -0.5844 H       1  UNL1        0.0603
     71 H          -4.7532   -0.3459   -1.2578 H       1  UNL1        0.0816
     72 H          -8.3523    0.1175   -2.0947 H       1  UNL1        0.0468
     73 H          -7.8491   -0.4507   -0.4901 H       1  UNL1        0.0468
     74 H          -8.9183   -1.5062   -1.4591 H       1  UNL1        0.0468
     75 H          -2.8849   -3.1766    2.1141 H       1  UNL1        0.0289
     76 H          -4.0800   -4.0884    1.1943 H       1  UNL1        0.0289
     77 H          -4.7821   -1.6327    2.9090 H       1  UNL1        0.0296
     78 H          -4.1414   -3.3956    4.3645 H       1  UNL1        0.0232
     79 H          -4.7873   -4.6636    3.2419 H       1  UNL1        0.0232
     80 H          -5.9609   -3.6719    4.1414 H       1  UNL1        0.0232
     81 H          -7.0561   -2.6822    2.7611 H       1  UNL1        0.0232
     82 H          -6.5405   -3.7140    1.4330 H       1  UNL1        0.0232
     83 H          -6.5097   -1.9098    1.2371 H       1  UNL1        0.0232
     84 H           5.5883    4.3767    2.1821 H       1  UNL1        0.0637
     85 H           7.4294    4.3890    0.5292 H       1  UNL1        0.0621
@<TRIPOS>BOND
     1     1     2    1
     2     2     3   ar
     3     3     4   ar
     4     4     5   ar
     5     5     6    1
     6     6     7    2
     7     6     8    2
     8     6     9    1
     9     9    10    1
    10    10    11    1
    11    11    12    1
    12    12    13    2
    13    12    14   am
    14    14    15    1
    15    15    16    1
    16    16    17    1
    17    16    18    1
    18    16    19    1
    19    10    20    1
    20    20    21    2
    21    20    22   am
    22    22    23    1
    23    23    24    1
    24    24    25    1
    25    23    26    1
    26    26    27    2
    27    26    28   am
    28    28    29    1
    29    29    30    1
    30    30    31    2
    31    31    32    1
    32    32    33    1
    33    32    34    2
    34    32    35    2
    35    29    36    1
    36    36    37    1
    37    37    38    1
    38    37    39    1
    39     5    40   ar
    40    40    41   ar
    41    41     2   ar
    42     1    42    1
    43     1    43    1
    44     1    44    1
    45     3    45    1
    46     4    46    1
    47     9    47    1
    48    10    48    1
    49    11    49    1
    50    11    50    1
    51    14    51    1
    52    15    52    1
    53    15    53    1
    54    17    54    1
    55    17    55    1
    56    17    56    1
    57    18    57    1
    58    18    58    1
    59    18    59    1
    60    19    60    1
    61    19    61    1
    62    19    62    1
    63    22    63    1
    64    23    64    1
    65    24    65    1
    66    24    66    1
    67    25    67    1
    68    28    68    1
    69    29    69    1
    70    30    70    1
    71    31    71    1
    72    33    72    1
    73    33    73    1
    74    33    74    1
    75    36    75    1
    76    36    76    1
    77    37    77    1
    78    38    78    1
    79    38    79    1
    80    38    80    1
    81    39    81    1
    82    39    82    1
    83    39    83    1
    84    40    84    1
    85    41    85    1
