@<TRIPOS>MOLECULE
*****
 61 65 0 0 0
SMALL
GASTEIGER

@<TRIPOS>ATOM
      1 C          -1.9232    4.5666    0.4667 C.3     1  UNL1        0.0044
      2 C          -1.2807    3.8960    1.6200 C.2     1  UNL1        0.1866
      3 O          -1.1644    4.4758    2.6797 O.2     1  UNL1       -0.2855
      4 S          -0.6756    2.2357    1.4582 S.3     1  UNL1       -0.0844
      5 C          -1.0138    1.6230   -0.2060 C.3     1  UNL1        0.0195
      6 C          -2.4672    1.4546   -0.4598 C.3     1  UNL1       -0.0182
      7 C          -3.0494    0.1526   -0.0806 C.2     1  UNL1       -0.0590
      8 C          -4.3475    0.0856    0.1875 C.2     1  UNL1       -0.0194
      9 C          -5.0012   -1.1564    0.5676 C.2     1  UNL1        0.1561
     10 O          -6.2298   -1.2138    0.8228 O.2     1  UNL1       -0.2927
     11 C          -4.2163   -2.4135    0.6656 C.3     1  UNL1        0.0107
     12 C          -2.7789   -2.0789    1.0203 C.3     1  UNL1       -0.0366
     13 C          -2.2326   -1.0658   -0.0004 C.3     1  UNL1       -0.0071
     14 C          -2.2286   -1.8097   -1.3205 C.3     1  UNL1       -0.0556
     15 C          -0.8393   -0.6949    0.4409 C.3     1  UNL1       -0.0278
     16 C          -0.0324   -1.9304    0.6495 C.3     1  UNL1       -0.0485
     17 C           1.4400   -1.6709    0.8368 C.3     1  UNL1       -0.0434
     18 C           1.9157   -0.7957   -0.2649 C.3     1  UNL1        0.0109
     19 C           1.6750   -1.4444   -1.6000 C.3     1  UNL1       -0.0557
     20 C           1.1950    0.5392   -0.1345 C.3     1  UNL1       -0.0277
     21 C           1.9462    1.3704   -1.1403 C.3     1  UNL1       -0.0457
     22 C           3.3724    0.8669   -1.0606 C.3     1  UNL1       -0.0120
     23 C           3.3462   -0.3709   -0.1739 C.3     1  UNL1        0.1196
     24 C           3.7951   -0.0472    1.2233 C.3     1  UNL1       -0.0022
     25 C           5.3175    0.0063    1.0377 C.3     1  UNL1        0.0486
     26 C           5.5217   -0.9077   -0.1269 C.2     1  UNL1        0.3077
     27 O           6.6592   -1.2283   -0.5605 O.2     1  UNL1       -0.2508
     28 O           4.2672   -1.3170   -0.6166 O.3     1  UNL1       -0.4575
     29 C          -0.2381    0.3196   -0.4580 C.3     1  UNL1       -0.0214
     30 H          -1.5952    5.6439    0.4028 H       1  UNL1        0.0315
     31 H          -3.0474    4.5666    0.5666 H       1  UNL1        0.0315
     32 H          -1.6730    4.0979   -0.5023 H       1  UNL1        0.0315
     33 H          -0.6379    2.4134   -0.9187 H       1  UNL1        0.0422
     34 H          -3.0889    2.2460    0.0138 H       1  UNL1        0.0321
     35 H          -2.6555    1.5964   -1.5675 H       1  UNL1        0.0321
     36 H          -4.9175    1.0141    0.1107 H       1  UNL1        0.0652
     37 H          -4.6747   -3.0545    1.4191 H       1  UNL1        0.0345
     38 H          -4.2181   -2.9578   -0.3015 H       1  UNL1        0.0345
     39 H          -2.1953   -2.9968    0.8984 H       1  UNL1        0.0278
     40 H          -2.6773   -1.6974    2.0440 H       1  UNL1        0.0278
     41 H          -3.2925   -1.8002   -1.6992 H       1  UNL1        0.0238
     42 H          -1.6336   -1.3347   -2.0992 H       1  UNL1        0.0238
     43 H          -1.9685   -2.8704   -1.1707 H       1  UNL1        0.0238
     44 H          -0.9649   -0.2093    1.4533 H       1  UNL1        0.0312
     45 H          -0.2258   -2.7198   -0.1120 H       1  UNL1        0.0268
     46 H          -0.3865   -2.3894    1.6202 H       1  UNL1        0.0268
     47 H           1.5407   -1.0884    1.7962 H       1  UNL1        0.0272
     48 H           1.9431   -2.6427    0.9072 H       1  UNL1        0.0272
     49 H           1.8969   -0.7632   -2.4497 H       1  UNL1        0.0236
     50 H           0.6759   -1.8655   -1.7290 H       1  UNL1        0.0236
     51 H           2.3954   -2.2878   -1.6836 H       1  UNL1        0.0236
     52 H           1.3664    0.9261    0.8700 H       1  UNL1        0.0310
     53 H           1.5275    1.2905   -2.1603 H       1  UNL1        0.0269
     54 H           1.9574    2.4149   -0.7796 H       1  UNL1        0.0269
     55 H           3.6704    0.5464   -2.1005 H       1  UNL1        0.0304
     56 H           4.0802    1.6301   -0.6987 H       1  UNL1        0.0304
     57 H           3.4004    0.8989    1.6062 H       1  UNL1        0.0309
     58 H           3.5672   -0.8738    1.8963 H       1  UNL1        0.0309
     59 H           5.8249   -0.3582    1.9507 H       1  UNL1        0.0379
     60 H           5.6064    1.0515    0.7734 H       1  UNL1        0.0379
     61 H          -0.3327    0.1264   -1.5335 H       1  UNL1        0.0317
@<TRIPOS>BOND
     1     1     2    1
     2     2     3    2
     3     2     4    1
     4     4     5    1
     5     5     6    1
     6     6     7    1
     7     7     8    2
     8     8     9    1
     9     9    10    2
    10     9    11    1
    11    11    12    1
    12    12    13    1
    13    13    14    1
    14    13    15    1
    15    15    16    1
    16    16    17    1
    17    17    18    1
    18    18    19    1
    19    18    20    1
    20    20    21    1
    21    21    22    1
    22    22    23    1
    23    23    24    1
    24    24    25    1
    25    25    26    1
    26    26    27    2
    27    26    28    1
    28    20    29    1
    29    29     5    1
    30    13     7    1
    31    29    15    1
    32    23    18    1
    33    23    28    1
    34     1    30    1
    35     1    31    1
    36     1    32    1
    37     5    33    1
    38     6    34    1
    39     6    35    1
    40     8    36    1
    41    11    37    1
    42    11    38    1
    43    12    39    1
    44    12    40    1
    45    14    41    1
    46    14    42    1
    47    14    43    1
    48    15    44    1
    49    16    45    1
    50    16    46    1
    51    17    47    1
    52    17    48    1
    53    19    49    1
    54    19    50    1
    55    19    51    1
    56    20    52    1
    57    21    53    1
    58    21    54    1
    59    22    55    1
    60    22    56    1
    61    24    57    1
    62    24    58    1
    63    25    59    1
    64    25    60    1
    65    29    61    1
