@<TRIPOS>MOLECULE
*****
 49 52 0 0 0
SMALL
GASTEIGER

@<TRIPOS>ATOM
      1 C           5.7435   -0.0639    1.7370 C.3     1  UNL1        0.0369
      2 O           4.4483   -0.5396    1.8813 O.3     1  UNL1       -0.3783
      3 C           4.1541   -1.5291    0.9381 C.3     1  UNL1        0.0745
      4 C           4.2810   -1.0152   -0.4481 C.ar    1  UNL1        0.0099
      5 C           5.3870   -1.4029   -1.1803 C.ar    1  UNL1       -0.0344
      6 C           5.5353   -0.9601   -2.4594 C.ar    1  UNL1        0.0594
      7 CL          6.9336   -1.4379   -3.4148 Cl      1  UNL1       -0.0820
      8 C           4.5929   -0.1252   -3.0395 C.ar    1  UNL1        0.0467
      9 N           3.5352    0.2229   -2.2841 N.ar    1  UNL1       -0.2486
     10 C           3.3550   -0.1906   -1.0268 C.ar    1  UNL1        0.1311
     11 C           2.1946    0.2441   -0.2905 C.2     1  UNL1        0.2669
     12 O           2.0405   -0.1107    0.8986 O.2     1  UNL1       -0.2682
     13 N           1.1902    1.0818   -0.8739 N.am    1  UNL1       -0.2802
     14 C           0.0591    1.4902   -0.1152 C.ar    1  UNL1        0.0342
     15 C           0.1204    2.6548    0.6069 C.ar    1  UNL1       -0.0377
     16 C          -0.9887    3.0231    1.3290 C.ar    1  UNL1       -0.0243
     17 C          -2.1385    2.2264    1.3196 C.ar    1  UNL1        0.1292
     18 F          -3.1952    2.6847    2.0251 F       1  UNL1       -0.2051
     19 C          -2.2294    1.0541    0.6072 C.ar    1  UNL1        0.0228
     20 C          -3.4351    0.1970    0.6589 C.3     1  UNL1        0.1603
     21 C          -3.6550   -0.3319    2.0400 C.3     1  UNL1        0.2686
     22 F          -2.5587   -1.1042    2.4582 F       1  UNL1       -0.2062
     23 F          -3.8015    0.6197    3.0249 F       1  UNL1       -0.2062
     24 N          -4.5694    1.0257    0.2532 N.2     1  UNL1       -0.2194
     25 C          -5.7208    0.4753   -0.0491 C.2     1  UNL1        0.2764
     26 N          -6.8497    1.2069   -0.4432 N.pl3   1  UNL1       -0.3134
     27 O          -5.7113   -0.9350    0.0605 O.2     1  UNL1       -0.4622
     28 C          -4.6368   -1.6456   -0.5289 C.3     1  UNL1        0.1091
     29 C          -3.5971   -2.3368    0.2676 C.3     1  UNL1       -0.0064
     30 C          -3.3272   -0.9860   -0.2876 C.3     1  UNL1        0.0344
     31 C          -1.0876    0.7148   -0.1110 C.ar    1  UNL1       -0.0321
     32 H           5.9187    0.7137    2.5070 H       1  UNL1        0.0524
     33 H           6.4241   -0.9395    1.9213 H       1  UNL1        0.0524
     34 H           5.9384    0.3560    0.7275 H       1  UNL1        0.0524
     35 H           3.2193   -2.0610    1.1424 H       1  UNL1        0.0610
     36 H           4.9715   -2.2968    1.0866 H       1  UNL1        0.0610
     37 H           6.1523   -2.0649   -0.7483 H       1  UNL1        0.0637
     38 H           4.7387    0.2072   -4.0513 H       1  UNL1        0.0844
     39 H           1.2992    1.3935   -1.8761 H       1  UNL1        0.1552
     40 H           1.0314    3.2766    0.6081 H       1  UNL1        0.0637
     41 H          -0.9371    3.9461    1.8998 H       1  UNL1        0.0647
     42 H          -4.6094   -0.9339    2.1084 H       1  UNL1        0.1047
     43 H          -7.0984    2.1036    0.0752 H       1  UNL1        0.1466
     44 H          -7.5105    0.9785   -1.2147 H       1  UNL1        0.1466
     45 H          -4.8568   -2.0565   -1.5260 H       1  UNL1        0.0737
     46 H          -3.8798   -2.5323    1.3142 H       1  UNL1        0.0306
     47 H          -3.0921   -3.2245   -0.2117 H       1  UNL1        0.0306
     48 H          -2.7204   -0.8913   -1.2054 H       1  UNL1        0.0366
     49 H          -1.0580   -0.1812   -0.6854 H       1  UNL1        0.0640
@<TRIPOS>BOND
     1     1     2    1
     2     2     3    1
     3     3     4    1
     4     4     5   ar
     5     5     6   ar
     6     6     7    1
     7     6     8   ar
     8     8     9   ar
     9     9    10   ar
    10    10    11    1
    11    11    12    2
    12    11    13   am
    13    13    14    1
    14    14    15   ar
    15    15    16   ar
    16    16    17   ar
    17    17    18    1
    18    17    19   ar
    19    19    20    1
    20    20    21    1
    21    21    22    1
    22    21    23    1
    23    20    24    1
    24    24    25    2
    25    25    26    1
    26    25    27    1
    27    27    28    1
    28    28    29    1
    29    29    30    1
    30    19    31   ar
    31    10     4   ar
    32    31    14   ar
    33    30    20    1
    34    30    28    1
    35     1    32    1
    36     1    33    1
    37     1    34    1
    38     3    35    1
    39     3    36    1
    40     5    37    1
    41     8    38    1
    42    13    39    1
    43    15    40    1
    44    16    41    1
    45    21    42    1
    46    26    43    1
    47    26    44    1
    48    28    45    1
    49    29    46    1
    50    29    47    1
    51    30    48    1
    52    31    49    1
