
     RDKit          3D

 49 52  0  0  0  0  0  0  0  0999 V2000
    5.7435   -0.0639    1.7370 C   0  0  0  0  0  0  0  0  0  0  0  0
    4.4483   -0.5396    1.8813 O   0  0  0  0  0  0  0  0  0  0  0  0
    4.1541   -1.5291    0.9381 C   0  0  0  0  0  0  0  0  0  0  0  0
    4.2810   -1.0152   -0.4481 C   0  0  0  0  0  0  0  0  0  0  0  0
    5.3870   -1.4029   -1.1803 C   0  0  0  0  0  0  0  0  0  0  0  0
    5.5353   -0.9601   -2.4594 C   0  0  0  0  0  0  0  0  0  0  0  0
    6.9336   -1.4379   -3.4148 Cl  0  0  0  0  0  0  0  0  0  0  0  0
    4.5929   -0.1252   -3.0395 C   0  0  0  0  0  0  0  0  0  0  0  0
    3.5352    0.2229   -2.2841 N   0  0  0  0  0  0  0  0  0  0  0  0
    3.3550   -0.1906   -1.0268 C   0  0  0  0  0  0  0  0  0  0  0  0
    2.1946    0.2441   -0.2905 C   0  0  0  0  0  0  0  0  0  0  0  0
    2.0405   -0.1107    0.8986 O   0  0  0  0  0  0  0  0  0  0  0  0
    1.1902    1.0818   -0.8739 N   0  0  0  0  0  0  0  0  0  0  0  0
    0.0591    1.4902   -0.1152 C   0  0  0  0  0  0  0  0  0  0  0  0
    0.1204    2.6548    0.6069 C   0  0  0  0  0  0  0  0  0  0  0  0
   -0.9887    3.0231    1.3290 C   0  0  0  0  0  0  0  0  0  0  0  0
   -2.1385    2.2264    1.3196 C   0  0  0  0  0  0  0  0  0  0  0  0
   -3.1952    2.6847    2.0251 F   0  0  0  0  0  0  0  0  0  0  0  0
   -2.2294    1.0541    0.6072 C   0  0  0  0  0  0  0  0  0  0  0  0
   -3.4351    0.1970    0.6589 C   0  0  1  0  0  0  0  0  0  0  0  0
   -3.6550   -0.3319    2.0400 C   0  0  0  0  0  0  0  0  0  0  0  0
   -2.5587   -1.1042    2.4582 F   0  0  0  0  0  0  0  0  0  0  0  0
   -3.8015    0.6197    3.0249 F   0  0  0  0  0  0  0  0  0  0  0  0
   -4.5694    1.0257    0.2532 N   0  0  0  0  0  0  0  0  0  0  0  0
   -5.7208    0.4753   -0.0491 C   0  0  0  0  0  0  0  0  0  0  0  0
   -6.8497    1.2069   -0.4432 N   0  0  0  0  0  0  0  0  0  0  0  0
   -5.7113   -0.9350    0.0605 O   0  0  0  0  0  0  0  0  0  0  0  0
   -4.6368   -1.6456   -0.5289 C   0  0  2  0  0  0  0  0  0  0  0  0
   -3.5971   -2.3368    0.2676 C   0  0  0  0  0  0  0  0  0  0  0  0
   -3.3272   -0.9860   -0.2876 C   0  0  2  0  0  0  0  0  0  0  0  0
   -1.0876    0.7148   -0.1110 C   0  0  0  0  0  0  0  0  0  0  0  0
    5.9187    0.7137    2.5070 H   0  0  0  0  0  0  0  0  0  0  0  0
    6.4241   -0.9395    1.9213 H   0  0  0  0  0  0  0  0  0  0  0  0
    5.9384    0.3560    0.7275 H   0  0  0  0  0  0  0  0  0  0  0  0
    3.2193   -2.0610    1.1424 H   0  0  0  0  0  0  0  0  0  0  0  0
    4.9715   -2.2968    1.0866 H   0  0  0  0  0  0  0  0  0  0  0  0
    6.1523   -2.0649   -0.7483 H   0  0  0  0  0  0  0  0  0  0  0  0
    4.7387    0.2072   -4.0513 H   0  0  0  0  0  0  0  0  0  0  0  0
    1.2992    1.3935   -1.8761 H   0  0  0  0  0  0  0  0  0  0  0  0
    1.0314    3.2766    0.6081 H   0  0  0  0  0  0  0  0  0  0  0  0
   -0.9371    3.9461    1.8998 H   0  0  0  0  0  0  0  0  0  0  0  0
   -4.6094   -0.9339    2.1084 H   0  0  0  0  0  0  0  0  0  0  0  0
   -7.0984    2.1036    0.0752 H   0  0  0  0  0  0  0  0  0  0  0  0
   -7.5105    0.9785   -1.2147 H   0  0  0  0  0  0  0  0  0  0  0  0
   -4.8568   -2.0565   -1.5260 H   0  0  0  0  0  0  0  0  0  0  0  0
   -3.8798   -2.5323    1.3142 H   0  0  0  0  0  0  0  0  0  0  0  0
   -3.0921   -3.2245   -0.2117 H   0  0  0  0  0  0  0  0  0  0  0  0
   -2.7204   -0.8913   -1.2054 H   0  0  0  0  0  0  0  0  0  0  0  0
   -1.0580   -0.1812   -0.6854 H   0  0  0  0  0  0  0  0  0  0  0  0
  1  2  1  0
  2  3  1  0
  3  4  1  0
  4  5  2  0
  5  6  1  0
  6  7  1  0
  6  8  2  0
  8  9  1  0
  9 10  2  0
 10 11  1  0
 11 12  2  0
 11 13  1  0
 13 14  1  0
 14 15  2  0
 15 16  1  0
 16 17  2  0
 17 18  1  0
 17 19  1  0
 19 20  1  0
 20 21  1  1
 21 22  1  0
 21 23  1  0
 20 24  1  0
 24 25  2  0
 25 26  1  0
 25 27  1  0
 27 28  1  0
 28 29  1  0
 29 30  1  0
 19 31  2  0
 10  4  1  0
 31 14  1  0
 30 20  1  0
 30 28  1  0
  1 32  1  0
  1 33  1  0
  1 34  1  0
  3 35  1  0
  3 36  1  0
  5 37  1  0
  8 38  1  0
 13 39  1  0
 15 40  1  0
 16 41  1  0
 21 42  1  0
 26 43  1  0
 26 44  1  0
 28 45  1  6
 29 46  1  0
 29 47  1  0
 30 48  1  6
 31 49  1  0
M  END
$$$$
