@<TRIPOS>MOLECULE
*****
 73 80 0 0 0
SMALL
GASTEIGER

@<TRIPOS>ATOM
      1 O          -7.4533    2.3989    1.3462 O.2     1  UNL1       -0.2465
      2 C          -7.5276    1.2746    0.7786 C.ar    1  UNL1        0.3278
      3 N          -8.6794    0.6283    0.5906 N.ar    1  UNL1       -0.3059
      4 C          -8.3935   -0.5214   -0.0348 C.ar    1  UNL1        0.0670
      5 C          -9.2034   -1.5443   -0.4587 C.ar    1  UNL1       -0.0362
      6 C          -8.6146   -2.6239   -1.0861 C.ar    1  UNL1       -0.0597
      7 C          -7.2547   -2.6664   -1.2776 C.ar    1  UNL1       -0.0597
      8 C          -6.4335   -1.6425   -0.8545 C.ar    1  UNL1       -0.0360
      9 C          -7.0070   -0.5537   -0.2242 C.ar    1  UNL1        0.0700
     10 N          -6.4750    0.5563    0.2789 N.ar    1  UNL1       -0.2891
     11 C          -5.1266    1.0071    0.3404 C.3     1  UNL1        0.0417
     12 C          -4.1712    0.0942    1.0626 C.3     1  UNL1       -0.0191
     13 C          -2.9635    0.9392    1.4705 C.3     1  UNL1        0.0011
     14 N          -2.7416    1.9896    0.5371 N.3     1  UNL1       -0.2980
     15 C          -1.5300    2.7076    0.7340 C.3     1  UNL1        0.0240
     16 C          -0.3017    1.9123    0.6364 C.ar    1  UNL1       -0.0333
     17 C           0.3027    1.7888   -0.5908 C.ar    1  UNL1       -0.0567
     18 C           1.4637    1.0557   -0.7381 C.ar    1  UNL1       -0.0522
     19 C           2.0676    0.4186    0.3267 C.ar    1  UNL1        0.0025
     20 C           3.2976   -0.3557    0.1816 C.ar    1  UNL1        0.0976
     21 N           3.3679   -1.6724    0.4477 N.ar    1  UNL1       -0.2430
     22 C           4.5165   -2.3596    0.3077 C.ar    1  UNL1        0.0899
     23 C           4.6236   -3.7107    0.5730 C.ar    1  UNL1       -0.0335
     24 C           5.8073   -4.4008    0.4256 C.ar    1  UNL1       -0.0489
     25 C           6.9573   -3.7362   -0.0063 C.ar    1  UNL1        0.0226
     26 C           8.2021   -4.4586   -0.1612 C.ar    1  UNL1        0.1794
     27 N           8.4213   -5.7578    0.0646 N.ar    1  UNL1       -0.1084
     28 N           9.7111   -6.0340   -0.1975 N.ar    1  UNL1       -0.0229
     29 N          10.2959   -4.9236   -0.5833 N.ar    1  UNL1       -0.0464
     30 N           9.3735   -3.9524   -0.5629 N.ar    1  UNL1       -0.2388
     31 C           6.8257   -2.3910   -0.2642 C.ar    1  UNL1       -0.0235
     32 C           5.6462   -1.6898   -0.1203 C.ar    1  UNL1        0.0906
     33 N           5.5567   -0.3697   -0.3825 N.ar    1  UNL1       -0.2430
     34 C           4.4245    0.3412   -0.2516 C.ar    1  UNL1        0.0976
     35 C           4.3259    1.7689   -0.5360 C.ar    1  UNL1        0.0025
     36 C           4.0005    2.6728    0.4535 C.ar    1  UNL1       -0.0525
     37 C           3.9044    4.0387    0.1799 C.ar    1  UNL1       -0.0611
     38 C           4.1317    4.5300   -1.0887 C.ar    1  UNL1       -0.0617
     39 C           4.4568    3.6194   -2.0729 C.ar    1  UNL1       -0.0611
     40 C           4.5516    2.2690   -1.8018 C.ar    1  UNL1       -0.0525
     41 C           1.4515    0.5495    1.5551 C.ar    1  UNL1       -0.0522
     42 C           0.2892    1.2806    1.7144 C.ar    1  UNL1       -0.0567
     43 C          -3.0333    1.6527   -0.8439 C.3     1  UNL1        0.0011
     44 C          -4.5017    1.3050   -1.0115 C.3     1  UNL1       -0.0191
     45 H          -9.6368    0.9534    0.8769 H       1  UNL1        0.1704
     46 H         -10.2891   -1.5369   -0.3198 H       1  UNL1        0.0639
     47 H          -9.2328   -3.4309   -1.4229 H       1  UNL1        0.0618
     48 H          -6.7608   -3.5122   -1.7732 H       1  UNL1        0.0618
     49 H          -5.3688   -1.6768   -1.0052 H       1  UNL1        0.0639
     50 H          -5.0614    1.9905    0.8957 H       1  UNL1        0.0530
     51 H          -3.7680   -0.7220    0.4615 H       1  UNL1        0.0298
     52 H          -4.6887   -0.2648    1.9813 H       1  UNL1        0.0298
     53 H          -3.2267    1.3843    2.4552 H       1  UNL1        0.0427
     54 H          -2.0739    0.2956    1.6399 H       1  UNL1        0.0427
     55 H          -1.5778    3.1704    1.7576 H       1  UNL1        0.0476
     56 H          -1.4643    3.5327   -0.0076 H       1  UNL1        0.0476
     57 H          -0.1457    2.2783   -1.4539 H       1  UNL1        0.0621
     58 H           1.9586    0.9481   -1.7134 H       1  UNL1        0.0624
     59 H           3.7552   -4.2688    0.9112 H       1  UNL1        0.0640
     60 H           5.8808   -5.4523    0.6345 H       1  UNL1        0.0625
     61 H           9.5252   -2.9445   -0.8184 H       1  UNL1        0.1923
     62 H           7.7028   -1.8550   -0.6001 H       1  UNL1        0.0646
     63 H           3.8210    2.2888    1.4527 H       1  UNL1        0.0624
     64 H           3.6455    4.7428    0.9753 H       1  UNL1        0.0618
     65 H           4.0555    5.5950   -1.2960 H       1  UNL1        0.0618
     66 H           4.6305    4.0227   -3.0590 H       1  UNL1        0.0618
     67 H           4.8064    1.5622   -2.5755 H       1  UNL1        0.0624
     68 H           1.9137    0.0563    2.3972 H       1  UNL1        0.0624
     69 H          -0.1976    1.3831    2.6869 H       1  UNL1        0.0621
     70 H          -2.3691    0.8488   -1.2379 H       1  UNL1        0.0427
     71 H          -2.8328    2.5546   -1.4493 H       1  UNL1        0.0427
     72 H          -5.0005    2.1680   -1.4923 H       1  UNL1        0.0298
     73 H          -4.5619    0.4541   -1.7104 H       1  UNL1        0.0298
@<TRIPOS>BOND
     1     1     2    2
     2     2     3   ar
     3     3     4   ar
     4     4     5   ar
     5     5     6   ar
     6     6     7   ar
     7     7     8   ar
     8     8     9   ar
     9     9    10   ar
    10    10    11    1
    11    11    12    1
    12    12    13    1
    13    13    14    1
    14    14    15    1
    15    15    16    1
    16    16    17   ar
    17    17    18   ar
    18    18    19   ar
    19    19    20    1
    20    20    21   ar
    21    21    22   ar
    22    22    23   ar
    23    23    24   ar
    24    24    25   ar
    25    25    26    1
    26    26    27   ar
    27    27    28   ar
    28    28    29   ar
    29    29    30   ar
    30    25    31   ar
    31    31    32   ar
    32    32    33   ar
    33    33    34   ar
    34    34    35    1
    35    35    36   ar
    36    36    37   ar
    37    37    38   ar
    38    38    39   ar
    39    39    40   ar
    40    19    41   ar
    41    41    42   ar
    42    14    43    1
    43    43    44    1
    44    10     2   ar
    45    44    11    1
    46     9     4   ar
    47    42    16   ar
    48    34    20   ar
    49    40    35   ar
    50    32    22   ar
    51    30    26   ar
    52     3    45    1
    53     5    46    1
    54     6    47    1
    55     7    48    1
    56     8    49    1
    57    11    50    1
    58    12    51    1
    59    12    52    1
    60    13    53    1
    61    13    54    1
    62    15    55    1
    63    15    56    1
    64    17    57    1
    65    18    58    1
    66    23    59    1
    67    24    60    1
    68    30    61    1
    69    31    62    1
    70    36    63    1
    71    37    64    1
    72    38    65    1
    73    39    66    1
    74    40    67    1
    75    41    68    1
    76    42    69    1
    77    43    70    1
    78    43    71    1
    79    44    72    1
    80    44    73    1
