@<TRIPOS>MOLECULE
*****
 58 62 0 0 0
SMALL
GASTEIGER

@<TRIPOS>ATOM
      1 C          -4.8588    0.7258    1.3657 C.3     1  UNL1        0.0255
      2 C          -3.8217    1.7710    1.2496 C.3     1  UNL1       -0.0386
      3 C          -3.4637    0.3078    1.4918 C.3     1  UNL1       -0.0208
      4 C          -2.8298   -0.3898    0.3421 C.3     1  UNL1        0.0013
      5 C          -2.8590   -1.8931    0.5990 C.3     1  UNL1       -0.0549
      6 C          -3.5033   -0.1615   -0.9486 C.2     1  UNL1       -0.0196
      7 C          -4.7684    0.1536   -1.0792 C.2     1  UNL1       -0.0138
      8 C          -5.5651    0.2872    0.1428 C.2     1  UNL1        0.1598
      9 O          -6.8130    0.0268    0.1131 O.2     1  UNL1       -0.2924
     10 C          -2.7447   -0.2843   -2.2067 C.2     1  UNL1        0.0412
     11 CL         -3.4639   -0.1214   -3.7863 Cl      1  UNL1       -0.0836
     12 C          -1.4597   -0.5282   -2.1657 C.2     1  UNL1       -0.0617
     13 C          -0.6902   -0.6942   -0.9084 C.3     1  UNL1       -0.0141
     14 C           0.6602   -0.0983   -1.0000 C.3     1  UNL1       -0.0248
     15 C           1.5735   -0.6379   -2.0554 C.3     1  UNL1       -0.0450
     16 C           2.8748    0.0446   -1.6028 C.3     1  UNL1       -0.0049
     17 C           2.8052    0.0959   -0.0923 C.3     1  UNL1        0.1759
     18 O           2.8583    1.4072    0.4307 O.3     1  UNL1       -0.4500
     19 C           3.9600    2.2000    0.1651 C.2     1  UNL1        0.3049
     20 C           4.1388    3.6046    0.6606 C.3     1  UNL1        0.0333
     21 O           4.9596    1.8495   -0.5272 O.2     1  UNL1       -0.2511
     22 C           3.7800   -0.8069    0.5134 C.2     1  UNL1        0.1741
     23 C           4.5948   -1.9963    0.8512 C.3     1  UNL1       -0.0020
     24 O           4.1816    0.0991    1.2538 O.2     1  UNL1       -0.2934
     25 C           1.4182   -0.4122    0.2704 C.3     1  UNL1        0.0182
     26 C           1.4283   -1.8750    0.5981 C.3     1  UNL1       -0.0552
     27 C           0.7677    0.3878    1.3551 C.3     1  UNL1       -0.0430
     28 C          -0.6707    0.0434    1.4950 C.3     1  UNL1       -0.0482
     29 C          -1.4086    0.0582    0.2006 C.3     1  UNL1       -0.0247
     30 H          -5.4816    0.7334    2.2744 H       1  UNL1        0.0384
     31 H          -3.5464    2.2052    0.2831 H       1  UNL1        0.0275
     32 H          -3.6358    2.4252    2.1144 H       1  UNL1        0.0275
     33 H          -3.0993    0.0160    2.4863 H       1  UNL1        0.0316
     34 H          -2.4800   -2.4651   -0.2691 H       1  UNL1        0.0238
     35 H          -3.9389   -2.1569    0.6831 H       1  UNL1        0.0238
     36 H          -2.3401   -2.1649    1.5377 H       1  UNL1        0.0238
     37 H          -5.2462    0.3183   -2.0560 H       1  UNL1        0.0656
     38 H          -0.8164   -0.6360   -3.0491 H       1  UNL1        0.0589
     39 H          -0.6016   -1.7678   -0.6582 H       1  UNL1        0.0349
     40 H           0.6401    1.0012   -1.1190 H       1  UNL1        0.0313
     41 H           1.6573   -1.7227   -2.1096 H       1  UNL1        0.0270
     42 H           1.2423   -0.2863   -3.0448 H       1  UNL1        0.0270
     43 H           2.8153    1.0645   -2.0697 H       1  UNL1        0.0308
     44 H           3.7194   -0.5600   -1.9875 H       1  UNL1        0.0308
     45 H           4.9960    3.6433    1.3401 H       1  UNL1        0.0342
     46 H           3.2137    3.9299    1.1860 H       1  UNL1        0.0342
     47 H           4.2516    4.3139   -0.1991 H       1  UNL1        0.0342
     48 H           5.6793   -1.8181    0.6367 H       1  UNL1        0.0307
     49 H           4.5251   -2.2353    1.9315 H       1  UNL1        0.0307
     50 H           4.2329   -2.9139    0.3205 H       1  UNL1        0.0307
     51 H           1.7058   -2.5211   -0.2326 H       1  UNL1        0.0237
     52 H           2.1955   -2.0525    1.3912 H       1  UNL1        0.0237
     53 H           0.4741   -2.2057    1.0181 H       1  UNL1        0.0237
     54 H           1.2861    0.1742    2.3144 H       1  UNL1        0.0272
     55 H           0.8785    1.4598    1.1010 H       1  UNL1        0.0272
     56 H          -1.1246    0.8313    2.1466 H       1  UNL1        0.0269
     57 H          -0.8274   -0.9097    2.0692 H       1  UNL1        0.0269
     58 H          -1.4550    1.1361   -0.1287 H       1  UNL1        0.0315
@<TRIPOS>BOND
     1     1     2    1
     2     2     3    1
     3     3     4    1
     4     4     5    1
     5     4     6    1
     6     6     7    2
     7     7     8    1
     8     8     9    2
     9     6    10    1
    10    10    11    1
    11    10    12    2
    12    12    13    1
    13    13    14    1
    14    14    15    1
    15    15    16    1
    16    16    17    1
    17    17    18    1
    18    18    19    1
    19    19    20    1
    20    19    21    2
    21    17    22    1
    22    22    23    1
    23    22    24    2
    24    17    25    1
    25    25    26    1
    26    25    27    1
    27    27    28    1
    28    28    29    1
    29     3     1    1
    30    29     4    1
    31     8     1    1
    32    29    13    1
    33    25    14    1
    34     1    30    1
    35     2    31    1
    36     2    32    1
    37     3    33    1
    38     5    34    1
    39     5    35    1
    40     5    36    1
    41     7    37    1
    42    12    38    1
    43    13    39    1
    44    14    40    1
    45    15    41    1
    46    15    42    1
    47    16    43    1
    48    16    44    1
    49    20    45    1
    50    20    46    1
    51    20    47    1
    52    23    48    1
    53    23    49    1
    54    23    50    1
    55    26    51    1
    56    26    52    1
    57    26    53    1
    58    27    54    1
    59    27    55    1
    60    28    56    1
    61    28    57    1
    62    29    58    1
