@<TRIPOS>MOLECULE
*****
 56 58 0 0 0
SMALL
GASTEIGER

@<TRIPOS>ATOM
      1 C           1.0316   -4.2398   -0.3385 C.2     1  UNL1       -0.0951
      2 C           1.2224   -3.2302   -1.1133 C.2     1  UNL1       -0.0472
      3 C           0.7898   -3.3405   -2.5439 C.3     1  UNL1       -0.0396
      4 C           1.7363   -1.9565   -0.6754 C.ar    1  UNL1        0.0166
      5 C           2.4188   -1.1709   -1.6492 C.ar    1  UNL1        0.0374
      6 N           2.9201    0.0107   -1.3818 N.ar    1  UNL1       -0.2542
      7 C           2.8351    0.6002   -0.1435 C.ar    1  UNL1        0.0755
      8 C           3.4400    1.9178    0.0179 C.ar    1  UNL1        0.0369
      9 C           4.0740    2.5207   -1.0780 C.ar    1  UNL1       -0.0314
     10 C           4.6619    3.7597   -0.9884 C.ar    1  UNL1        0.0418
     11 CL          5.4396    4.4720   -2.3769 Cl      1  UNL1       -0.0835
     12 C           4.6484    4.4576    0.1907 C.ar    1  UNL1       -0.0406
     13 C           4.0421    3.8959    1.2629 C.ar    1  UNL1       -0.0244
     14 C           3.4353    2.6159    1.1685 C.ar    1  UNL1        0.1326
     15 F           2.8492    2.1226    2.2858 F       1  UNL1       -0.2048
     16 C           2.2015   -0.0894    0.8113 C.ar    1  UNL1       -0.0138
     17 C           1.6367   -1.3876    0.5507 C.ar    1  UNL1        0.0423
     18 N           0.9000   -1.9147    1.6218 N.pl3   1  UNL1       -0.3133
     19 C          -0.3847   -2.4042    1.8491 C.ar    1  UNL1        0.0465
     20 C          -0.4805   -3.6769    2.5071 C.ar    1  UNL1       -0.0217
     21 C          -1.7086   -4.1791    2.7638 C.ar    1  UNL1        0.0293
     22 N          -2.8337   -3.5262    2.4237 N.ar    1  UNL1       -0.2624
     23 C          -2.7713   -2.3318    1.8058 C.ar    1  UNL1        0.0415
     24 C          -1.5253   -1.7408    1.5027 C.ar    1  UNL1        0.0758
     25 C          -1.5745   -0.4749    0.7852 C.2     1  UNL1        0.2476
     26 O          -0.6012    0.0709    0.2180 O.2     1  UNL1       -0.2701
     27 N          -2.7931    0.2915    0.6635 N.am    1  UNL1       -0.3062
     28 CA         -2.8121    1.5535   -0.0648 C.3     1  UNL1        0.0462
     29 C          -3.7413    1.3624   -1.2470 C.3     1  UNL1       -0.0352
     30 C          -3.8747    2.5758   -2.1069 C.3     1  UNL1       -0.0635
     31 C          -3.2477    2.7062    0.8038 C.3     1  UNL1        0.0626
     32 O          -4.5204    2.5346    1.3173 O.3     1  UNL1       -0.3932
     33 H           0.5633   -5.1607   -0.6824 H       1  UNL1        0.0538
     34 H           1.4261   -4.1626    0.6740 H       1  UNL1        0.0538
     35 H           0.1448   -2.4855   -2.8326 H       1  UNL1        0.0278
     36 H           0.2146   -4.2746   -2.6540 H       1  UNL1        0.0278
     37 H           1.6939   -3.4199   -3.1799 H       1  UNL1        0.0278
     38 H           2.4937   -1.6289   -2.6400 H       1  UNL1        0.0836
     39 H           4.0930    1.9799   -2.0197 H       1  UNL1        0.0639
     40 H           5.1013    5.4436    0.3108 H       1  UNL1        0.0633
     41 H           3.9994    4.3925    2.2101 H       1  UNL1        0.0647
     42 H           2.0745    0.2696    1.8161 H       1  UNL1        0.0658
     43 H           1.5259   -1.9509    2.5581 H       1  UNL1        0.1522
     44 H           0.4383   -4.1720    2.7783 H       1  UNL1        0.0651
     45 H          -1.8426   -5.1364    3.2585 H       1  UNL1        0.0830
     46 H          -3.6831   -1.8166    1.5243 H       1  UNL1        0.0838
     47 H          -3.6436   -0.0590    1.1074 H       1  UNL1        0.1494
     48 HA         -1.8161    1.8082   -0.4787 H       1  UNL1        0.0521
     49 H          -3.4290    0.5197   -1.8852 H       1  UNL1        0.0281
     50 H          -4.7760    1.0907   -0.8859 H       1  UNL1        0.0281
     51 H          -4.8352    2.4537   -2.6891 H       1  UNL1        0.0230
     52 H          -3.0860    2.6461   -2.8873 H       1  UNL1        0.0230
     53 H          -3.9917    3.5212   -1.5563 H       1  UNL1        0.0230
     54 H1         -2.5353    2.7106    1.6805 H       1  UNL1        0.0575
     55 H2         -3.0867    3.6397    0.2657 H       1  UNL1        0.0575
     56 H          -4.4573    1.9870    2.1230 H       1  UNL1        0.2095
@<TRIPOS>BOND
     1     1     2    2
     2     2     3    1
     3     2     4    1
     4     4     5   ar
     5     5     6   ar
     6     6     7   ar
     7     7     8    1
     8     8     9   ar
     9     9    10   ar
    10    10    11    1
    11    10    12   ar
    12    12    13   ar
    13    13    14   ar
    14    14    15    1
    15     7    16   ar
    16    16    17   ar
    17    17    18    1
    18    18    19    1
    19    19    20   ar
    20    20    21   ar
    21    21    22   ar
    22    22    23   ar
    23    23    24   ar
    24    24    25    1
    25    25    26    2
    26    25    27   am
    27    27    28    1
    28    28    29    1
    29    29    30    1
    30    28    31    1
    31    31    32    1
    32    17     4   ar
    33    24    19   ar
    34    14     8   ar
    35     1    33    1
    36     1    34    1
    37     3    35    1
    38     3    36    1
    39     3    37    1
    40     5    38    1
    41     9    39    1
    42    12    40    1
    43    13    41    1
    44    16    42    1
    45    18    43    1
    46    20    44    1
    47    21    45    1
    48    23    46    1
    49    27    47    1
    50    28    48    1
    51    29    49    1
    52    29    50    1
    53    30    51    1
    54    30    52    1
    55    30    53    1
    56    31    54    1
    57    31    55    1
    58    32    56    1
