
     RDKit          3D

 56 58  0  0  0  0  0  0  0  0999 V2000
    1.0316   -4.2398   -0.3385 C   0  0  0  0  0  0  0  0  0  0  0  0
    1.2224   -3.2302   -1.1133 C   0  0  0  0  0  0  0  0  0  0  0  0
    0.7898   -3.3405   -2.5439 C   0  0  0  0  0  0  0  0  0  0  0  0
    1.7363   -1.9565   -0.6754 C   0  0  0  0  0  0  0  0  0  0  0  0
    2.4188   -1.1709   -1.6492 C   0  0  0  0  0  0  0  0  0  0  0  0
    2.9201    0.0107   -1.3818 N   0  0  0  0  0  0  0  0  0  0  0  0
    2.8351    0.6002   -0.1435 C   0  0  0  0  0  0  0  0  0  0  0  0
    3.4400    1.9178    0.0179 C   0  0  0  0  0  0  0  0  0  0  0  0
    4.0740    2.5207   -1.0780 C   0  0  0  0  0  0  0  0  0  0  0  0
    4.6619    3.7597   -0.9884 C   0  0  0  0  0  0  0  0  0  0  0  0
    5.4396    4.4720   -2.3769 Cl  0  0  0  0  0  0  0  0  0  0  0  0
    4.6484    4.4576    0.1907 C   0  0  0  0  0  0  0  0  0  0  0  0
    4.0421    3.8959    1.2629 C   0  0  0  0  0  0  0  0  0  0  0  0
    3.4353    2.6159    1.1685 C   0  0  0  0  0  0  0  0  0  0  0  0
    2.8492    2.1226    2.2858 F   0  0  0  0  0  0  0  0  0  0  0  0
    2.2015   -0.0894    0.8113 C   0  0  0  0  0  0  0  0  0  0  0  0
    1.6367   -1.3876    0.5507 C   0  0  0  0  0  0  0  0  0  0  0  0
    0.9000   -1.9147    1.6218 N   0  0  0  0  0  0  0  0  0  0  0  0
   -0.3847   -2.4042    1.8491 C   0  0  0  0  0  0  0  0  0  0  0  0
   -0.4805   -3.6769    2.5071 C   0  0  0  0  0  0  0  0  0  0  0  0
   -1.7086   -4.1791    2.7638 C   0  0  0  0  0  0  0  0  0  0  0  0
   -2.8337   -3.5262    2.4237 N   0  0  0  0  0  0  0  0  0  0  0  0
   -2.7713   -2.3318    1.8058 C   0  0  0  0  0  0  0  0  0  0  0  0
   -1.5253   -1.7408    1.5027 C   0  0  0  0  0  0  0  0  0  0  0  0
   -1.5745   -0.4749    0.7852 C   0  0  0  0  0  0  0  0  0  0  0  0
   -0.6012    0.0709    0.2180 O   0  0  0  0  0  0  0  0  0  0  0  0
   -2.7931    0.2915    0.6635 N   0  0  0  0  0  0  0  0  0  0  0  0
   -2.8121    1.5535   -0.0648 C   0  0  1  0  0  0  0  0  0  0  0  0
   -3.7413    1.3624   -1.2470 C   0  0  0  0  0  0  0  0  0  0  0  0
   -3.8747    2.5758   -2.1069 C   0  0  0  0  0  0  0  0  0  0  0  0
   -3.2477    2.7062    0.8038 C   0  0  0  0  0  0  0  0  0  0  0  0
   -4.5204    2.5346    1.3173 O   0  0  0  0  0  0  0  0  0  0  0  0
    0.5633   -5.1607   -0.6824 H   0  0  0  0  0  0  0  0  0  0  0  0
    1.4261   -4.1626    0.6740 H   0  0  0  0  0  0  0  0  0  0  0  0
    0.1448   -2.4855   -2.8326 H   0  0  0  0  0  0  0  0  0  0  0  0
    0.2146   -4.2746   -2.6540 H   0  0  0  0  0  0  0  0  0  0  0  0
    1.6939   -3.4199   -3.1799 H   0  0  0  0  0  0  0  0  0  0  0  0
    2.4937   -1.6289   -2.6400 H   0  0  0  0  0  0  0  0  0  0  0  0
    4.0930    1.9799   -2.0197 H   0  0  0  0  0  0  0  0  0  0  0  0
    5.1013    5.4436    0.3108 H   0  0  0  0  0  0  0  0  0  0  0  0
    3.9994    4.3925    2.2101 H   0  0  0  0  0  0  0  0  0  0  0  0
    2.0745    0.2696    1.8161 H   0  0  0  0  0  0  0  0  0  0  0  0
    1.5259   -1.9509    2.5581 H   0  0  0  0  0  0  0  0  0  0  0  0
    0.4383   -4.1720    2.7783 H   0  0  0  0  0  0  0  0  0  0  0  0
   -1.8426   -5.1364    3.2585 H   0  0  0  0  0  0  0  0  0  0  0  0
   -3.6831   -1.8166    1.5243 H   0  0  0  0  0  0  0  0  0  0  0  0
   -3.6436   -0.0590    1.1074 H   0  0  0  0  0  0  0  0  0  0  0  0
   -1.8161    1.8082   -0.4787 H   0  0  0  0  0  0  0  0  0  0  0  0
   -3.4290    0.5197   -1.8852 H   0  0  0  0  0  0  0  0  0  0  0  0
   -4.7760    1.0907   -0.8859 H   0  0  0  0  0  0  0  0  0  0  0  0
   -4.8352    2.4537   -2.6891 H   0  0  0  0  0  0  0  0  0  0  0  0
   -3.0860    2.6461   -2.8873 H   0  0  0  0  0  0  0  0  0  0  0  0
   -3.9917    3.5212   -1.5563 H   0  0  0  0  0  0  0  0  0  0  0  0
   -2.5353    2.7106    1.6805 H   0  0  0  0  0  0  0  0  0  0  0  0
   -3.0867    3.6397    0.2657 H   0  0  0  0  0  0  0  0  0  0  0  0
   -4.4573    1.9870    2.1230 H   0  0  0  0  0  0  0  0  0  0  0  0
  1  2  2  3
  2  3  1  0
  2  4  1  0
  4  5  2  0
  5  6  1  0
  6  7  2  0
  7  8  1  0
  8  9  2  0
  9 10  1  0
 10 11  1  0
 10 12  2  0
 12 13  1  0
 13 14  2  0
 14 15  1  0
  7 16  1  0
 16 17  2  0
 17 18  1  0
 18 19  1  0
 19 20  2  0
 20 21  1  0
 21 22  2  0
 22 23  1  0
 23 24  2  0
 24 25  1  0
 25 26  2  0
 25 27  1  0
 27 28  1  0
 28 29  1  0
 29 30  1  0
 28 31  1  0
 31 32  1  0
 17  4  1  0
 24 19  1  0
 14  8  1  0
  1 33  1  0
  1 34  1  0
  3 35  1  0
  3 36  1  0
  3 37  1  0
  5 38  1  0
  9 39  1  0
 12 40  1  0
 13 41  1  0
 16 42  1  0
 18 43  1  0
 20 44  1  0
 21 45  1  0
 23 46  1  0
 27 47  1  0
 28 48  1  6
 29 49  1  0
 29 50  1  0
 30 51  1  0
 30 52  1  0
 30 53  1  0
 31 54  1  0
 31 55  1  0
 32 56  1  0
M  END
$$$$
