
     RDKit          3D

 45 48  0  0  0  0  0  0  0  0999 V2000
    6.6195   -2.7607    0.6717 N   0  0  0  0  0  0  0  0  0  0  0  0
    5.1976   -3.4220   -0.0391 S   0  0  0  0  0  6  0  0  0  0  0  0
    4.6807   -4.5466    0.8282 O   0  0  0  0  0  0  0  0  0  0  0  0
    5.5645   -3.9259   -1.4069 O   0  0  0  0  0  0  0  0  0  0  0  0
    4.0009   -2.1531   -0.1841 C   0  0  0  0  0  0  0  0  0  0  0  0
    3.1217   -1.9290    0.8398 C   0  0  0  0  0  0  0  0  0  0  0  0
    2.1523   -0.9277    0.7644 C   0  0  0  0  0  0  0  0  0  0  0  0
    2.0320   -0.1229   -0.3338 C   0  0  0  0  0  0  0  0  0  0  0  0
    1.0481    0.8927   -0.4622 N   0  0  0  0  0  0  0  0  0  0  0  0
   -0.2875    0.7467   -0.0232 C   0  0  0  0  0  0  0  0  0  0  0  0
   -0.9408   -0.3108    0.5189 C   0  0  0  0  0  0  0  0  0  0  0  0
   -2.2303    0.0627    0.7824 N   0  0  0  0  0  0  0  0  0  0  0  0
   -3.2455   -0.7548    1.3541 C   0  0  0  0  0  0  0  0  0  0  0  0
   -3.9140   -1.7976    1.0911 N   0  0  0  0  0  0  0  0  0  0  0  0
   -4.8035   -2.3576    1.7902 C   0  0  0  0  0  0  0  0  0  0  0  0
   -5.5338   -3.5984    1.3750 C   0  0  0  0  0  0  0  0  0  0  0  0
   -5.2854   -4.1432    0.2919 O   0  0  0  0  0  0  0  0  0  0  0  0
   -6.4886   -4.1425    2.1975 O   0  0  0  0  0  0  0  0  0  0  0  0
   -5.1298   -1.7724    3.0488 C   0  0  0  0  0  0  0  0  0  0  0  0
   -3.9982   -0.3763    3.0260 S   0  0  0  0  0  0  0  0  0  0  0  0
   -2.3529    1.3391    0.4004 N   0  0  0  0  0  0  0  0  0  0  0  0
   -1.1982    1.8013   -0.0964 C   0  0  0  0  0  0  0  0  0  0  0  0
   -1.0143    3.1557   -0.6017 C   0  0  0  0  0  0  0  0  0  0  0  0
   -1.9426    3.7233   -1.4878 C   0  0  0  0  0  0  0  0  0  0  0  0
   -1.8441    4.9797   -1.9907 C   0  0  0  0  0  0  0  0  0  0  0  0
   -0.7889    5.7720   -1.6354 C   0  0  0  0  0  0  0  0  0  0  0  0
    0.1531    5.2614   -0.7657 C   0  0  0  0  0  0  0  0  0  0  0  0
    0.0346    3.9695   -0.2600 C   0  0  0  0  0  0  0  0  0  0  0  0
    2.9428   -0.3713   -1.3675 C   0  0  0  0  0  0  0  0  0  0  0  0
    3.8963   -1.3544   -1.2951 C   0  0  0  0  0  0  0  0  0  0  0  0
    6.4205   -1.9421    1.2889 H   0  0  0  0  0  0  0  0  0  0  0  0
    7.3334   -2.5784   -0.0437 H   0  0  0  0  0  0  0  0  0  0  0  0
    3.1906   -2.5537    1.7292 H   0  0  0  0  0  0  0  0  0  0  0  0
    1.5139   -0.8057    1.6155 H   0  0  0  0  0  0  0  0  0  0  0  0
    1.3903    1.7884   -0.9272 H   0  0  0  0  0  0  0  0  0  0  0  0
   -0.5475   -1.2919    0.7117 H   0  0  0  0  0  0  0  0  0  0  0  0
   -7.0059   -4.9660    1.8591 H   0  0  0  0  0  0  0  0  0  0  0  0
   -5.7992   -2.0413    3.7681 H   0  0  0  0  0  0  0  0  0  0  0  0
   -2.7785    3.0820   -1.7630 H   0  0  0  0  0  0  0  0  0  0  0  0
   -2.6293    5.3120   -2.6730 H   0  0  0  0  0  0  0  0  0  0  0  0
   -0.7355    6.7648   -2.0496 H   0  0  0  0  0  0  0  0  0  0  0  0
    0.9806    5.9149   -0.5016 H   0  0  0  0  0  0  0  0  0  0  0  0
    0.7863    3.6328    0.4112 H   0  0  0  0  0  0  0  0  0  0  0  0
    2.8605    0.2576   -2.2422 H   0  0  0  0  0  0  0  0  0  0  0  0
    4.5742   -1.5105   -2.1107 H   0  0  0  0  0  0  0  0  0  0  0  0
  1  2  1  0
  2  3  2  0
  2  4  2  0
  2  5  1  0
  5  6  2  0
  6  7  1  0
  7  8  2  0
  8  9  1  0
  9 10  1  0
 10 11  2  0
 11 12  1  0
 12 13  1  0
 13 14  2  0
 14 15  1  0
 15 16  1  0
 16 17  2  0
 16 18  1  0
 15 19  2  0
 19 20  1  0
 12 21  1  0
 21 22  2  0
 22 23  1  0
 23 24  2  0
 24 25  1  0
 25 26  2  0
 26 27  1  0
 27 28  2  0
  8 29  1  0
 29 30  2  0
 30  5  1  0
 22 10  1  0
 28 23  1  0
 20 13  1  0
  1 31  1  0
  1 32  1  0
  6 33  1  0
  7 34  1  0
  9 35  1  0
 11 36  1  0
 18 37  1  0
 19 38  1  0
 24 39  1  0
 25 40  1  0
 26 41  1  0
 27 42  1  0
 28 43  1  0
 29 44  1  0
 30 45  1  0
M  END
$$$$
