@<TRIPOS>MOLECULE
*****
 45 48 0 0 0
SMALL
GASTEIGER

@<TRIPOS>ATOM
      1 N1          6.6195   -2.7607    0.6717 N.3     1  <1>        -0.2035
      2 S1          5.1976   -3.4220   -0.0391 S.O2    1  <1>         0.0559
      3 O1          4.6807   -4.5466    0.8282 O.2     1  <1>        -0.1533
      4 O2          5.5645   -3.9259   -1.4069 O.2     1  <1>        -0.1533
      5 C1          4.0009   -2.1531   -0.1841 C.ar    1  <1>         0.1051
      6 C2          3.1217   -1.9290    0.8398 C.ar    1  <1>        -0.0336
      7 C3          2.1523   -0.9277    0.7644 C.ar    1  <1>        -0.0387
      8 C4          2.0320   -0.1229   -0.3338 C.ar    1  <1>         0.0315
      9 N2          1.0481    0.8927   -0.4622 N.pl3   1  <1>        -0.3116
     10 C5         -0.2875    0.7467   -0.0232 C.ar    1  <1>         0.0778
     11 C6         -0.9408   -0.3108    0.5189 C.ar    1  <1>         0.0552
     12 N3         -2.2303    0.0627    0.7824 N.ar    1  <1>        -0.2134
     13 C7         -3.2455   -0.7548    1.3541 C.ar    1  <1>         0.1945
     14 N4         -3.9140   -1.7976    1.0911 N.ar    1  <1>        -0.2145
     15 C8         -4.8035   -2.3576    1.7902 C.ar    1  <1>         0.1568
     16 C9         -5.5338   -3.5984    1.3750 C.2     1  <1>         0.3559
     17 O3         -5.2854   -4.1432    0.2919 O.2     1  <1>        -0.2434
     18 O4         -6.4886   -4.1425    2.1975 O.3     1  <1>        -0.4761
     19 C10        -5.1298   -1.7724    3.0488 C.ar    1  <1>         0.0116
     20 S2         -3.9982   -0.3763    3.0260 S.2     1  <1>        -0.0554
     21 N5         -2.3529    1.3391    0.4004 N.ar    1  <1>        -0.1627
     22 C11        -1.1982    1.8013   -0.0964 C.ar    1  <1>         0.1143
     23 C12        -1.0143    3.1557   -0.6017 C.ar    1  <1>         0.0039
     24 C13        -1.9426    3.7233   -1.4878 C.ar    1  <1>        -0.0524
     25 C14        -1.8441    4.9797   -1.9907 C.ar    1  <1>        -0.0611
     26 C15        -0.7889    5.7720   -1.6354 C.ar    1  <1>        -0.0617
     27 C16         0.1531    5.2614   -0.7657 C.ar    1  <1>        -0.0611
     28 C17         0.0346    3.9695   -0.2600 C.ar    1  <1>        -0.0524
     29 C18         2.9428   -0.3713   -1.3675 C.ar    1  <1>        -0.0387
     30 C19         3.8963   -1.3544   -1.2951 C.ar    1  <1>        -0.0336
     31 H1          6.4205   -1.9421    1.2889 H       1  <1>         0.1442
     32 H2          7.3334   -2.5784   -0.0437 H       1  <1>         0.1442
     33 H3          3.1906   -2.5537    1.7292 H       1  <1>         0.0638
     34 H4          1.5139   -0.8057    1.6155 H       1  <1>         0.0637
     35 H5          1.3903    1.7884   -0.9272 H       1  <1>         0.1523
     36 H6         -0.5475   -1.2919    0.7117 H       1  <1>         0.0850
     37 H7         -7.0059   -4.9660    1.8591 H       1  <1>         0.2955
     38 H8         -5.7992   -2.0413    3.7681 H       1  <1>         0.0718
     39 H9         -2.7785    3.0820   -1.7630 H       1  <1>         0.0624
     40 H10        -2.6293    5.3120   -2.6730 H       1  <1>         0.0618
     41 H11        -0.7355    6.7648   -2.0496 H       1  <1>         0.0618
     42 H12         0.9806    5.9149   -0.5016 H       1  <1>         0.0618
     43 H13         0.7863    3.6328    0.4112 H       1  <1>         0.0624
     44 H14         2.8605    0.2576   -2.2422 H       1  <1>         0.0637
     45 H15         4.5742   -1.5105   -2.1107 H       1  <1>         0.0638
@<TRIPOS>BOND
     1     1     2    1
     2     2     3    2
     3     2     4    2
     4     2     5    1
     5     5     6   ar
     6     6     7   ar
     7     7     8   ar
     8     8     9    1
     9     9    10    1
    10    10    11   ar
    11    11    12   ar
    12    12    13    1
    13    13    14   ar
    14    14    15   ar
    15    15    16    1
    16    16    17    2
    17    16    18    1
    18    15    19   ar
    19    19    20   ar
    20    12    21   ar
    21    21    22   ar
    22    22    23    1
    23    23    24   ar
    24    24    25   ar
    25    25    26   ar
    26    26    27   ar
    27    27    28   ar
    28     8    29   ar
    29    29    30   ar
    30    30     5   ar
    31    22    10   ar
    32    28    23   ar
    33    20    13   ar
    34     1    31    1
    35     1    32    1
    36     6    33    1
    37     7    34    1
    38     9    35    1
    39    11    36    1
    40    18    37    1
    41    19    38    1
    42    24    39    1
    43    25    40    1
    44    26    41    1
    45    27    42    1
    46    28    43    1
    47    29    44    1
    48    30    45    1
