
     RDKit          3D

 52 55  0  0  0  0  0  0  0  0999 V2000
    8.0249    1.2455   -0.1718 C   0  0  0  0  0  0  0  0  0  0  0  0
    6.5768    0.9351    0.0839 C   0  0  0  0  0  0  0  0  0  0  0  0
    5.8840   -0.1144   -0.4491 C   0  0  0  0  0  0  0  0  0  0  0  0
    4.5609   -0.0848    0.0122 C   0  0  0  0  0  0  0  0  0  0  0  0
    3.5589   -1.0580   -0.3626 C   0  0  0  0  0  0  0  0  0  0  0  0
    3.9016   -2.0006   -1.1639 O   0  0  0  0  0  0  0  0  0  0  0  0
    2.2221   -1.1169    0.0407 N   0  0  0  0  0  0  0  0  0  0  0  0
    1.2825   -2.1277   -0.3823 C   0  0  0  0  0  0  0  0  0  0  0  0
    0.6601   -2.8806    0.7636 C   0  0  0  0  0  0  0  0  0  0  0  0
   -0.0343   -1.9924    1.7451 C   0  0  0  0  0  0  0  0  0  0  0  0
   -0.8345   -0.8931    1.1404 C   0  0  0  0  0  0  0  0  0  0  0  0
   -0.8319   -0.8925   -0.3407 C   0  0  0  0  0  0  0  0  0  0  0  0
    0.1599   -1.4700   -1.1013 C   0  0  0  0  0  0  0  0  0  0  0  0
   -0.1693   -1.2751   -2.4120 C   0  0  0  0  0  0  0  0  0  0  0  0
   -1.3298   -0.5975   -2.4355 N   0  0  0  0  0  0  0  0  0  0  0  0
   -1.7356   -0.3631   -1.1827 N   0  0  0  0  0  0  0  0  0  0  0  0
   -2.9381    0.3386   -0.8969 C   0  0  0  0  0  0  0  0  0  0  0  0
   -2.9665    1.7119   -0.9678 C   0  0  0  0  0  0  0  0  0  0  0  0
   -4.1321    2.3821   -0.6898 C   0  0  0  0  0  0  0  0  0  0  0  0
   -5.3056    1.7562   -0.3355 C   0  0  0  0  0  0  0  0  0  0  0  0
   -6.5098    2.5483   -0.0537 C   0  0  0  0  0  0  0  0  0  0  0  0
   -5.2758    0.3621   -0.2637 C   0  0  0  0  0  0  0  0  0  0  0  0
   -6.5203   -0.3463    0.1147 C   0  0  0  0  0  0  0  0  0  0  0  0
   -4.1064   -0.3100   -0.5426 C   0  0  0  0  0  0  0  0  0  0  0  0
    4.5196    0.9833    0.8028 N   0  0  0  0  0  0  0  0  0  0  0  0
    3.3735    1.4658    1.5345 C   0  0  0  0  0  0  0  0  0  0  0  0
    5.7120    1.6004    0.8552 N   0  0  0  0  0  0  0  0  0  0  0  0
    8.2642    2.2532    0.1979 H   0  0  0  0  0  0  0  0  0  0  0  0
    8.6293    0.4510    0.2832 H   0  0  0  0  0  0  0  0  0  0  0  0
    8.2149    1.1926   -1.2764 H   0  0  0  0  0  0  0  0  0  0  0  0
    6.3156   -0.8565   -1.1324 H   0  0  0  0  0  0  0  0  0  0  0  0
    1.8635   -0.3945    0.6870 H   0  0  0  0  0  0  0  0  0  0  0  0
    1.7218   -2.8737   -1.0727 H   0  0  0  0  0  0  0  0  0  0  0  0
    1.3410   -3.5532    1.2775 H   0  0  0  0  0  0  0  0  0  0  0  0
   -0.1346   -3.5300    0.2994 H   0  0  0  0  0  0  0  0  0  0  0  0
   -0.7557   -2.6594    2.3070 H   0  0  0  0  0  0  0  0  0  0  0  0
    0.6983   -1.6164    2.4894 H   0  0  0  0  0  0  0  0  0  0  0  0
   -1.8895   -0.8810    1.5324 H   0  0  0  0  0  0  0  0  0  0  0  0
   -0.3893    0.0833    1.4985 H   0  0  0  0  0  0  0  0  0  0  0  0
    0.3734   -1.5901   -3.2825 H   0  0  0  0  0  0  0  0  0  0  0  0
   -2.0458    2.2355   -1.2477 H   0  0  0  0  0  0  0  0  0  0  0  0
   -4.1389    3.4773   -0.7507 H   0  0  0  0  0  0  0  0  0  0  0  0
   -7.1232    2.1493    0.7657 H   0  0  0  0  0  0  0  0  0  0  0  0
   -6.1805    3.5735    0.2755 H   0  0  0  0  0  0  0  0  0  0  0  0
   -7.1006    2.7393   -0.9897 H   0  0  0  0  0  0  0  0  0  0  0  0
   -7.2677   -0.3272   -0.7278 H   0  0  0  0  0  0  0  0  0  0  0  0
   -7.0131    0.0943    0.9914 H   0  0  0  0  0  0  0  0  0  0  0  0
   -6.2789   -1.3979    0.3808 H   0  0  0  0  0  0  0  0  0  0  0  0
   -4.1062   -1.3872   -0.4810 H   0  0  0  0  0  0  0  0  0  0  0  0
    3.0362    0.7757    2.3337 H   0  0  0  0  0  0  0  0  0  0  0  0
    2.5573    1.8283    0.8688 H   0  0  0  0  0  0  0  0  0  0  0  0
    3.6617    2.4073    2.1034 H   0  0  0  0  0  0  0  0  0  0  0  0
  1  2  1  0
  2  3  1  0
  3  4  2  0
  4  5  1  0
  5  6  2  0
  5  7  1  0
  7  8  1  0
  8  9  1  0
  9 10  1  0
 10 11  1  0
 11 12  1  0
 12 13  2  0
 13 14  1  0
 14 15  2  0
 15 16  1  0
 16 17  1  0
 17 18  2  0
 18 19  1  0
 19 20  2  0
 20 21  1  0
 20 22  1  0
 22 23  1  0
 22 24  2  0
  4 25  1  0
 25 26  1  0
 25 27  1  0
 27  2  2  0
 13  8  1  0
 24 17  1  0
 16 12  1  0
  1 28  1  0
  1 29  1  0
  1 30  1  0
  3 31  1  0
  7 32  1  0
  8 33  1  0
  9 34  1  0
  9 35  1  0
 10 36  1  0
 10 37  1  0
 11 38  1  0
 11 39  1  0
 14 40  1  0
 18 41  1  0
 19 42  1  0
 21 43  1  0
 21 44  1  0
 21 45  1  0
 23 46  1  0
 23 47  1  0
 23 48  1  0
 24 49  1  0
 26 50  1  0
 26 51  1  0
 26 52  1  0
M  END
$$$$
