@<TRIPOS>MOLECULE
*****
 52 55 0 0 0
SMALL
GASTEIGER

@<TRIPOS>ATOM
      1 C           8.0249    1.2455   -0.1718 C.3     1  UNL1       -0.0206
      2 C           6.5768    0.9351    0.0839 C.ar    1  UNL1        0.0607
      3 C           5.8840   -0.1144   -0.4491 C.ar    1  UNL1       -0.0089
      4 C           4.5609   -0.0848    0.0122 C.ar    1  UNL1        0.1232
      5 C           3.5589   -1.0580   -0.3626 C.2     1  UNL1        0.2625
      6 O           3.9016   -2.0006   -1.1639 O.2     1  UNL1       -0.2685
      7 N           2.2221   -1.1169    0.0407 N.am    1  UNL1       -0.3032
      8 C           1.2825   -2.1277   -0.3823 C.3     1  UNL1        0.0519
      9 C           0.6601   -2.8806    0.7636 C.3     1  UNL1       -0.0299
     10 C          -0.0343   -1.9924    1.7451 C.3     1  UNL1       -0.0456
     11 C          -0.8345   -0.8931    1.1404 C.3     1  UNL1       -0.0099
     12 C          -0.8319   -0.8925   -0.3407 C.ar    1  UNL1        0.0499
     13 C           0.1599   -1.4700   -1.1013 C.ar    1  UNL1        0.0138
     14 C          -0.1693   -1.2751   -2.4120 C.ar    1  UNL1        0.0550
     15 N          -1.3298   -0.5975   -2.4355 N.ar    1  UNL1       -0.1742
     16 N          -1.7356   -0.3631   -1.1827 N.ar    1  UNL1       -0.2364
     17 C          -2.9381    0.3386   -0.8969 C.ar    1  UNL1        0.0659
     18 C          -2.9665    1.7119   -0.9678 C.ar    1  UNL1       -0.0360
     19 C          -4.1321    2.3821   -0.6898 C.ar    1  UNL1       -0.0566
     20 C          -5.3056    1.7562   -0.3355 C.ar    1  UNL1       -0.0474
     21 C          -6.5098    2.5483   -0.0537 C.3     1  UNL1       -0.0395
     22 C          -5.2758    0.3621   -0.2637 C.ar    1  UNL1       -0.0455
     23 C          -6.5203   -0.3463    0.1147 C.3     1  UNL1       -0.0394
     24 C          -4.1064   -0.3100   -0.5426 C.ar    1  UNL1       -0.0331
     25 N           4.5196    0.9833    0.8028 N.ar    1  UNL1       -0.2620
     26 C           3.3735    1.4658    1.5345 C.3     1  UNL1        0.0310
     27 N           5.7120    1.6004    0.8552 N.ar    1  UNL1       -0.1761
     28 H           8.2642    2.2532    0.1979 H       1  UNL1        0.0293
     29 H           8.6293    0.4510    0.2832 H       1  UNL1        0.0293
     30 H           8.2149    1.1926   -1.2764 H       1  UNL1        0.0293
     31 H           6.3156   -0.8565   -1.1324 H       1  UNL1        0.0659
     32 H           1.8635   -0.3945    0.6870 H       1  UNL1        0.1497
     33 H           1.7218   -2.8737   -1.0727 H       1  UNL1        0.0549
     34 H           1.3410   -3.5532    1.2775 H       1  UNL1        0.0286
     35 H          -0.1346   -3.5300    0.2994 H       1  UNL1        0.0286
     36 H          -0.7557   -2.6594    2.3070 H       1  UNL1        0.0270
     37 H           0.6983   -1.6164    2.4894 H       1  UNL1        0.0270
     38 H          -1.8895   -0.8810    1.5324 H       1  UNL1        0.0328
     39 H          -0.3893    0.0833    1.4985 H       1  UNL1        0.0328
     40 H           0.3734   -1.5901   -3.2825 H       1  UNL1        0.0851
     41 H          -2.0458    2.2355   -1.2477 H       1  UNL1        0.0639
     42 H          -4.1389    3.4773   -0.7507 H       1  UNL1        0.0621
     43 H          -7.1232    2.1493    0.7657 H       1  UNL1        0.0278
     44 H          -6.1805    3.5735    0.2755 H       1  UNL1        0.0278
     45 H          -7.1006    2.7393   -0.9897 H       1  UNL1        0.0278
     46 H          -7.2677   -0.3272   -0.7278 H       1  UNL1        0.0278
     47 H          -7.0131    0.0943    0.9914 H       1  UNL1        0.0278
     48 H          -6.2789   -1.3979    0.3808 H       1  UNL1        0.0278
     49 H          -4.1062   -1.3872   -0.4810 H       1  UNL1        0.0641
     50 H           3.0362    0.7757    2.3337 H       1  UNL1        0.0473
     51 H           2.5573    1.8283    0.8688 H       1  UNL1        0.0473
     52 H           3.6617    2.4073    2.1034 H       1  UNL1        0.0473
@<TRIPOS>BOND
     1     1     2    1
     2     2     3   ar
     3     3     4   ar
     4     4     5    1
     5     5     6    2
     6     5     7   am
     7     7     8    1
     8     8     9    1
     9     9    10    1
    10    10    11    1
    11    11    12    1
    12    12    13   ar
    13    13    14   ar
    14    14    15   ar
    15    15    16   ar
    16    16    17    1
    17    17    18   ar
    18    18    19   ar
    19    19    20   ar
    20    20    21    1
    21    20    22   ar
    22    22    23    1
    23    22    24   ar
    24     4    25   ar
    25    25    26    1
    26    25    27   ar
    27    27     2   ar
    28    13     8    1
    29    24    17   ar
    30    16    12   ar
    31     1    28    1
    32     1    29    1
    33     1    30    1
    34     3    31    1
    35     7    32    1
    36     8    33    1
    37     9    34    1
    38     9    35    1
    39    10    36    1
    40    10    37    1
    41    11    38    1
    42    11    39    1
    43    14    40    1
    44    18    41    1
    45    19    42    1
    46    21    43    1
    47    21    44    1
    48    21    45    1
    49    23    46    1
    50    23    47    1
    51    23    48    1
    52    24    49    1
    53    26    50    1
    54    26    51    1
    55    26    52    1
