@<TRIPOS>MOLECULE
*****
 45 48 0 0 0
SMALL
GASTEIGER

@<TRIPOS>ATOM
      1 C          -4.0400   -2.1457   -1.2232 C.3     1  UNL1       -0.0234
      2 C          -3.6067   -1.2470   -0.0792 C.3     1  UNL1        0.1251
      3 O          -2.4161   -0.6212   -0.4539 O.3     1  UNL1       -0.4844
      4 C          -1.2051   -0.6487    0.2000 C.ar    1  UNL1        0.1221
      5 C          -0.9754   -1.3262    1.3727 C.ar    1  UNL1       -0.0179
      6 C           0.2620   -1.3054    1.9647 C.ar    1  UNL1       -0.0323
      7 C           1.3312   -0.6087    1.4174 C.ar    1  UNL1        0.0712
      8 N           2.5327   -0.6022    2.0140 N.ar    1  UNL1       -0.2547
      9 C           3.5664    0.0677    1.4910 C.ar    1  UNL1        0.0317
     10 C           3.3773    0.7566    0.3197 C.ar    1  UNL1       -0.0248
     11 C           4.4575    1.5045   -0.3317 C.3     1  UNL1       -0.0026
     12 C           4.8589    0.9582   -1.7335 C.3     1  UNL1       -0.0338
     13 C           5.8220    1.0612   -0.5405 C.3     1  UNL1        0.0428
     14 C           6.3971   -0.2210   -0.1375 C.2     1  UNL1        0.2142
     15 N           7.7873   -0.3212    0.1201 N.am    1  UNL1       -0.3291
     16 O           5.7375   -1.2849    0.0059 O.2     1  UNL1       -0.2757
     17 C           2.1537    0.7568   -0.2980 C.ar    1  UNL1       -0.0475
     18 C           1.0833    0.0656    0.2404 C.ar    1  UNL1        0.0041
     19 C          -0.1524    0.0572   -0.3699 C.ar    1  UNL1       -0.0107
     20 C          -4.6332   -0.1816    0.1671 C.ar    1  UNL1        0.0317
     21 C          -5.6674   -0.4013    1.0505 C.ar    1  UNL1        0.0492
     22 CL         -5.8296   -1.9270    1.9225 Cl      1  UNL1       -0.0831
     23 C          -6.6205    0.5820    1.2819 C.ar    1  UNL1       -0.0402
     24 C          -6.5563    1.7985    0.6360 C.ar    1  UNL1       -0.0236
     25 C          -5.5363    2.0248   -0.2399 C.ar    1  UNL1        0.1421
     26 F          -5.4246    3.2166   -0.9096 F       1  UNL1       -0.2039
     27 C          -4.5824    1.0384   -0.4704 C.ar    1  UNL1        0.0841
     28 CL         -3.2939    1.3693   -1.5989 Cl      1  UNL1       -0.0801
     29 H          -3.5310   -1.8567   -2.1419 H       1  UNL1        0.0269
     30 H          -3.6939   -3.1825   -0.9626 H       1  UNL1        0.0269
     31 H          -5.1460   -2.2154   -1.3078 H       1  UNL1        0.0269
     32 H          -3.5036   -1.8086    0.8468 H       1  UNL1        0.0782
     33 H          -1.7758   -1.8870    1.8437 H       1  UNL1        0.0655
     34 H           0.4630   -1.8431    2.9047 H       1  UNL1        0.0640
     35 H           4.5496    0.0711    2.0037 H       1  UNL1        0.0832
     36 H           4.2235    2.6081   -0.4019 H       1  UNL1        0.0357
     37 H           4.9810    1.6809   -2.5494 H       1  UNL1        0.0279
     38 H           4.4628   -0.0234   -2.0068 H       1  UNL1        0.0279
     39 H           6.5847    1.8900   -0.6619 H       1  UNL1        0.0400
     40 H           8.1897   -0.1059    1.0498 H       1  UNL1        0.1449
     41 H           8.4148   -0.6188   -0.6471 H       1  UNL1        0.1449
     42 H           1.9539    1.2849   -1.2234 H       1  UNL1        0.0627
     43 H          -0.2692    0.6089   -1.2898 H       1  UNL1        0.0661
     44 H          -7.4399    0.3966    1.9874 H       1  UNL1        0.0633
     45 H          -7.2907    2.5855    0.7999 H       1  UNL1        0.0647
@<TRIPOS>BOND
     1     1     2    1
     2     2     3    1
     3     3     4    1
     4     4     5   ar
     5     5     6   ar
     6     6     7   ar
     7     7     8   ar
     8     8     9   ar
     9     9    10   ar
    10    10    11    1
    11    11    12    1
    12    12    13    1
    13    13    14    1
    14    14    15   am
    15    14    16    2
    16    10    17   ar
    17    17    18   ar
    18    18    19   ar
    19     2    20    1
    20    20    21   ar
    21    21    22    1
    22    21    23   ar
    23    23    24   ar
    24    24    25   ar
    25    25    26    1
    26    25    27   ar
    27    27    28    1
    28    19     4   ar
    29    27    20   ar
    30    18     7   ar
    31    13    11    1
    32     1    29    1
    33     1    30    1
    34     1    31    1
    35     2    32    1
    36     5    33    1
    37     6    34    1
    38     9    35    1
    39    11    36    1
    40    12    37    1
    41    12    38    1
    42    13    39    1
    43    15    40    1
    44    15    41    1
    45    17    42    1
    46    19    43    1
    47    23    44    1
    48    24    45    1
