@<TRIPOS>MOLECULE
*****
 31 33 0 0 0
SMALL
GASTEIGER

@<TRIPOS>ATOM
      1 O          -1.7965   -1.7687   -2.3240 O.2     1  UNL1       -0.2830
      2 C          -1.3626   -1.0652   -1.3791 C.ar    1  UNL1        0.2379
      3 C           0.0271   -0.8693   -1.2818 C.ar    1  UNL1        0.2082
      4 O           0.8279   -1.4854   -2.2636 O.3     1  UNL1       -0.5007
      5 C           0.5032   -0.1126   -0.2668 C.ar    1  UNL1        0.1806
      6 C           1.9007    0.1556   -0.0676 C.ar    1  UNL1        0.0213
      7 C           2.2889    0.9481    1.0099 C.ar    1  UNL1       -0.0475
      8 C           3.5827    1.2753    1.3067 C.ar    1  UNL1       -0.0195
      9 C           4.5984    0.8033    0.5018 C.ar    1  UNL1        0.1169
     10 O           5.9323    1.1226    0.7822 O.3     1  UNL1       -0.5068
     11 C           4.2696    0.0161   -0.5759 C.ar    1  UNL1       -0.0195
     12 C           2.9144   -0.3017   -0.8512 C.ar    1  UNL1       -0.0475
     13 O          -0.3842    0.4063    0.5879 O.2     1  UNL1       -0.4507
     14 C          -1.6560    0.2509    0.5329 C.ar    1  UNL1        0.1465
     15 C          -2.5029    0.8232    1.4585 C.ar    1  UNL1        0.0231
     16 C          -3.8621    0.6654    1.4114 C.ar    1  UNL1        0.1239
     17 O          -4.7023    1.2608    2.3689 O.3     1  UNL1       -0.5065
     18 C          -4.3949   -0.1037    0.3861 C.ar    1  UNL1        0.0223
     19 C          -3.5828   -0.6885   -0.5527 C.ar    1  UNL1        0.1348
     20 O          -4.1061   -1.4596   -1.5820 O.3     1  UNL1       -0.5058
     21 C          -2.2183   -0.5066   -0.4720 C.ar    1  UNL1        0.1092
     22 H           0.9342   -2.4906   -2.1661 H       1  UNL1        0.2924
     23 H           1.5094    1.3293    1.6546 H       1  UNL1        0.0626
     24 H           3.8614    1.8904    2.1460 H       1  UNL1        0.0654
     25 H           6.5172    0.4450    1.2680 H       1  UNL1        0.2921
     26 H           5.0401   -0.3761   -1.2350 H       1  UNL1        0.0654
     27 H           2.7163   -0.9163   -1.7004 H       1  UNL1        0.0626
     28 H          -2.0916    1.4352    2.2760 H       1  UNL1        0.0691
     29 H          -5.2941    2.0091    2.0017 H       1  UNL1        0.2921
     30 H          -5.4656   -0.2138    0.3694 H       1  UNL1        0.0691
     31 H          -4.0035   -2.4786   -1.6136 H       1  UNL1        0.2922
@<TRIPOS>BOND
     1     1     2    2
     2     2     3   ar
     3     3     4    1
     4     3     5   ar
     5     5     6    1
     6     6     7   ar
     7     7     8   ar
     8     8     9   ar
     9     9    10    1
    10     9    11   ar
    11    11    12   ar
    12     5    13   ar
    13    13    14   ar
    14    14    15   ar
    15    15    16   ar
    16    16    17    1
    17    16    18   ar
    18    18    19   ar
    19    19    20    1
    20    19    21   ar
    21    21     2   ar
    22    12     6   ar
    23    21    14   ar
    24     4    22    1
    25     7    23    1
    26     8    24    1
    27    10    25    1
    28    11    26    1
    29    12    27    1
    30    15    28    1
    31    17    29    1
    32    18    30    1
    33    20    31    1
