@<TRIPOS>MOLECULE
*****
 43 44 0 0 0
SMALL
GASTEIGER

@<TRIPOS>ATOM
      1 C          -3.8318   -2.1436    0.8452 C.3     1  UNL1        0.0788
      2 O          -3.3123   -0.8920    0.5302 O.3     1  UNL1       -0.4944
      3 C          -3.8836    0.3229    0.7375 C.ar    1  UNL1        0.1307
      4 C          -5.1494    0.3443    1.3401 C.ar    1  UNL1        0.0221
      5 C          -5.8050    1.5276    1.5894 C.ar    1  UNL1        0.1204
      6 O          -7.0698    1.5515    2.1914 O.3     1  UNL1       -0.5066
      7 C          -5.1611    2.6857    1.2201 C.ar    1  UNL1       -0.0194
      8 C          -3.9203    2.6490    0.6302 C.ar    1  UNL1       -0.0477
      9 C          -3.2287    1.4573    0.3642 C.ar    1  UNL1        0.0171
     10 C          -1.9283    1.5599   -0.2616 C.2     1  UNL1       -0.0444
     11 C          -1.1669    0.5409   -0.5701 C.2     1  UNL1        0.0232
     12 C           0.1471    0.8168   -1.2117 C.2     1  UNL1        0.3320
     13 O           0.5063    1.9845   -1.4458 O.2     1  UNL1       -0.2456
     14 O           0.9547   -0.2482   -1.5398 O.3     1  UNL1       -0.4616
     15 C           2.2222    0.0175   -2.1587 C.3     1  UNL1        0.0931
     16 C           2.8905   -1.3171   -2.4059 C.3     1  UNL1       -0.0145
     17 C           3.1084   -2.0761   -1.1198 C.3     1  UNL1       -0.0246
     18 C           3.9762   -1.2894   -0.2097 C.ar    1  UNL1       -0.0472
     19 C           3.4685   -0.3951    0.7059 C.ar    1  UNL1       -0.0586
     20 C           4.2995    0.3257    1.5413 C.ar    1  UNL1       -0.0615
     21 C           5.6685    0.1627    1.4749 C.ar    1  UNL1       -0.0617
     22 C           6.1661   -0.7388    0.5510 C.ar    1  UNL1       -0.0615
     23 C           5.3396   -1.4651   -0.2901 C.ar    1  UNL1       -0.0586
     24 H          -4.8654   -2.3055    0.4591 H       1  UNL1        0.0660
     25 H          -3.7889   -2.3390    1.9489 H       1  UNL1        0.0660
     26 H          -3.1899   -2.9153    0.3607 H       1  UNL1        0.0660
     27 H          -5.6250   -0.5805    1.6167 H       1  UNL1        0.0691
     28 H          -7.1283    2.0167    3.0964 H       1  UNL1        0.2921
     29 H          -5.6634    3.6212    1.4095 H       1  UNL1        0.0654
     30 H          -3.4441    3.5859    0.3527 H       1  UNL1        0.0626
     31 H          -1.5302    2.5804   -0.5063 H       1  UNL1        0.0627
     32 H          -1.4688   -0.4598   -0.3724 H       1  UNL1        0.0689
     33 H           1.9786    0.5269   -3.1120 H       1  UNL1        0.0697
     34 H           2.8496    0.6563   -1.5116 H       1  UNL1        0.0697
     35 H           3.8726   -1.0915   -2.8952 H       1  UNL1        0.0301
     36 H           2.3252   -1.9282   -3.1335 H       1  UNL1        0.0301
     37 H           2.1208   -2.1705   -0.6157 H       1  UNL1        0.0314
     38 H           3.5661   -3.0674   -1.2892 H       1  UNL1        0.0314
     39 H           2.4032   -0.2384    0.7905 H       1  UNL1        0.0620
     40 H           3.9294    1.0384    2.2736 H       1  UNL1        0.0618
     41 H           6.3422    0.7225    2.1260 H       1  UNL1        0.0618
     42 H           7.2503   -0.8682    0.4980 H       1  UNL1        0.0618
     43 H           5.7758   -2.1651   -1.0036 H       1  UNL1        0.0620
@<TRIPOS>BOND
     1     1     2    1
     2     2     3    1
     3     3     4   ar
     4     4     5   ar
     5     5     6    1
     6     5     7   ar
     7     7     8   ar
     8     8     9   ar
     9     9    10    1
    10    10    11    2
    11    11    12    1
    12    12    13    2
    13    12    14    1
    14    14    15    1
    15    15    16    1
    16    16    17    1
    17    17    18    1
    18    18    19   ar
    19    19    20   ar
    20    20    21   ar
    21    21    22   ar
    22    22    23   ar
    23     9     3   ar
    24    23    18   ar
    25     1    24    1
    26     1    25    1
    27     1    26    1
    28     4    27    1
    29     6    28    1
    30     7    29    1
    31     8    30    1
    32    10    31    1
    33    11    32    1
    34    15    33    1
    35    15    34    1
    36    16    35    1
    37    16    36    1
    38    17    37    1
    39    17    38    1
    40    19    39    1
    41    20    40    1
    42    21    41    1
    43    22    42    1
    44    23    43    1
