
     RDKit          3D

 43 44  0  0  0  0  0  0  0  0999 V2000
   -3.8318   -2.1436    0.8452 C   0  0  0  0  0  0  0  0  0  0  0  0
   -3.3123   -0.8920    0.5302 O   0  0  0  0  0  0  0  0  0  0  0  0
   -3.8836    0.3229    0.7375 C   0  0  0  0  0  0  0  0  0  0  0  0
   -5.1494    0.3443    1.3401 C   0  0  0  0  0  0  0  0  0  0  0  0
   -5.8050    1.5276    1.5894 C   0  0  0  0  0  0  0  0  0  0  0  0
   -7.0698    1.5515    2.1914 O   0  0  0  0  0  0  0  0  0  0  0  0
   -5.1611    2.6857    1.2201 C   0  0  0  0  0  0  0  0  0  0  0  0
   -3.9203    2.6490    0.6302 C   0  0  0  0  0  0  0  0  0  0  0  0
   -3.2287    1.4573    0.3642 C   0  0  0  0  0  0  0  0  0  0  0  0
   -1.9283    1.5599   -0.2616 C   0  0  0  0  0  0  0  0  0  0  0  0
   -1.1669    0.5409   -0.5701 C   0  0  0  0  0  0  0  0  0  0  0  0
    0.1471    0.8168   -1.2117 C   0  0  0  0  0  0  0  0  0  0  0  0
    0.5063    1.9845   -1.4458 O   0  0  0  0  0  0  0  0  0  0  0  0
    0.9547   -0.2482   -1.5398 O   0  0  0  0  0  0  0  0  0  0  0  0
    2.2222    0.0175   -2.1587 C   0  0  0  0  0  0  0  0  0  0  0  0
    2.8905   -1.3171   -2.4059 C   0  0  0  0  0  0  0  0  0  0  0  0
    3.1084   -2.0761   -1.1198 C   0  0  0  0  0  0  0  0  0  0  0  0
    3.9762   -1.2894   -0.2097 C   0  0  0  0  0  0  0  0  0  0  0  0
    3.4685   -0.3951    0.7059 C   0  0  0  0  0  0  0  0  0  0  0  0
    4.2995    0.3257    1.5413 C   0  0  0  0  0  0  0  0  0  0  0  0
    5.6685    0.1627    1.4749 C   0  0  0  0  0  0  0  0  0  0  0  0
    6.1661   -0.7388    0.5510 C   0  0  0  0  0  0  0  0  0  0  0  0
    5.3396   -1.4651   -0.2901 C   0  0  0  0  0  0  0  0  0  0  0  0
   -4.8654   -2.3055    0.4591 H   0  0  0  0  0  0  0  0  0  0  0  0
   -3.7889   -2.3390    1.9489 H   0  0  0  0  0  0  0  0  0  0  0  0
   -3.1899   -2.9153    0.3607 H   0  0  0  0  0  0  0  0  0  0  0  0
   -5.6250   -0.5805    1.6167 H   0  0  0  0  0  0  0  0  0  0  0  0
   -7.1283    2.0167    3.0964 H   0  0  0  0  0  0  0  0  0  0  0  0
   -5.6634    3.6212    1.4095 H   0  0  0  0  0  0  0  0  0  0  0  0
   -3.4441    3.5859    0.3527 H   0  0  0  0  0  0  0  0  0  0  0  0
   -1.5302    2.5804   -0.5063 H   0  0  0  0  0  0  0  0  0  0  0  0
   -1.4688   -0.4598   -0.3724 H   0  0  0  0  0  0  0  0  0  0  0  0
    1.9786    0.5269   -3.1120 H   0  0  0  0  0  0  0  0  0  0  0  0
    2.8496    0.6563   -1.5116 H   0  0  0  0  0  0  0  0  0  0  0  0
    3.8726   -1.0915   -2.8952 H   0  0  0  0  0  0  0  0  0  0  0  0
    2.3252   -1.9282   -3.1335 H   0  0  0  0  0  0  0  0  0  0  0  0
    2.1208   -2.1705   -0.6157 H   0  0  0  0  0  0  0  0  0  0  0  0
    3.5661   -3.0674   -1.2892 H   0  0  0  0  0  0  0  0  0  0  0  0
    2.4032   -0.2384    0.7905 H   0  0  0  0  0  0  0  0  0  0  0  0
    3.9294    1.0384    2.2736 H   0  0  0  0  0  0  0  0  0  0  0  0
    6.3422    0.7225    2.1260 H   0  0  0  0  0  0  0  0  0  0  0  0
    7.2503   -0.8682    0.4980 H   0  0  0  0  0  0  0  0  0  0  0  0
    5.7758   -2.1651   -1.0036 H   0  0  0  0  0  0  0  0  0  0  0  0
  1  2  1  0
  2  3  1  0
  3  4  2  0
  4  5  1  0
  5  6  1  0
  5  7  2  0
  7  8  1  0
  8  9  2  0
  9 10  1  0
 10 11  2  0
 11 12  1  0
 12 13  2  0
 12 14  1  0
 14 15  1  0
 15 16  1  0
 16 17  1  0
 17 18  1  0
 18 19  2  0
 19 20  1  0
 20 21  2  0
 21 22  1  0
 22 23  2  0
  9  3  1  0
 23 18  1  0
  1 24  1  0
  1 25  1  0
  1 26  1  0
  4 27  1  0
  6 28  1  0
  7 29  1  0
  8 30  1  0
 10 31  1  0
 11 32  1  0
 15 33  1  0
 15 34  1  0
 16 35  1  0
 16 36  1  0
 17 37  1  0
 17 38  1  0
 19 39  1  0
 20 40  1  0
 21 41  1  0
 22 42  1  0
 23 43  1  0
M  END
$$$$
