@<TRIPOS>MOLECULE
*****
 48 49 0 0 0
SMALL
GASTEIGER

@<TRIPOS>ATOM
      1 C          -6.4890   -1.3912    0.7495 C.3     1  UNL1        0.0788
      2 O          -5.6717   -0.2714    0.4788 O.3     1  UNL1       -0.4950
      3 C          -4.2879   -0.5113    0.3658 C.ar    1  UNL1        0.1239
      4 C          -3.7894   -1.7786    0.5143 C.ar    1  UNL1        0.0224
      5 C          -2.4493   -1.9616    0.3969 C.ar    1  UNL1        0.1346
      6 O          -1.9940   -3.2841    0.5624 O.3     1  UNL1       -0.5058
      7 C          -1.5084   -0.9065    0.1238 C.ar    1  UNL1        0.1036
      8 C          -2.0142    0.3505   -0.0208 C.ar    1  UNL1       -0.0264
      9 C          -3.4130    0.5066    0.1071 C.ar    1  UNL1       -0.0158
     10 C          -1.3337    1.6201   -0.2761 C.3     1  UNL1       -0.0263
     11 C          -0.1250    1.9047    0.5826 C.3     1  UNL1       -0.0419
     12 C           0.3563    3.2370    0.2082 C.3     1  UNL1        0.0141
     13 C           1.7901    3.6246    0.4387 C.2     1  UNL1        0.2058
     14 O           1.9103    4.8289    0.0045 O.2     1  UNL1       -0.2885
     15 C           2.8792    2.8750    0.9779 C.2     1  UNL1        0.2630
     16 O           2.6759    2.4218    2.2025 O.2     1  UNL1       -0.2805
     17 C           4.1601    2.4505    0.4540 C.2     1  UNL1        0.2058
     18 O           5.1767    3.1676    0.2686 O.2     1  UNL1       -0.2885
     19 C           4.4965    1.0186   -0.0241 C.3     1  UNL1        0.0139
     20 C           3.2019    0.2947   -0.1898 C.3     1  UNL1       -0.0426
     21 C           3.3023   -1.0069   -0.9033 C.3     1  UNL1       -0.0155
     22 C           2.0868   -1.8137   -0.7853 C.3     1  UNL1        0.1006
     23 C           2.1434   -3.0569   -1.7124 C.3     1  UNL1       -0.0277
     24 O           0.8576   -1.1893   -0.9382 O.3     1  UNL1       -0.4581
     25 C          -0.1438   -1.3769    0.0409 C.2     1  UNL1        0.3433
     26 O           0.2136   -2.1154    1.0512 O.2     1  UNL1       -0.2448
     27 H          -6.0697   -1.8503    1.6832 H       1  UNL1        0.0660
     28 H          -6.3047   -2.1348   -0.0687 H       1  UNL1        0.0660
     29 H          -7.5471   -1.1332    0.8558 H       1  UNL1        0.0660
     30 H          -4.4439   -2.6252    0.7214 H       1  UNL1        0.0691
     31 H          -2.4754   -3.9864    0.0236 H       1  UNL1        0.2922
     32 H          -3.8818    1.4904    0.0001 H       1  UNL1        0.0657
     33 H          -1.9825    2.5204   -0.1672 H       1  UNL1        0.0314
     34 H          -0.9579    1.7003   -1.3348 H       1  UNL1        0.0314
     35 H          -0.4846    1.8758    1.6764 H       1  UNL1        0.0273
     36 H           0.5316    1.0521    0.5004 H       1  UNL1        0.0273
     37 H           0.1398    3.3951   -0.8961 H       1  UNL1        0.0346
     38 H          -0.2651    4.0203    0.7134 H       1  UNL1        0.0346
     39 H           5.2550    0.5553    0.5995 H       1  UNL1        0.0346
     40 H           4.9352    1.2094   -1.0618 H       1  UNL1        0.0346
     41 H           2.6964    0.1111    0.8039 H       1  UNL1        0.0271
     42 H           2.4566    0.9624   -0.7393 H       1  UNL1        0.0271
     43 H           4.1885   -1.6172   -0.5205 H       1  UNL1        0.0301
     44 H           3.5843   -0.8184   -1.9933 H       1  UNL1        0.0301
     45 H           2.0726   -2.3475    0.2458 H       1  UNL1        0.0731
     46 H           2.2722   -2.6531   -2.7176 H       1  UNL1        0.0265
     47 H           3.0131   -3.6875   -1.4385 H       1  UNL1        0.0265
     48 H           1.2362   -3.6758   -1.5632 H       1  UNL1        0.0265
@<TRIPOS>BOND
     1     1     2    1
     2     2     3    1
     3     3     4   ar
     4     4     5   ar
     5     5     6    1
     6     5     7   ar
     7     7     8   ar
     8     8     9   ar
     9     8    10    1
    10    10    11    1
    11    11    12    1
    12    12    13    1
    13    13    14    2
    14    13    15    1
    15    15    16    2
    16    15    17    1
    17    17    18    2
    18    17    19    1
    19    19    20    1
    20    20    21    1
    21    21    22    1
    22    22    23    1
    23    22    24    1
    24    24    25    1
    25    25    26    2
    26     9     3   ar
    27    25     7    1
    28     1    27    1
    29     1    28    1
    30     1    29    1
    31     4    30    1
    32     6    31    1
    33     9    32    1
    34    10    33    1
    35    10    34    1
    36    11    35    1
    37    11    36    1
    38    12    37    1
    39    12    38    1
    40    19    39    1
    41    19    40    1
    42    20    41    1
    43    20    42    1
    44    21    43    1
    45    21    44    1
    46    22    45    1
    47    23    46    1
    48    23    47    1
    49    23    48    1
