
     RDKit          3D

 48 49  0  0  0  0  0  0  0  0999 V2000
   -6.4890   -1.3912    0.7495 C   0  0  0  0  0  0  0  0  0  0  0  0
   -5.6717   -0.2714    0.4788 O   0  0  0  0  0  0  0  0  0  0  0  0
   -4.2879   -0.5113    0.3658 C   0  0  0  0  0  0  0  0  0  0  0  0
   -3.7894   -1.7786    0.5143 C   0  0  0  0  0  0  0  0  0  0  0  0
   -2.4493   -1.9616    0.3969 C   0  0  0  0  0  0  0  0  0  0  0  0
   -1.9940   -3.2841    0.5624 O   0  0  0  0  0  0  0  0  0  0  0  0
   -1.5084   -0.9065    0.1238 C   0  0  0  0  0  0  0  0  0  0  0  0
   -2.0142    0.3505   -0.0208 C   0  0  0  0  0  0  0  0  0  0  0  0
   -3.4130    0.5066    0.1071 C   0  0  0  0  0  0  0  0  0  0  0  0
   -1.3337    1.6201   -0.2761 C   0  0  0  0  0  0  0  0  0  0  0  0
   -0.1250    1.9047    0.5826 C   0  0  0  0  0  0  0  0  0  0  0  0
    0.3563    3.2370    0.2082 C   0  0  0  0  0  0  0  0  0  0  0  0
    1.7901    3.6246    0.4387 C   0  0  0  0  0  0  0  0  0  0  0  0
    1.9103    4.8289    0.0045 O   0  0  0  0  0  0  0  0  0  0  0  0
    2.8792    2.8750    0.9779 C   0  0  0  0  0  0  0  0  0  0  0  0
    2.6759    2.4218    2.2025 O   0  0  0  0  0  0  0  0  0  0  0  0
    4.1601    2.4505    0.4540 C   0  0  0  0  0  0  0  0  0  0  0  0
    5.1767    3.1676    0.2686 O   0  0  0  0  0  0  0  0  0  0  0  0
    4.4965    1.0186   -0.0241 C   0  0  0  0  0  0  0  0  0  0  0  0
    3.2019    0.2947   -0.1898 C   0  0  0  0  0  0  0  0  0  0  0  0
    3.3023   -1.0069   -0.9033 C   0  0  0  0  0  0  0  0  0  0  0  0
    2.0868   -1.8137   -0.7853 C   0  0  2  0  0  0  0  0  0  0  0  0
    2.1434   -3.0569   -1.7124 C   0  0  0  0  0  0  0  0  0  0  0  0
    0.8576   -1.1893   -0.9382 O   0  0  0  0  0  0  0  0  0  0  0  0
   -0.1438   -1.3769    0.0409 C   0  0  0  0  0  0  0  0  0  0  0  0
    0.2136   -2.1154    1.0512 O   0  0  0  0  0  0  0  0  0  0  0  0
   -6.0697   -1.8503    1.6832 H   0  0  0  0  0  0  0  0  0  0  0  0
   -6.3047   -2.1348   -0.0687 H   0  0  0  0  0  0  0  0  0  0  0  0
   -7.5471   -1.1332    0.8558 H   0  0  0  0  0  0  0  0  0  0  0  0
   -4.4439   -2.6252    0.7214 H   0  0  0  0  0  0  0  0  0  0  0  0
   -2.4754   -3.9864    0.0236 H   0  0  0  0  0  0  0  0  0  0  0  0
   -3.8818    1.4904    0.0001 H   0  0  0  0  0  0  0  0  0  0  0  0
   -1.9825    2.5204   -0.1672 H   0  0  0  0  0  0  0  0  0  0  0  0
   -0.9579    1.7003   -1.3348 H   0  0  0  0  0  0  0  0  0  0  0  0
   -0.4846    1.8758    1.6764 H   0  0  0  0  0  0  0  0  0  0  0  0
    0.5316    1.0521    0.5004 H   0  0  0  0  0  0  0  0  0  0  0  0
    0.1398    3.3951   -0.8961 H   0  0  0  0  0  0  0  0  0  0  0  0
   -0.2651    4.0203    0.7134 H   0  0  0  0  0  0  0  0  0  0  0  0
    5.2550    0.5553    0.5995 H   0  0  0  0  0  0  0  0  0  0  0  0
    4.9352    1.2094   -1.0618 H   0  0  0  0  0  0  0  0  0  0  0  0
    2.6964    0.1111    0.8039 H   0  0  0  0  0  0  0  0  0  0  0  0
    2.4566    0.9624   -0.7393 H   0  0  0  0  0  0  0  0  0  0  0  0
    4.1885   -1.6172   -0.5205 H   0  0  0  0  0  0  0  0  0  0  0  0
    3.5843   -0.8184   -1.9933 H   0  0  0  0  0  0  0  0  0  0  0  0
    2.0726   -2.3475    0.2458 H   0  0  0  0  0  0  0  0  0  0  0  0
    2.2722   -2.6531   -2.7176 H   0  0  0  0  0  0  0  0  0  0  0  0
    3.0131   -3.6875   -1.4385 H   0  0  0  0  0  0  0  0  0  0  0  0
    1.2362   -3.6758   -1.5632 H   0  0  0  0  0  0  0  0  0  0  0  0
  1  2  1  0
  2  3  1  0
  3  4  2  0
  4  5  1  0
  5  6  1  0
  5  7  2  0
  7  8  1  0
  8  9  2  0
  8 10  1  0
 10 11  1  0
 11 12  1  0
 12 13  1  0
 13 14  2  0
 13 15  1  0
 15 16  2  0
 15 17  1  0
 17 18  2  0
 17 19  1  0
 19 20  1  0
 20 21  1  0
 21 22  1  0
 22 23  1  0
 22 24  1  0
 24 25  1  0
 25 26  2  0
  9  3  1  0
 25  7  1  0
  1 27  1  0
  1 28  1  0
  1 29  1  0
  4 30  1  0
  6 31  1  0
  9 32  1  0
 10 33  1  0
 10 34  1  0
 11 35  1  0
 11 36  1  0
 12 37  1  0
 12 38  1  0
 19 39  1  0
 19 40  1  0
 20 41  1  0
 20 42  1  0
 21 43  1  0
 21 44  1  0
 22 45  1  1
 23 46  1  0
 23 47  1  0
 23 48  1  0
M  END
$$$$
