@<TRIPOS>MOLECULE
*****
 59 62 0 0 0
SMALL
GASTEIGER

@<TRIPOS>ATOM
      1 C           1.0703    2.4501    1.9542 C.3     1  UNL1       -0.0421
      2 C           0.9451    1.9083    0.5507 C.3     1  UNL1        0.0515
      3 C           2.1705    1.1393    0.2440 C.ar    1  UNL1       -0.0271
      4 C           2.3506   -0.1614    0.5962 C.ar    1  UNL1       -0.0562
      5 C           3.5207   -0.8617    0.2920 C.ar    1  UNL1       -0.0537
      6 C           4.5165   -0.2312   -0.3768 C.ar    1  UNL1       -0.0163
      7 C           5.7805   -0.9103   -0.7309 C.ar    1  UNL1        0.0029
      8 C           6.4694   -0.5574   -1.8712 C.ar    1  UNL1        0.0354
      9 N           7.6223   -1.1820   -2.1885 N.ar    1  UNL1       -0.2598
     10 C           8.1708   -2.1596   -1.4484 C.ar    1  UNL1        0.0628
     11 C           7.5120   -2.5416   -0.2997 C.ar    1  UNL1        0.1420
     12 F           8.0357   -3.5274    0.4754 F       1  UNL1       -0.2039
     13 C           6.3141   -1.9104    0.0534 C.ar    1  UNL1       -0.0158
     14 C           4.3951    1.0831   -0.7601 C.ar    1  UNL1       -0.0537
     15 C           3.2313    1.7361   -0.4432 C.ar    1  UNL1       -0.0562
     16 N          -0.2940    1.2619    0.2828 N.am    1  UNL1       -0.2605
     17 C          -0.7977    0.1477    1.0239 C.3     1  UNL1        0.0224
     18 C          -2.2986    0.3864    1.2083 C.3     1  UNL1        0.0075
     19 C          -2.9845    0.2202   -0.0915 C.3     1  UNL1        0.1415
     20 C          -4.4126    0.7537   -0.0173 C.3     1  UNL1       -0.0064
     21 C          -4.4944    2.2012    0.3258 C.3     1  UNL1       -0.0258
     22 C          -5.9765    2.5793    0.3500 C.3     1  UNL1        0.0443
     23 O          -6.6444    1.8202    1.3008 O.3     1  UNL1       -0.3950
     24 C          -3.0644   -1.2270   -0.4575 C.ar    1  UNL1       -0.0041
     25 C          -2.6968   -2.2522    0.3841 C.ar    1  UNL1       -0.0548
     26 C          -2.7657   -3.5842    0.0259 C.ar    1  UNL1       -0.0614
     27 C          -3.2159   -3.9367   -1.2145 C.ar    1  UNL1       -0.0617
     28 C          -3.5941   -2.9387   -2.0865 C.ar    1  UNL1       -0.0614
     29 C          -3.5219   -1.6128   -1.7211 C.ar    1  UNL1       -0.0548
     30 O          -2.2641    0.9082   -1.1034 O.3     1  UNL1       -0.4388
     31 C          -1.1686    1.7340   -0.7537 C.2     1  UNL1        0.4042
     32 O          -0.9470    2.8348   -1.3088 O.2     1  UNL1       -0.2262
     33 H           0.2795    3.2086    2.1758 H       1  UNL1        0.0251
     34 H           1.1360    1.6660    2.7132 H       1  UNL1        0.0251
     35 H           2.0389    3.0198    1.9853 H       1  UNL1        0.0251
     36 H           1.0221    2.8491   -0.1287 H       1  UNL1        0.0549
     37 H           1.6226   -0.7375    1.1277 H       1  UNL1        0.0621
     38 H           3.6455   -1.8948    0.5798 H       1  UNL1        0.0624
     39 H           6.0511    0.2311   -2.4924 H       1  UNL1        0.0836
     40 H           9.1052   -2.6505   -1.7249 H       1  UNL1        0.0859
     41 H           5.7929   -2.2033    0.9502 H       1  UNL1        0.0653
     42 H           5.1660    1.6203   -1.2939 H       1  UNL1        0.0624
     43 H           3.0910    2.7890   -0.7287 H       1  UNL1        0.0621
     44 H          -0.3212    0.0138    2.0205 H       1  UNL1        0.0467
     45 H          -0.6248   -0.7702    0.4312 H       1  UNL1        0.0467
     46 H          -2.7188   -0.1675    2.0434 H       1  UNL1        0.0322
     47 H          -2.3523    1.4733    1.5162 H       1  UNL1        0.0322
     48 H          -4.9327    0.5069   -0.9573 H       1  UNL1        0.0308
     49 H          -4.9121    0.1777    0.8015 H       1  UNL1        0.0308
     50 H          -4.1571    2.3457    1.3744 H       1  UNL1        0.0289
     51 H          -3.9611    2.8352   -0.3920 H       1  UNL1        0.0289
     52 H          -6.0928    3.6509    0.6155 H       1  UNL1        0.0557
     53 H          -6.4051    2.3514   -0.6445 H       1  UNL1        0.0557
     54 H          -7.5957    1.6712    1.0856 H       1  UNL1        0.2094
     55 H          -2.3407   -2.0512    1.3825 H       1  UNL1        0.0622
     56 H          -2.4607   -4.3731    0.7320 H       1  UNL1        0.0618
     57 H          -3.2682   -4.9957   -1.4926 H       1  UNL1        0.0618
     58 H          -3.9476   -3.2635   -3.0665 H       1  UNL1        0.0618
     59 H          -3.8238   -0.8724   -2.4251 H       1  UNL1        0.0622
@<TRIPOS>BOND
     1     1     2    1
     2     2     3    1
     3     3     4   ar
     4     4     5   ar
     5     5     6   ar
     6     6     7    1
     7     7     8   ar
     8     8     9   ar
     9     9    10   ar
    10    10    11   ar
    11    11    12    1
    12    11    13   ar
    13     6    14   ar
    14    14    15   ar
    15     2    16    1
    16    16    17    1
    17    17    18    1
    18    18    19    1
    19    19    20    1
    20    20    21    1
    21    21    22    1
    22    22    23    1
    23    19    24    1
    24    24    25   ar
    25    25    26   ar
    26    26    27   ar
    27    27    28   ar
    28    28    29   ar
    29    19    30    1
    30    30    31    1
    31    31    32    2
    32    15     3   ar
    33    31    16   am
    34    13     7   ar
    35    29    24   ar
    36     1    33    1
    37     1    34    1
    38     1    35    1
    39     2    36    1
    40     4    37    1
    41     5    38    1
    42     8    39    1
    43    10    40    1
    44    13    41    1
    45    14    42    1
    46    15    43    1
    47    17    44    1
    48    17    45    1
    49    18    46    1
    50    18    47    1
    51    20    48    1
    52    20    49    1
    53    21    50    1
    54    21    51    1
    55    22    52    1
    56    22    53    1
    57    23    54    1
    58    25    55    1
    59    26    56    1
    60    27    57    1
    61    28    58    1
    62    29    59    1
