
     RDKit          3D

 59 62  0  0  0  0  0  0  0  0999 V2000
    1.0703    2.4501    1.9542 C   0  0  0  0  0  0  0  0  0  0  0  0
    0.9451    1.9083    0.5507 C   0  0  1  0  0  0  0  0  0  0  0  0
    2.1705    1.1393    0.2440 C   0  0  0  0  0  0  0  0  0  0  0  0
    2.3506   -0.1614    0.5962 C   0  0  0  0  0  0  0  0  0  0  0  0
    3.5207   -0.8617    0.2920 C   0  0  0  0  0  0  0  0  0  0  0  0
    4.5165   -0.2312   -0.3768 C   0  0  0  0  0  0  0  0  0  0  0  0
    5.7805   -0.9103   -0.7309 C   0  0  0  0  0  0  0  0  0  0  0  0
    6.4694   -0.5574   -1.8712 C   0  0  0  0  0  0  0  0  0  0  0  0
    7.6223   -1.1820   -2.1885 N   0  0  0  0  0  0  0  0  0  0  0  0
    8.1708   -2.1596   -1.4484 C   0  0  0  0  0  0  0  0  0  0  0  0
    7.5120   -2.5416   -0.2997 C   0  0  0  0  0  0  0  0  0  0  0  0
    8.0357   -3.5274    0.4754 F   0  0  0  0  0  0  0  0  0  0  0  0
    6.3141   -1.9104    0.0534 C   0  0  0  0  0  0  0  0  0  0  0  0
    4.3951    1.0831   -0.7601 C   0  0  0  0  0  0  0  0  0  0  0  0
    3.2313    1.7361   -0.4432 C   0  0  0  0  0  0  0  0  0  0  0  0
   -0.2940    1.2619    0.2828 N   0  0  0  0  0  0  0  0  0  0  0  0
   -0.7977    0.1477    1.0239 C   0  0  0  0  0  0  0  0  0  0  0  0
   -2.2986    0.3864    1.2083 C   0  0  0  0  0  0  0  0  0  0  0  0
   -2.9845    0.2202   -0.0915 C   0  0  2  0  0  0  0  0  0  0  0  0
   -4.4126    0.7537   -0.0173 C   0  0  0  0  0  0  0  0  0  0  0  0
   -4.4944    2.2012    0.3258 C   0  0  0  0  0  0  0  0  0  0  0  0
   -5.9765    2.5793    0.3500 C   0  0  0  0  0  0  0  0  0  0  0  0
   -6.6444    1.8202    1.3008 O   0  0  0  0  0  0  0  0  0  0  0  0
   -3.0644   -1.2270   -0.4575 C   0  0  0  0  0  0  0  0  0  0  0  0
   -2.6968   -2.2522    0.3841 C   0  0  0  0  0  0  0  0  0  0  0  0
   -2.7657   -3.5842    0.0259 C   0  0  0  0  0  0  0  0  0  0  0  0
   -3.2159   -3.9367   -1.2145 C   0  0  0  0  0  0  0  0  0  0  0  0
   -3.5941   -2.9387   -2.0865 C   0  0  0  0  0  0  0  0  0  0  0  0
   -3.5219   -1.6128   -1.7211 C   0  0  0  0  0  0  0  0  0  0  0  0
   -2.2641    0.9082   -1.1034 O   0  0  0  0  0  0  0  0  0  0  0  0
   -1.1686    1.7340   -0.7537 C   0  0  0  0  0  0  0  0  0  0  0  0
   -0.9470    2.8348   -1.3088 O   0  0  0  0  0  0  0  0  0  0  0  0
    0.2795    3.2086    2.1758 H   0  0  0  0  0  0  0  0  0  0  0  0
    1.1360    1.6660    2.7132 H   0  0  0  0  0  0  0  0  0  0  0  0
    2.0389    3.0198    1.9853 H   0  0  0  0  0  0  0  0  0  0  0  0
    1.0221    2.8491   -0.1287 H   0  0  0  0  0  0  0  0  0  0  0  0
    1.6226   -0.7375    1.1277 H   0  0  0  0  0  0  0  0  0  0  0  0
    3.6455   -1.8948    0.5798 H   0  0  0  0  0  0  0  0  0  0  0  0
    6.0511    0.2311   -2.4924 H   0  0  0  0  0  0  0  0  0  0  0  0
    9.1052   -2.6505   -1.7249 H   0  0  0  0  0  0  0  0  0  0  0  0
    5.7929   -2.2033    0.9502 H   0  0  0  0  0  0  0  0  0  0  0  0
    5.1660    1.6203   -1.2939 H   0  0  0  0  0  0  0  0  0  0  0  0
    3.0910    2.7890   -0.7287 H   0  0  0  0  0  0  0  0  0  0  0  0
   -0.3212    0.0138    2.0205 H   0  0  0  0  0  0  0  0  0  0  0  0
   -0.6248   -0.7702    0.4312 H   0  0  0  0  0  0  0  0  0  0  0  0
   -2.7188   -0.1675    2.0434 H   0  0  0  0  0  0  0  0  0  0  0  0
   -2.3523    1.4733    1.5162 H   0  0  0  0  0  0  0  0  0  0  0  0
   -4.9327    0.5069   -0.9573 H   0  0  0  0  0  0  0  0  0  0  0  0
   -4.9121    0.1777    0.8015 H   0  0  0  0  0  0  0  0  0  0  0  0
   -4.1571    2.3457    1.3744 H   0  0  0  0  0  0  0  0  0  0  0  0
   -3.9611    2.8352   -0.3920 H   0  0  0  0  0  0  0  0  0  0  0  0
   -6.0928    3.6509    0.6155 H   0  0  0  0  0  0  0  0  0  0  0  0
   -6.4051    2.3514   -0.6445 H   0  0  0  0  0  0  0  0  0  0  0  0
   -7.5957    1.6712    1.0856 H   0  0  0  0  0  0  0  0  0  0  0  0
   -2.3407   -2.0512    1.3825 H   0  0  0  0  0  0  0  0  0  0  0  0
   -2.4607   -4.3731    0.7320 H   0  0  0  0  0  0  0  0  0  0  0  0
   -3.2682   -4.9957   -1.4926 H   0  0  0  0  0  0  0  0  0  0  0  0
   -3.9476   -3.2635   -3.0665 H   0  0  0  0  0  0  0  0  0  0  0  0
   -3.8238   -0.8724   -2.4251 H   0  0  0  0  0  0  0  0  0  0  0  0
  1  2  1  0
  2  3  1  0
  3  4  2  0
  4  5  1  0
  5  6  2  0
  6  7  1  0
  7  8  2  0
  8  9  1  0
  9 10  2  0
 10 11  1  0
 11 12  1  0
 11 13  2  0
  6 14  1  0
 14 15  2  0
  2 16  1  0
 16 17  1  0
 17 18  1  0
 18 19  1  0
 19 20  1  1
 20 21  1  0
 21 22  1  0
 22 23  1  0
 19 24  1  0
 24 25  2  0
 25 26  1  0
 26 27  2  0
 27 28  1  0
 28 29  2  0
 19 30  1  0
 30 31  1  0
 31 32  2  0
 15  3  1  0
 31 16  1  0
 13  7  1  0
 29 24  1  0
  1 33  1  0
  1 34  1  0
  1 35  1  0
  2 36  1  6
  4 37  1  0
  5 38  1  0
  8 39  1  0
 10 40  1  0
 13 41  1  0
 14 42  1  0
 15 43  1  0
 17 44  1  0
 17 45  1  0
 18 46  1  0
 18 47  1  0
 20 48  1  0
 20 49  1  0
 21 50  1  0
 21 51  1  0
 22 52  1  0
 22 53  1  0
 23 54  1  0
 25 55  1  0
 26 56  1  0
 27 57  1  0
 28 58  1  0
 29 59  1  0
M  END
$$$$
