@<TRIPOS>MOLECULE
*****
 63 65 0 0 0
SMALL
GASTEIGER

@<TRIPOS>ATOM
      1 C          -2.2217   -1.3889    0.7930 C.3     1  UNL1       -0.0470
      2 C          -1.8964    0.0777    0.8015 C.3     1  UNL1        0.0139
      3 C          -1.1087    0.3282    2.0856 C.3     1  UNL1       -0.0470
      4 C          -3.1719    0.8781    0.9814 C.3     1  UNL1       -0.0317
      5 C          -4.2258    0.8183   -0.0315 C.3     1  UNL1       -0.0314
      6 C          -4.8564   -0.4902   -0.3161 C.3     1  UNL1       -0.0242
      7 C          -6.3099   -0.1254   -0.6055 C.ar    1  UNL1       -0.0439
      8 C          -6.5564    1.1387   -0.1240 C.ar    1  UNL1       -0.0439
      9 C          -5.3620    1.7310    0.5085 C.3     1  UNL1       -0.0242
     10 C          -7.8316    1.6826   -0.2802 C.ar    1  UNL1       -0.0583
     11 C          -8.8525    0.9811   -0.9070 C.ar    1  UNL1       -0.0615
     12 C          -8.6038   -0.3024   -1.3966 C.ar    1  UNL1       -0.0615
     13 C          -7.3332   -0.8070   -1.2247 C.ar    1  UNL1       -0.0583
     14 N          -1.2878    0.5379   -0.3490 N.3     1  UNL1       -0.3085
     15 C          -0.0422    0.7617   -0.7712 C.3     1  UNL1        0.0256
     16 C           1.0118   -0.2843   -1.0493 C.3     1  UNL1        0.1015
     17 O           2.1417    0.4278   -1.5766 O.3     1  UNL1       -0.3872
     18 C           1.5608   -0.8915    0.2207 C.3     1  UNL1        0.1167
     19 O           2.6157   -1.7106    0.1748 O.3     1  UNL1       -0.4864
     20 C           3.8951   -1.6038   -0.1442 C.ar    1  UNL1        0.1588
     21 C           4.8774   -0.7412   -0.5543 C.ar    1  UNL1       -0.0137
     22 C           6.1922   -0.9896   -0.8029 C.ar    1  UNL1       -0.0405
     23 C           7.0211    0.1649   -1.2359 C.3     1  UNL1       -0.0174
     24 C           7.5743    0.8060    0.0209 C.3     1  UNL1        0.0487
     25 C           8.4228    1.9882   -0.3179 C.2     1  UNL1        0.3050
     26 O           8.9217    2.5737    0.8497 O.3     1  UNL1       -0.4806
     27 O           8.7469    2.5178   -1.4107 O.2     1  UNL1       -0.2510
     28 C           6.6310   -2.2842   -0.6255 C.ar    1  UNL1       -0.0202
     29 C           5.7283   -3.2678   -0.2066 C.ar    1  UNL1        0.1623
     30 F           6.3417   -4.4681   -0.0889 F       1  UNL1       -0.2023
     31 C           4.3863   -2.9185    0.0263 C.ar    1  UNL1        0.1997
     32 F           3.7672   -4.0821    0.4199 F       1  UNL1       -0.1986
     33 H          -2.6554   -1.7689   -0.1300 H       1  UNL1        0.0247
     34 H          -1.3661   -2.0243    1.1213 H       1  UNL1        0.0247
     35 H          -2.9981   -1.5158    1.6132 H       1  UNL1        0.0247
     36 H          -0.6683   -0.6330    2.4853 H       1  UNL1        0.0247
     37 H          -1.8433    0.6007    2.8664 H       1  UNL1        0.0247
     38 H          -0.3902    1.1479    2.0118 H       1  UNL1        0.0247
     39 H          -3.5542    0.5859    2.0180 H       1  UNL1        0.0286
     40 H          -2.7956    1.9471    1.1187 H       1  UNL1        0.0286
     41 H          -3.9191    1.3429   -0.9890 H       1  UNL1        0.0308
     42 H          -4.9223   -1.2156    0.4875 H       1  UNL1        0.0316
     43 H          -4.4585   -0.9470   -1.2627 H       1  UNL1        0.0316
     44 H          -5.1873    2.7798    0.1902 H       1  UNL1        0.0316
     45 H          -5.4274    1.6655    1.6004 H       1  UNL1        0.0316
     46 H          -8.0531    2.6772    0.0906 H       1  UNL1        0.0620
     47 H          -9.8213    1.4471   -1.0019 H       1  UNL1        0.0618
     48 H          -9.3795   -0.8746   -1.8902 H       1  UNL1        0.0618
     49 H          -7.1697   -1.8018   -1.6139 H       1  UNL1        0.0620
     50 H          -2.0073    0.6599   -1.1369 H       1  UNL1        0.1225
     51 H           0.5442    1.5663   -0.1891 H       1  UNL1        0.0451
     52 H          -0.0990    1.3188   -1.7893 H       1  UNL1        0.0451
     53 H           0.7309   -0.9993   -1.8198 H       1  UNL1        0.0640
     54 H           2.2020    1.2769   -1.0510 H       1  UNL1        0.2100
     55 H           1.7117    0.0158    0.9079 H       1  UNL1        0.0723
     56 H           0.7003   -1.4306    0.7147 H       1  UNL1        0.0723
     57 H           4.4970    0.2539   -0.6524 H       1  UNL1        0.0658
     58 H           7.8099   -0.2448   -1.8882 H       1  UNL1        0.0318
     59 H           6.3943    0.9071   -1.7516 H       1  UNL1        0.0318
     60 H           8.1401    0.0475    0.6051 H       1  UNL1        0.0381
     61 H           6.7165    1.1239    0.6448 H       1  UNL1        0.0381
     62 H           9.4191    3.4764    0.7666 H       1  UNL1        0.2951
     63 H           7.6737   -2.4432   -0.8309 H       1  UNL1        0.0650
@<TRIPOS>BOND
     1     1     2    1
     2     2     3    1
     3     2     4    1
     4     4     5    1
     5     5     6    1
     6     6     7    1
     7     7     8   ar
     8     8     9    1
     9     8    10   ar
    10    10    11   ar
    11    11    12   ar
    12    12    13   ar
    13     2    14    1
    14    14    15    1
    15    15    16    1
    16    16    17    1
    17    16    18    1
    18    18    19    1
    19    19    20    1
    20    20    21   ar
    21    21    22   ar
    22    22    23    1
    23    23    24    1
    24    24    25    1
    25    25    26    1
    26    25    27    2
    27    22    28   ar
    28    28    29   ar
    29    29    30    1
    30    29    31   ar
    31    31    32    1
    32     9     5    1
    33    31    20   ar
    34    13     7   ar
    35     1    33    1
    36     1    34    1
    37     1    35    1
    38     3    36    1
    39     3    37    1
    40     3    38    1
    41     4    39    1
    42     4    40    1
    43     5    41    1
    44     6    42    1
    45     6    43    1
    46     9    44    1
    47     9    45    1
    48    10    46    1
    49    11    47    1
    50    12    48    1
    51    13    49    1
    52    14    50    1
    53    15    51    1
    54    15    52    1
    55    16    53    1
    56    17    54    1
    57    18    55    1
    58    18    56    1
    59    21    57    1
    60    23    58    1
    61    23    59    1
    62    24    60    1
    63    24    61    1
    64    26    62    1
    65    28    63    1
