@<TRIPOS>MOLECULE
*****
 48 51 0 0 0
SMALL
GASTEIGER

@<TRIPOS>ATOM
      1 O           3.7430    1.8136    0.9822 O.2     1  UNL1       -0.2449
      2 C           4.1483    0.7223    0.5758 C.2     1  UNL1        0.3401
      3 O           3.3247   -0.3576    0.3996 O.3     1  UNL1       -0.4482
      4 C           1.9465   -0.2766    0.6889 C.3     1  UNL1        0.1531
      5 C           1.2879   -1.5506    0.2226 C.1     1  UNL1       -0.0605
      6 C           0.7632   -2.5329   -0.1354 C.1     1  UNL1       -0.0877
      7 C           0.0757   -3.7923   -0.5757 C.3     1  UNL1        0.0642
      8 S          -1.5274   -3.8096    0.2470 S.3     1  UNL1       -0.0528
      9 C          -2.4522   -2.3331   -0.1251 C.ar    1  UNL1        0.2785
     10 N          -2.0307   -1.2492   -0.8204 N.ar    1  UNL1       -0.1006
     11 N          -3.0407   -0.4256   -0.8373 N.ar    1  UNL1       -0.1065
     12 C          -4.0790   -0.8960   -0.2093 C.ar    1  UNL1        0.2498
     13 C          -5.4245   -0.4114    0.0629 C.ar    1  UNL1        0.0462
     14 C          -6.3797   -1.2710    0.5920 C.ar    1  UNL1       -0.0488
     15 C          -7.6450   -0.8164    0.8541 C.ar    1  UNL1       -0.0604
     16 C          -8.0278    0.4792    0.6151 C.ar    1  UNL1       -0.0540
     17 C          -7.0964    1.3614    0.0888 C.ar    1  UNL1       -0.0172
     18 C          -7.4811    2.6528   -0.1289 C.ar    1  UNL1       -0.0540
     19 C          -6.5895    3.5528   -0.6258 C.ar    1  UNL1       -0.0612
     20 C          -5.2985    3.1321   -0.9025 C.ar    1  UNL1       -0.0611
     21 C          -4.9298    1.8141   -0.6746 C.ar    1  UNL1       -0.0533
     22 C          -5.8047    0.8795   -0.1741 C.ar    1  UNL1       -0.0056
     23 O          -3.6803   -2.1102    0.2340 O.2     1  UNL1       -0.4110
     24 C           5.5807    0.5654    0.2665 C.ar    1  UNL1        0.0591
     25 C           6.0652   -0.6885   -0.1444 C.ar    1  UNL1       -0.0472
     26 C           7.3943   -0.8450   -0.4539 C.ar    1  UNL1       -0.0493
     27 C           8.3098    0.1967   -0.3812 C.ar    1  UNL1        0.0549
     28 C           9.7456   -0.0274   -0.7363 C.3     1  UNL1        0.4174
     29 F           9.9324   -1.3826   -0.8414 F       1  UNL1       -0.1659
     30 F          10.1011    0.6673   -1.8868 F       1  UNL1       -0.1659
     31 F          10.5546    0.4322    0.2862 F       1  UNL1       -0.1659
     32 C           7.8217    1.4258    0.0251 C.ar    1  UNL1       -0.0493
     33 C           6.4766    1.5863    0.3387 C.ar    1  UNL1       -0.0472
     34 H           1.7707   -0.1332    1.7710 H       1  UNL1        0.0838
     35 H           1.5032    0.5346    0.1038 H       1  UNL1        0.0838
     36 H          -0.0714   -3.7789   -1.6593 H       1  UNL1        0.0515
     37 H           0.6844   -4.6608   -0.2634 H       1  UNL1        0.0515
     38 H          -6.1126   -2.3009    0.7929 H       1  UNL1        0.0625
     39 H          -8.4019   -1.4984    1.2697 H       1  UNL1        0.0618
     40 H          -9.0295    0.8218    0.8196 H       1  UNL1        0.0624
     41 H          -8.4852    3.0082    0.0788 H       1  UNL1        0.0624
     42 H          -6.8755    4.5931   -0.8110 H       1  UNL1        0.0618
     43 H          -4.5811    3.8498   -1.2918 H       1  UNL1        0.0618
     44 H          -3.9166    1.5453   -0.9047 H       1  UNL1        0.0624
     45 H           5.3466   -1.5058   -0.1976 H       1  UNL1        0.0626
     46 H           7.7779   -1.8199   -0.7731 H       1  UNL1        0.0623
     47 H           8.5001    2.2744    0.1025 H       1  UNL1        0.0623
     48 H           6.1069    2.5652    0.6531 H       1  UNL1        0.0626
@<TRIPOS>BOND
     1     1     2    2
     2     2     3    1
     3     3     4    1
     4     4     5    1
     5     5     6    3
     6     6     7    1
     7     7     8    1
     8     8     9    1
     9     9    10   ar
    10    10    11   ar
    11    11    12   ar
    12    12    13    1
    13    13    14   ar
    14    14    15   ar
    15    15    16   ar
    16    16    17   ar
    17    17    18   ar
    18    18    19   ar
    19    19    20   ar
    20    20    21   ar
    21    21    22   ar
    22    12    23   ar
    23     2    24    1
    24    24    25   ar
    25    25    26   ar
    26    26    27   ar
    27    27    28    1
    28    28    29    1
    29    28    30    1
    30    28    31    1
    31    27    32   ar
    32    32    33   ar
    33    23     9   ar
    34    33    24   ar
    35    22    13   ar
    36    22    17   ar
    37     4    34    1
    38     4    35    1
    39     7    36    1
    40     7    37    1
    41    14    38    1
    42    15    39    1
    43    16    40    1
    44    18    41    1
    45    19    42    1
    46    20    43    1
    47    21    44    1
    48    25    45    1
    49    26    46    1
    50    32    47    1
    51    33    48    1
