
     RDKit          3D

 52 56  0  0  0  0  0  0  0  0999 V2000
    2.5030   -2.5943    1.2314 N   0  0  0  0  0  0  0  0  0  0  0  0
    1.0949   -2.7052    1.2419 C   0  0  0  0  0  0  0  0  0  0  0  0
    0.4895   -3.9010    1.1286 N   0  0  0  0  0  0  0  0  0  0  0  0
   -0.8444   -4.0457    1.1346 C   0  0  0  0  0  0  0  0  0  0  0  0
   -1.6004   -2.9525    1.2585 N   0  0  0  0  0  0  0  0  0  0  0  0
   -1.0831   -1.7113    1.3777 C   0  0  0  0  0  0  0  0  0  0  0  0
    0.2861   -1.5919    1.3686 C   0  0  0  0  0  0  0  0  0  0  0  0
    0.5271   -0.2376    1.5043 C   0  0  0  0  0  0  0  0  0  0  0  0
    1.8965    0.3861    1.5460 C   0  0  0  0  0  0  0  0  0  0  0  0
    2.4902    0.4464    0.1914 C   0  0  0  0  0  0  0  0  0  0  0  0
    1.8693    0.0065   -0.9431 C   0  0  0  0  0  0  0  0  0  0  0  0
    2.5066    0.1044   -2.1849 C   0  0  0  0  0  0  0  0  0  0  0  0
    3.7735    0.6473   -2.2822 C   0  0  0  0  0  0  0  0  0  0  0  0
    4.3992    1.0905   -1.1380 C   0  0  0  0  0  0  0  0  0  0  0  0
    5.6642    1.6310   -1.2440 C   0  0  0  0  0  0  0  0  0  0  0  0
    6.3309    2.0893   -0.1185 C   0  0  0  0  0  0  0  0  0  0  0  0
    5.7040    1.9960    1.1218 C   0  0  0  0  0  0  0  0  0  0  0  0
    4.4390    1.4520    1.2031 C   0  0  0  0  0  0  0  0  0  0  0  0
    3.7557    0.9881    0.0910 C   0  0  0  0  0  0  0  0  0  0  0  0
   -0.6675    0.3740    1.5858 N   0  0  0  0  0  0  0  0  0  0  0  0
   -1.6333   -0.4945    1.5115 N   0  0  0  0  0  0  0  0  0  0  0  0
   -3.0875   -0.2755    1.5579 C   0  0  0  0  0  0  0  0  0  0  0  0
   -3.6480   -0.0585    0.1827 C   0  0  0  0  0  0  0  0  0  0  0  0
   -3.0779    1.1211   -0.5389 C   0  0  0  0  0  0  0  0  0  0  0  0
   -4.1039    1.7924   -1.4392 C   0  0  0  0  0  0  0  0  0  0  0  0
   -4.9937    0.8117   -2.0325 N   0  0  0  0  0  0  0  0  0  0  0  0
   -5.8206    0.1501   -1.0434 C   0  0  0  0  0  0  0  0  0  0  0  0
   -5.1393    0.1270    0.3057 C   0  0  0  0  0  0  0  0  0  0  0  0
    2.9704   -2.5035    0.3007 H   0  0  0  0  0  0  0  0  0  0  0  0
    3.1030   -2.5973    2.0908 H   0  0  0  0  0  0  0  0  0  0  0  0
   -1.2648   -5.0499    1.0384 H   0  0  0  0  0  0  0  0  0  0  0  0
    1.7354    1.4395    1.8745 H   0  0  0  0  0  0  0  0  0  0  0  0
    2.5260   -0.1806    2.2369 H   0  0  0  0  0  0  0  0  0  0  0  0
    0.8695   -0.4212   -0.8632 H   0  0  0  0  0  0  0  0  0  0  0  0
    1.9851   -0.2551   -3.0657 H   0  0  0  0  0  0  0  0  0  0  0  0
    4.2423    0.7088   -3.2695 H   0  0  0  0  0  0  0  0  0  0  0  0
    6.1938    1.7259   -2.1814 H   0  0  0  0  0  0  0  0  0  0  0  0
    7.3189    2.5187   -0.1535 H   0  0  0  0  0  0  0  0  0  0  0  0
    6.2296    2.3542    1.9885 H   0  0  0  0  0  0  0  0  0  0  0  0
    3.9991    1.4036    2.1915 H   0  0  0  0  0  0  0  0  0  0  0  0
   -3.2999    0.5909    2.2132 H   0  0  0  0  0  0  0  0  0  0  0  0
   -3.5694   -1.1717    1.9835 H   0  0  0  0  0  0  0  0  0  0  0  0
   -3.5063   -1.0169   -0.3887 H   0  0  0  0  0  0  0  0  0  0  0  0
   -2.6335    1.8897    0.0971 H   0  0  0  0  0  0  0  0  0  0  0  0
   -2.2877    0.7122   -1.2357 H   0  0  0  0  0  0  0  0  0  0  0  0
   -3.5449    2.2722   -2.2569 H   0  0  0  0  0  0  0  0  0  0  0  0
   -4.7483    2.5037   -0.8834 H   0  0  0  0  0  0  0  0  0  0  0  0
   -4.4905    0.1304   -2.6455 H   0  0  0  0  0  0  0  0  0  0  0  0
   -6.1311   -0.8604   -1.3682 H   0  0  0  0  0  0  0  0  0  0  0  0
   -6.7479    0.7491   -0.9349 H   0  0  0  0  0  0  0  0  0  0  0  0
   -5.3618    1.0844    0.8216 H   0  0  0  0  0  0  0  0  0  0  0  0
   -5.6171   -0.6726    0.9175 H   0  0  0  0  0  0  0  0  0  0  0  0
  1  2  1  0
  2  3  2  0
  3  4  1  0
  4  5  2  0
  5  6  1  0
  6  7  2  0
  7  8  1  0
  8  9  1  0
  9 10  1  0
 10 11  2  0
 11 12  1  0
 12 13  2  0
 13 14  1  0
 14 15  2  0
 15 16  1  0
 16 17  2  0
 17 18  1  0
 18 19  2  0
  8 20  2  0
 20 21  1  0
 21 22  1  0
 22 23  1  0
 23 24  1  0
 24 25  1  0
 25 26  1  0
 26 27  1  0
 27 28  1  0
  7  2  1  0
 19 10  1  0
 28 23  1  0
 21  6  1  0
 19 14  1  0
  1 29  1  0
  1 30  1  0
  4 31  1  0
  9 32  1  0
  9 33  1  0
 11 34  1  0
 12 35  1  0
 13 36  1  0
 15 37  1  0
 16 38  1  0
 17 39  1  0
 18 40  1  0
 22 41  1  0
 22 42  1  0
 23 43  1  0
 24 44  1  0
 24 45  1  0
 25 46  1  0
 25 47  1  0
 26 48  1  0
 27 49  1  0
 27 50  1  0
 28 51  1  0
 28 52  1  0
M  END
$$$$
