@<TRIPOS>MOLECULE
*****
 52 56 0 0 0
SMALL
GASTEIGER

@<TRIPOS>ATOM
      1 N           2.5030   -2.5943    1.2314 N.pl3   1  UNL1       -0.3425
      2 C           1.0949   -2.7052    1.2419 C.ar    1  UNL1        0.1305
      3 N           0.4895   -3.9010    1.1286 N.ar    1  UNL1       -0.2204
      4 C          -0.8444   -4.0457    1.1346 C.ar    1  UNL1        0.1204
      5 N          -1.6004   -2.9525    1.2585 N.ar    1  UNL1       -0.2162
      6 C          -1.0831   -1.7113    1.3777 C.ar    1  UNL1        0.1635
      7 C           0.2861   -1.5919    1.3686 C.ar    1  UNL1        0.0815
      8 C           0.5271   -0.2376    1.5043 C.ar    1  UNL1        0.0799
      9 C           1.8965    0.3861    1.5460 C.3     1  UNL1        0.0179
     10 C           2.4902    0.4464    0.1914 C.ar    1  UNL1       -0.0338
     11 C           1.8693    0.0065   -0.9431 C.ar    1  UNL1       -0.0576
     12 C           2.5066    0.1044   -2.1849 C.ar    1  UNL1       -0.0609
     13 C           3.7735    0.6473   -2.2822 C.ar    1  UNL1       -0.0540
     14 C           4.3992    1.0905   -1.1380 C.ar    1  UNL1       -0.0176
     15 C           5.6642    1.6310   -1.2440 C.ar    1  UNL1       -0.0540
     16 C           6.3309    2.0893   -0.1185 C.ar    1  UNL1       -0.0612
     17 C           5.7040    1.9960    1.1218 C.ar    1  UNL1       -0.0612
     18 C           4.4390    1.4520    1.2031 C.ar    1  UNL1       -0.0538
     19 C           3.7557    0.9881    0.0910 C.ar    1  UNL1       -0.0143
     20 N          -0.6675    0.3740    1.5858 N.ar    1  UNL1       -0.1733
     21 N          -1.6333   -0.4945    1.5115 N.ar    1  UNL1       -0.2458
     22 C          -3.0875   -0.2755    1.5579 C.3     1  UNL1        0.0467
     23 C          -3.6480   -0.0585    0.1827 C.3     1  UNL1       -0.0191
     24 C          -3.0779    1.1211   -0.5389 C.3     1  UNL1       -0.0359
     25 C          -4.1039    1.7924   -1.4392 C.3     1  UNL1       -0.0038
     26 N          -4.9937    0.8117   -2.0325 N.3     1  UNL1       -0.3160
     27 C          -5.8206    0.1501   -1.0434 C.3     1  UNL1       -0.0038
     28 C          -5.1393    0.1270    0.3057 C.3     1  UNL1       -0.0359
     29 H           2.9704   -2.5035    0.3007 H       1  UNL1        0.1437
     30 H           3.1030   -2.5973    2.0908 H       1  UNL1        0.1437
     31 H          -1.2648   -5.0499    1.0384 H       1  UNL1        0.1048
     32 H           1.7354    1.4395    1.8745 H       1  UNL1        0.0378
     33 H           2.5260   -0.1806    2.2369 H       1  UNL1        0.0378
     34 H           0.8695   -0.4212   -0.8632 H       1  UNL1        0.0621
     35 H           1.9851   -0.2551   -3.0657 H       1  UNL1        0.0618
     36 H           4.2423    0.7088   -3.2695 H       1  UNL1        0.0624
     37 H           6.1938    1.7259   -2.1814 H       1  UNL1        0.0624
     38 H           7.3189    2.5187   -0.1535 H       1  UNL1        0.0618
     39 H           6.2296    2.3542    1.9885 H       1  UNL1        0.0618
     40 H           3.9991    1.4036    2.1915 H       1  UNL1        0.0624
     41 H          -3.2999    0.5909    2.2132 H       1  UNL1        0.0512
     42 H          -3.5694   -1.1717    1.9835 H       1  UNL1        0.0512
     43 H          -3.5063   -1.0169   -0.3887 H       1  UNL1        0.0319
     44 H          -2.6335    1.8897    0.0971 H       1  UNL1        0.0281
     45 H          -2.2877    0.7122   -1.2357 H       1  UNL1        0.0281
     46 H          -3.5449    2.2722   -2.2569 H       1  UNL1        0.0424
     47 H          -4.7483    2.5037   -0.8834 H       1  UNL1        0.0424
     48 H          -4.4905    0.1304   -2.6455 H       1  UNL1        0.1219
     49 H          -6.1311   -0.8604   -1.3682 H       1  UNL1        0.0424
     50 H          -6.7479    0.7491   -0.9349 H       1  UNL1        0.0424
     51 H          -5.3618    1.0844    0.8216 H       1  UNL1        0.0281
     52 H          -5.6171   -0.6726    0.9175 H       1  UNL1        0.0281
@<TRIPOS>BOND
     1     1     2    1
     2     2     3   ar
     3     3     4   ar
     4     4     5   ar
     5     5     6   ar
     6     6     7   ar
     7     7     8   ar
     8     8     9    1
     9     9    10    1
    10    10    11   ar
    11    11    12   ar
    12    12    13   ar
    13    13    14   ar
    14    14    15   ar
    15    15    16   ar
    16    16    17   ar
    17    17    18   ar
    18    18    19   ar
    19     8    20   ar
    20    20    21   ar
    21    21    22    1
    22    22    23    1
    23    23    24    1
    24    24    25    1
    25    25    26    1
    26    26    27    1
    27    27    28    1
    28     7     2   ar
    29    19    10   ar
    30    28    23    1
    31    21     6   ar
    32    19    14   ar
    33     1    29    1
    34     1    30    1
    35     4    31    1
    36     9    32    1
    37     9    33    1
    38    11    34    1
    39    12    35    1
    40    13    36    1
    41    15    37    1
    42    16    38    1
    43    17    39    1
    44    18    40    1
    45    22    41    1
    46    22    42    1
    47    23    43    1
    48    24    44    1
    49    24    45    1
    50    25    46    1
    51    25    47    1
    52    26    48    1
    53    27    49    1
    54    27    50    1
    55    28    51    1
    56    28    52    1
