@<TRIPOS>MOLECULE
*****
 45 47 0 0 0
SMALL
GASTEIGER

@<TRIPOS>ATOM
      1 C          -6.2853   -1.3973    0.4660 C.3     1  UNL1        0.0788
      2 O          -4.9229   -1.7779    0.3865 O.3     1  UNL1       -0.4950
      3 C          -3.9954   -0.7663    0.2086 C.ar    1  UNL1        0.1242
      4 C          -2.6586   -1.1242    0.1316 C.ar    1  UNL1       -0.0090
      5 C          -1.6284   -0.1964   -0.0461 C.ar    1  UNL1        0.0261
      6 C          -2.0100    1.1198   -0.1434 C.ar    1  UNL1       -0.0090
      7 C          -3.3142    1.5685   -0.0785 C.ar    1  UNL1        0.1242
      8 O          -3.6828    2.9023   -0.1795 O.3     1  UNL1       -0.4950
      9 C          -5.0712    3.2298   -0.0958 C.3     1  UNL1        0.0788
     10 C          -4.2531    0.5697    0.0984 C.ar    1  UNL1        0.0218
     11 C          -0.2571   -0.6500   -0.0765 C.ar    1  UNL1        0.1626
     12 N           0.7759    0.2067   -0.1560 N.ar    1  UNL1       -0.2268
     13 C           2.0627   -0.2307   -0.1621 C.ar    1  UNL1        0.0824
     14 C           2.2916   -1.5851   -0.0861 C.ar    1  UNL1        0.0317
     15 C           3.6589   -2.1486   -0.1052 C.3     1  UNL1        0.0239
     16 N           4.3147   -2.0639    1.1491 N.3     1  UNL1       -0.3260
     17 C           1.2333   -2.4929   -0.0032 C.ar    1  UNL1        0.1250
     18 N           1.5018   -3.8757    0.0741 N.pl3   1  UNL1       -0.3428
     19 N          -0.0057   -1.9833   -0.0018 N.ar    1  UNL1       -0.2127
     20 C           3.0682    0.8057   -0.2810 C.ar    1  UNL1        0.0192
     21 C           3.9331    1.0569    0.7992 C.ar    1  UNL1       -0.0498
     22 C           4.8139    2.1018    0.5894 C.ar    1  UNL1       -0.0427
     23 C           4.9552    2.9103   -0.5045 C.ar    1  UNL1        0.0424
     24 CL          6.1564    4.1805   -0.5255 Cl      1  UNL1       -0.0835
     25 C           4.0776    2.5975   -1.5009 C.ar    1  UNL1       -0.0244
     26 C           3.1485    1.5919   -1.4425 C.ar    1  UNL1        0.0515
     27 CL          2.0718    1.2638   -2.7797 Cl      1  UNL1       -0.0828
     28 H          -6.8904   -2.2354    0.9079 H       1  UNL1        0.0660
     29 H          -6.3384   -0.5330    1.1879 H       1  UNL1        0.0660
     30 H          -6.7183   -1.1219   -0.5129 H       1  UNL1        0.0660
     31 H          -2.3910   -2.1644    0.2101 H       1  UNL1        0.0661
     32 H          -1.2422    1.8731   -0.2832 H       1  UNL1        0.0661
     33 H          -5.6453    2.6383   -0.8281 H       1  UNL1        0.0660
     34 H          -5.2510    4.2962   -0.2405 H       1  UNL1        0.0660
     35 H          -5.4432    2.8950    0.9142 H       1  UNL1        0.0660
     36 H          -5.2952    0.8784    0.1537 H       1  UNL1        0.0691
     37 H           3.6120   -3.2338   -0.3911 H       1  UNL1        0.0473
     38 H           4.2246   -1.6812   -0.9429 H       1  UNL1        0.0473
     39 H           4.2513   -2.9354    1.7232 H       1  UNL1        0.1185
     40 H           5.2976   -1.7765    1.0876 H       1  UNL1        0.1185
     41 H           2.1557   -4.3139    0.7575 H       1  UNL1        0.1437
     42 H           2.1265   -4.4353    0.7036 H       1  UNL1        0.1437
     43 H           3.9343    0.5224    1.7327 H       1  UNL1        0.0625
     44 H           5.4908    2.2989    1.4388 H       1  UNL1        0.0632
     45 H           4.1434    3.2156   -2.4121 H       1  UNL1        0.0647
@<TRIPOS>BOND
     1     1     2    1
     2     2     3    1
     3     3     4   ar
     4     4     5   ar
     5     5     6   ar
     6     6     7   ar
     7     7     8    1
     8     8     9    1
     9     7    10   ar
    10     5    11    1
    11    11    12   ar
    12    12    13   ar
    13    13    14   ar
    14    14    15    1
    15    15    16    1
    16    14    17   ar
    17    17    18    1
    18    17    19   ar
    19    13    20    1
    20    20    21   ar
    21    21    22   ar
    22    22    23   ar
    23    23    24    1
    24    23    25   ar
    25    25    26   ar
    26    26    27    1
    27    10     3   ar
    28    19    11   ar
    29    26    20   ar
    30     1    28    1
    31     1    29    1
    32     1    30    1
    33     4    31    1
    34     6    32    1
    35     9    33    1
    36     9    34    1
    37     9    35    1
    38    10    36    1
    39    15    37    1
    40    15    38    1
    41    16    39    1
    42    16    40    1
    43    18    41    1
    44    18    42    1
    45    21    43    1
    46    22    44    1
    47    25    45    1
