@<TRIPOS>MOLECULE
*****
 65 70 0 0 0
SMALL
GASTEIGER

@<TRIPOS>ATOM
      1 C          -8.1227   -2.2199   -0.5288 C.3     1  UNL1        0.0032
      2 N          -6.9581   -1.5435    0.0675 N.am    1  UNL1       -0.3024
      3 C          -7.2350   -0.6590    1.1806 C.3     1  UNL1        0.0032
      4 C          -5.6731   -1.7926   -0.4626 C.2     1  UNL1        0.2627
      5 O          -5.6045   -2.6077   -1.4528 O.2     1  UNL1       -0.2684
      6 C          -4.4712   -1.1948    0.0494 C.ar    1  UNL1        0.1070
      7 C          -3.9273   -1.6046    1.2700 C.ar    1  UNL1       -0.0209
      8 C          -2.7903   -0.8631    1.4036 C.ar    1  UNL1        0.0378
      9 C          -1.8126   -0.8164    2.3950 C.ar    1  UNL1        0.0419
     10 N          -0.7546    0.0062    2.3021 N.ar    1  UNL1       -0.2219
     11 C          -0.6313    0.8179    1.2153 C.ar    1  UNL1        0.2224
     12 N           0.4187    1.7271    1.0702 N.pl3   1  UNL1       -0.2685
     13 C           1.7797    1.3900    1.2146 C.ar    1  UNL1        0.1250
     14 C           2.2865    0.1314    1.4547 C.ar    1  UNL1       -0.0208
     15 C           3.6248   -0.1344    1.6339 C.ar    1  UNL1       -0.0449
     16 C           4.5268    0.8936    1.5756 C.ar    1  UNL1        0.0551
     17 C           5.9143    0.7348    1.7897 C.2     1  UNL1        0.2481
     18 O           6.3419    1.0895    2.9608 O.2     1  UNL1       -0.2699
     19 N           6.8386    0.2358    0.8278 N.am    1  UNL1       -0.2968
     20 C           6.6044   -0.2149   -0.5057 C.3     1  UNL1        0.0196
     21 C           7.7276   -1.1377   -0.8488 C.3     1  UNL1       -0.0040
     22 C           9.0569   -0.6028   -1.2345 C.3     1  UNL1        0.0141
     23 N           9.9955   -1.5158   -1.8403 N.3     1  UNL1       -0.3266
     24 C           8.7877   -0.9286    0.2275 C.3     1  UNL1       -0.0040
     25 C           8.2700    0.1362    1.1141 C.3     1  UNL1        0.0196
     26 C           4.0264    2.1808    1.3310 C.ar    1  UNL1        0.0418
     27 N           2.7283    2.3790    1.1649 N.ar    1  UNL1       -0.2394
     28 N          -1.5858    0.7477    0.2799 N.ar    1  UNL1       -0.1962
     29 C          -2.6693   -0.0604    0.3222 C.ar    1  UNL1        0.1466
     30 N          -3.7311   -0.2698   -0.5321 N.ar    1  UNL1       -0.3180
     31 C          -3.8016    0.4913   -1.7192 C.3     1  UNL1        0.0366
     32 C          -3.6931    1.9769   -1.3111 C.3     1  UNL1       -0.0320
     33 C          -4.9949    2.6251   -1.7008 C.3     1  UNL1       -0.0511
     34 C          -5.9569    1.4637   -1.9809 C.3     1  UNL1       -0.0511
     35 C          -4.9719    0.4747   -2.5726 C.3     1  UNL1       -0.0320
     36 H          -7.8021   -2.8129   -1.4047 H       1  UNL1        0.0428
     37 H          -8.5831   -2.8826    0.2595 H       1  UNL1        0.0428
     38 H          -8.8207   -1.4494   -0.8809 H       1  UNL1        0.0428
     39 H          -7.5948    0.3283    0.8110 H       1  UNL1        0.0428
     40 H          -6.3808   -0.5912    1.8758 H       1  UNL1        0.0428
     41 H          -8.1151   -1.1055    1.7390 H       1  UNL1        0.0428
     42 H          -4.2968   -2.3275    1.9744 H       1  UNL1        0.0647
     43 H          -1.9081   -1.4479    3.2469 H       1  UNL1        0.0838
     44 H           0.1751    2.7181    0.8507 H       1  UNL1        0.1564
     45 H           1.5547   -0.6954    1.5022 H       1  UNL1        0.0652
     46 H           3.9449   -1.1307    1.8171 H       1  UNL1        0.0627
     47 H           6.5769    0.6846   -1.1729 H       1  UNL1        0.0468
     48 H           5.6065   -0.7427   -0.6042 H       1  UNL1        0.0468
     49 H           7.5310   -2.1959   -1.1195 H       1  UNL1        0.0335
     50 H           9.1127    0.4389   -1.5470 H       1  UNL1        0.0465
     51 H          10.9884   -1.3450   -1.5359 H       1  UNL1        0.1185
     52 H           9.8995   -1.6128   -2.8721 H       1  UNL1        0.1185
     53 H           9.2917   -1.8283    0.6661 H       1  UNL1        0.0335
     54 H           8.6993    1.1346    0.9021 H       1  UNL1        0.0468
     55 H           8.4006   -0.1149    2.1945 H       1  UNL1        0.0468
     56 H           4.7678    2.9764    1.3009 H       1  UNL1        0.0838
     57 H          -2.8683    0.3254   -2.3411 H       1  UNL1        0.0528
     58 H          -3.6117    2.0841   -0.2147 H       1  UNL1        0.0285
     59 H          -2.8159    2.4645   -1.7475 H       1  UNL1        0.0285
     60 H          -5.3971    3.2864   -0.9246 H       1  UNL1        0.0266
     61 H          -4.8022    3.2168   -2.6218 H       1  UNL1        0.0266
     62 H          -6.6343    1.8372   -2.7704 H       1  UNL1        0.0266
     63 H          -6.4209    1.1224   -1.0642 H       1  UNL1        0.0266
     64 H          -4.6409    0.9991   -3.5451 H       1  UNL1        0.0285
     65 H          -5.3992   -0.4466   -2.9338 H       1  UNL1        0.0285
@<TRIPOS>BOND
     1     1     2    1
     2     2     3    1
     3     2     4   am
     4     4     5    2
     5     4     6    1
     6     6     7   ar
     7     7     8   ar
     8     8     9   ar
     9     9    10   ar
    10    10    11   ar
    11    11    12    1
    12    12    13    1
    13    13    14   ar
    14    14    15   ar
    15    15    16   ar
    16    16    17    1
    17    17    18    2
    18    17    19   am
    19    19    20    1
    20    20    21    1
    21    21    22    1
    22    22    23    1
    23    22    24    1
    24    24    25    1
    25    16    26   ar
    26    26    27   ar
    27    11    28   ar
    28    28    29   ar
    29    29    30   ar
    30    30    31    1
    31    31    32    1
    32    32    33    1
    33    33    34    1
    34    34    35    1
    35    30     6   ar
    36    35    31    1
    37    29     8   ar
    38    27    13   ar
    39    25    19    1
    40    24    21    1
    41     1    36    1
    42     1    37    1
    43     1    38    1
    44     3    39    1
    45     3    40    1
    46     3    41    1
    47     7    42    1
    48     9    43    1
    49    12    44    1
    50    14    45    1
    51    15    46    1
    52    20    47    1
    53    20    48    1
    54    21    49    1
    55    22    50    1
    56    23    51    1
    57    23    52    1
    58    24    53    1
    59    25    54    1
    60    25    55    1
    61    26    56    1
    62    31    57    1
    63    32    58    1
    64    32    59    1
    65    33    60    1
    66    33    61    1
    67    34    62    1
    68    34    63    1
    69    35    64    1
    70    35    65    1
