
     RDKit          3D

 65 70  0  0  0  0  0  0  0  0999 V2000
   -8.1227   -2.2199   -0.5288 C   0  0  0  0  0  0  0  0  0  0  0  0
   -6.9581   -1.5435    0.0675 N   0  0  0  0  0  0  0  0  0  0  0  0
   -7.2350   -0.6590    1.1806 C   0  0  0  0  0  0  0  0  0  0  0  0
   -5.6731   -1.7926   -0.4626 C   0  0  0  0  0  0  0  0  0  0  0  0
   -5.6045   -2.6077   -1.4528 O   0  0  0  0  0  0  0  0  0  0  0  0
   -4.4712   -1.1948    0.0494 C   0  0  0  0  0  0  0  0  0  0  0  0
   -3.9273   -1.6046    1.2700 C   0  0  0  0  0  0  0  0  0  0  0  0
   -2.7903   -0.8631    1.4036 C   0  0  0  0  0  0  0  0  0  0  0  0
   -1.8126   -0.8164    2.3950 C   0  0  0  0  0  0  0  0  0  0  0  0
   -0.7546    0.0062    2.3021 N   0  0  0  0  0  0  0  0  0  0  0  0
   -0.6313    0.8179    1.2153 C   0  0  0  0  0  0  0  0  0  0  0  0
    0.4187    1.7271    1.0702 N   0  0  0  0  0  0  0  0  0  0  0  0
    1.7797    1.3900    1.2146 C   0  0  0  0  0  0  0  0  0  0  0  0
    2.2865    0.1314    1.4547 C   0  0  0  0  0  0  0  0  0  0  0  0
    3.6248   -0.1344    1.6339 C   0  0  0  0  0  0  0  0  0  0  0  0
    4.5268    0.8936    1.5756 C   0  0  0  0  0  0  0  0  0  0  0  0
    5.9143    0.7348    1.7897 C   0  0  0  0  0  0  0  0  0  0  0  0
    6.3419    1.0895    2.9608 O   0  0  0  0  0  0  0  0  0  0  0  0
    6.8386    0.2358    0.8278 N   0  0  0  0  0  0  0  0  0  0  0  0
    6.6044   -0.2149   -0.5057 C   0  0  0  0  0  0  0  0  0  0  0  0
    7.7276   -1.1377   -0.8488 C   0  0  1  0  0  0  0  0  0  0  0  0
    9.0569   -0.6028   -1.2345 C   0  0  2  0  0  0  0  0  0  0  0  0
    9.9955   -1.5158   -1.8403 N   0  0  0  0  0  0  0  0  0  0  0  0
    8.7877   -0.9286    0.2275 C   0  0  1  0  0  0  0  0  0  0  0  0
    8.2700    0.1362    1.1141 C   0  0  0  0  0  0  0  0  0  0  0  0
    4.0264    2.1808    1.3310 C   0  0  0  0  0  0  0  0  0  0  0  0
    2.7283    2.3790    1.1649 N   0  0  0  0  0  0  0  0  0  0  0  0
   -1.5858    0.7477    0.2799 N   0  0  0  0  0  0  0  0  0  0  0  0
   -2.6693   -0.0604    0.3222 C   0  0  0  0  0  0  0  0  0  0  0  0
   -3.7311   -0.2698   -0.5321 N   0  0  0  0  0  0  0  0  0  0  0  0
   -3.8016    0.4913   -1.7192 C   0  0  0  0  0  0  0  0  0  0  0  0
   -3.6931    1.9769   -1.3111 C   0  0  0  0  0  0  0  0  0  0  0  0
   -4.9949    2.6251   -1.7008 C   0  0  0  0  0  0  0  0  0  0  0  0
   -5.9569    1.4637   -1.9809 C   0  0  0  0  0  0  0  0  0  0  0  0
   -4.9719    0.4747   -2.5726 C   0  0  0  0  0  0  0  0  0  0  0  0
   -7.8021   -2.8129   -1.4047 H   0  0  0  0  0  0  0  0  0  0  0  0
   -8.5831   -2.8826    0.2595 H   0  0  0  0  0  0  0  0  0  0  0  0
   -8.8207   -1.4494   -0.8809 H   0  0  0  0  0  0  0  0  0  0  0  0
   -7.5948    0.3283    0.8110 H   0  0  0  0  0  0  0  0  0  0  0  0
   -6.3808   -0.5912    1.8758 H   0  0  0  0  0  0  0  0  0  0  0  0
   -8.1151   -1.1055    1.7390 H   0  0  0  0  0  0  0  0  0  0  0  0
   -4.2968   -2.3275    1.9744 H   0  0  0  0  0  0  0  0  0  0  0  0
   -1.9081   -1.4479    3.2469 H   0  0  0  0  0  0  0  0  0  0  0  0
    0.1751    2.7181    0.8507 H   0  0  0  0  0  0  0  0  0  0  0  0
    1.5547   -0.6954    1.5022 H   0  0  0  0  0  0  0  0  0  0  0  0
    3.9449   -1.1307    1.8171 H   0  0  0  0  0  0  0  0  0  0  0  0
    6.5769    0.6846   -1.1729 H   0  0  0  0  0  0  0  0  0  0  0  0
    5.6065   -0.7427   -0.6042 H   0  0  0  0  0  0  0  0  0  0  0  0
    7.5310   -2.1959   -1.1195 H   0  0  0  0  0  0  0  0  0  0  0  0
    9.1127    0.4389   -1.5470 H   0  0  0  0  0  0  0  0  0  0  0  0
   10.9884   -1.3450   -1.5359 H   0  0  0  0  0  0  0  0  0  0  0  0
    9.8995   -1.6128   -2.8721 H   0  0  0  0  0  0  0  0  0  0  0  0
    9.2917   -1.8283    0.6661 H   0  0  0  0  0  0  0  0  0  0  0  0
    8.6993    1.1346    0.9021 H   0  0  0  0  0  0  0  0  0  0  0  0
    8.4006   -0.1149    2.1945 H   0  0  0  0  0  0  0  0  0  0  0  0
    4.7678    2.9764    1.3009 H   0  0  0  0  0  0  0  0  0  0  0  0
   -2.8683    0.3254   -2.3411 H   0  0  0  0  0  0  0  0  0  0  0  0
   -3.6117    2.0841   -0.2147 H   0  0  0  0  0  0  0  0  0  0  0  0
   -2.8159    2.4645   -1.7475 H   0  0  0  0  0  0  0  0  0  0  0  0
   -5.3971    3.2864   -0.9246 H   0  0  0  0  0  0  0  0  0  0  0  0
   -4.8022    3.2168   -2.6218 H   0  0  0  0  0  0  0  0  0  0  0  0
   -6.6343    1.8372   -2.7704 H   0  0  0  0  0  0  0  0  0  0  0  0
   -6.4209    1.1224   -1.0642 H   0  0  0  0  0  0  0  0  0  0  0  0
   -4.6409    0.9991   -3.5451 H   0  0  0  0  0  0  0  0  0  0  0  0
   -5.3992   -0.4466   -2.9338 H   0  0  0  0  0  0  0  0  0  0  0  0
  1  2  1  0
  2  3  1  0
  2  4  1  0
  4  5  2  0
  4  6  1  0
  6  7  2  0
  7  8  1  0
  8  9  2  0
  9 10  1  0
 10 11  2  0
 11 12  1  0
 12 13  1  0
 13 14  2  0
 14 15  1  0
 15 16  2  0
 16 17  1  0
 17 18  2  0
 17 19  1  0
 19 20  1  0
 20 21  1  0
 21 22  1  0
 22 23  1  0
 22 24  1  0
 24 25  1  0
 16 26  1  0
 26 27  2  0
 11 28  1  0
 28 29  2  0
 29 30  1  0
 30 31  1  0
 31 32  1  0
 32 33  1  0
 33 34  1  0
 34 35  1  0
 30  6  1  0
 35 31  1  0
 29  8  1  0
 27 13  1  0
 25 19  1  0
 24 21  1  0
  1 36  1  0
  1 37  1  0
  1 38  1  0
  3 39  1  0
  3 40  1  0
  3 41  1  0
  7 42  1  0
  9 43  1  0
 12 44  1  0
 14 45  1  0
 15 46  1  0
 20 47  1  0
 20 48  1  0
 21 49  1  6
 22 50  1  1
 23 51  1  0
 23 52  1  0
 24 53  1  1
 25 54  1  0
 25 55  1  0
 26 56  1  0
 31 57  1  0
 32 58  1  0
 32 59  1  0
 33 60  1  0
 33 61  1  0
 34 62  1  0
 34 63  1  0
 35 64  1  0
 35 65  1  0
M  END
$$$$
