@<TRIPOS>MOLECULE
*****
 49 53 0 0 0
SMALL
GASTEIGER

@<TRIPOS>ATOM
      1 C           6.7915   -1.2382   -3.2672 C.3     1  UNL1       -0.0222
      2 C           6.1455   -1.0202   -1.9471 C.ar    1  UNL1        0.0421
      3 C           6.9258   -0.9562   -0.8111 C.ar    1  UNL1       -0.0224
      4 C           6.3329   -0.7538    0.4130 C.ar    1  UNL1        0.0331
      5 N           5.0055   -0.6124    0.5620 N.ar    1  UNL1       -0.2211
      6 N           4.2288   -0.4129    1.6145 N.ar    1  UNL1       -0.1683
      7 C           2.9482   -0.3399    1.2269 C.ar    1  UNL1        0.0839
      8 C           2.9469   -0.5046   -0.1387 C.ar    1  UNL1        0.0349
      9 C           4.2565   -0.6775   -0.5577 C.ar    1  UNL1        0.1603
     10 N           4.8199   -0.8768   -1.7801 N.ar    1  UNL1       -0.2326
     11 C           1.5524   -0.4288   -0.5983 C.3     1  UNL1        0.0301
     12 N           0.7199   -0.4741    0.5680 N.3     1  UNL1       -0.2871
     13 C          -0.3342    0.5203    0.5218 C.3     1  UNL1        0.0360
     14 C          -1.2526    0.3713   -0.6476 C.3     1  UNL1        0.0641
     15 O          -2.2842   -0.5178   -0.4829 O.3     1  UNL1       -0.3688
     16 C          -3.1567   -0.1590    0.5458 C.3     1  UNL1        0.1015
     17 C          -4.5129    0.1780    0.0858 C.ar    1  UNL1        0.0205
     18 C          -4.6855    0.8405   -1.1129 C.ar    1  UNL1       -0.0180
     19 C          -5.9317    1.1810   -1.5949 C.ar    1  UNL1        0.1239
     20 F          -6.1159    1.8307   -2.7693 F       1  UNL1       -0.2055
     21 C          -7.0213    0.8221   -0.8083 C.ar    1  UNL1       -0.0237
     22 C          -6.8475    0.1584    0.3923 C.ar    1  UNL1       -0.0234
     23 C          -5.6005   -0.1796    0.8697 C.ar    1  UNL1        0.1292
     24 F          -5.4640   -0.8304    2.0509 F       1  UNL1       -0.2051
     25 C          -2.5522    0.9133    1.4272 C.3     1  UNL1        0.0371
     26 N          -3.2868    1.0650    2.6484 N.3     1  UNL1       -0.3248
     27 C          -1.1531    0.3926    1.7870 C.3     1  UNL1       -0.0172
     28 C           1.5415   -0.1498    1.7095 C.3     1  UNL1        0.0440
     29 H           7.6469   -0.5253   -3.3385 H       1  UNL1        0.0293
     30 H           7.2074   -2.2678   -3.2603 H       1  UNL1        0.0293
     31 H           6.0963   -1.1371   -4.1033 H       1  UNL1        0.0293
     32 H           8.0151   -1.0712   -0.9245 H       1  UNL1        0.0650
     33 H           6.9582   -0.7064    1.2889 H       1  UNL1        0.0831
     34 H           1.3150   -1.2607   -1.3131 H       1  UNL1        0.0478
     35 H           1.3905    0.5603   -1.1009 H       1  UNL1        0.0478
     36 H           0.1160    1.5555    0.5684 H       1  UNL1        0.0486
     37 H          -1.5665    1.3751   -1.0209 H       1  UNL1        0.0576
     38 H          -0.6223   -0.0436   -1.4894 H       1  UNL1        0.0576
     39 H          -3.2437   -1.0762    1.1887 H       1  UNL1        0.0663
     40 H          -3.8298    1.1288   -1.7442 H       1  UNL1        0.0651
     41 H          -7.9925    1.0853   -1.1800 H       1  UNL1        0.0647
     42 H          -7.7044   -0.1259    1.0142 H       1  UNL1        0.0647
     43 H          -2.3778    1.8619    0.8800 H       1  UNL1        0.0488
     44 H          -3.0505    1.9544    3.1066 H       1  UNL1        0.1186
     45 H          -3.1270    0.2136    3.2317 H       1  UNL1        0.1186
     46 H          -0.7734    1.0323    2.6088 H       1  UNL1        0.0297
     47 H          -1.2014   -0.6661    2.1239 H       1  UNL1        0.0297
     48 H           1.3013   -0.9049    2.5048 H       1  UNL1        0.0492
     49 H           1.4263    0.8767    2.0668 H       1  UNL1        0.0492
@<TRIPOS>BOND
     1     1     2    1
     2     2     3   ar
     3     3     4   ar
     4     4     5   ar
     5     5     6   ar
     6     6     7   ar
     7     7     8   ar
     8     8     9   ar
     9     9    10   ar
    10     8    11    1
    11    11    12    1
    12    12    13    1
    13    13    14    1
    14    14    15    1
    15    15    16    1
    16    16    17    1
    17    17    18   ar
    18    18    19   ar
    19    19    20    1
    20    19    21   ar
    21    21    22   ar
    22    22    23   ar
    23    23    24    1
    24    16    25    1
    25    25    26    1
    26    25    27    1
    27    12    28    1
    28    10     2   ar
    29    27    13    1
    30     9     5   ar
    31    23    17   ar
    32    28     7    1
    33     1    29    1
    34     1    30    1
    35     1    31    1
    36     3    32    1
    37     4    33    1
    38    11    34    1
    39    11    35    1
    40    13    36    1
    41    14    37    1
    42    14    38    1
    43    16    39    1
    44    18    40    1
    45    21    41    1
    46    22    42    1
    47    25    43    1
    48    26    44    1
    49    26    45    1
    50    27    46    1
    51    27    47    1
    52    28    48    1
    53    28    49    1
