
     RDKit          3D

 49 53  0  0  0  0  0  0  0  0999 V2000
    6.7915   -1.2382   -3.2672 C   0  0  0  0  0  0  0  0  0  0  0  0
    6.1455   -1.0202   -1.9471 C   0  0  0  0  0  0  0  0  0  0  0  0
    6.9258   -0.9562   -0.8111 C   0  0  0  0  0  0  0  0  0  0  0  0
    6.3329   -0.7538    0.4130 C   0  0  0  0  0  0  0  0  0  0  0  0
    5.0055   -0.6124    0.5620 N   0  0  0  0  0  0  0  0  0  0  0  0
    4.2288   -0.4129    1.6145 N   0  0  0  0  0  0  0  0  0  0  0  0
    2.9482   -0.3399    1.2269 C   0  0  0  0  0  0  0  0  0  0  0  0
    2.9469   -0.5046   -0.1387 C   0  0  0  0  0  0  0  0  0  0  0  0
    4.2565   -0.6775   -0.5577 C   0  0  0  0  0  0  0  0  0  0  0  0
    4.8199   -0.8768   -1.7801 N   0  0  0  0  0  0  0  0  0  0  0  0
    1.5524   -0.4288   -0.5983 C   0  0  0  0  0  0  0  0  0  0  0  0
    0.7199   -0.4741    0.5680 N   0  0  0  0  0  0  0  0  0  0  0  0
   -0.3342    0.5203    0.5218 C   0  0  1  0  0  0  0  0  0  0  0  0
   -1.2526    0.3713   -0.6476 C   0  0  0  0  0  0  0  0  0  0  0  0
   -2.2842   -0.5178   -0.4829 O   0  0  0  0  0  0  0  0  0  0  0  0
   -3.1567   -0.1590    0.5458 C   0  0  2  0  0  0  0  0  0  0  0  0
   -4.5129    0.1780    0.0858 C   0  0  0  0  0  0  0  0  0  0  0  0
   -4.6855    0.8405   -1.1129 C   0  0  0  0  0  0  0  0  0  0  0  0
   -5.9317    1.1810   -1.5949 C   0  0  0  0  0  0  0  0  0  0  0  0
   -6.1159    1.8307   -2.7693 F   0  0  0  0  0  0  0  0  0  0  0  0
   -7.0213    0.8221   -0.8083 C   0  0  0  0  0  0  0  0  0  0  0  0
   -6.8475    0.1584    0.3923 C   0  0  0  0  0  0  0  0  0  0  0  0
   -5.6005   -0.1796    0.8697 C   0  0  0  0  0  0  0  0  0  0  0  0
   -5.4640   -0.8304    2.0509 F   0  0  0  0  0  0  0  0  0  0  0  0
   -2.5522    0.9133    1.4272 C   0  0  1  0  0  0  0  0  0  0  0  0
   -3.2868    1.0650    2.6484 N   0  0  0  0  0  0  0  0  0  0  0  0
   -1.1531    0.3926    1.7870 C   0  0  0  0  0  0  0  0  0  0  0  0
    1.5415   -0.1498    1.7095 C   0  0  0  0  0  0  0  0  0  0  0  0
    7.6469   -0.5253   -3.3385 H   0  0  0  0  0  0  0  0  0  0  0  0
    7.2074   -2.2678   -3.2603 H   0  0  0  0  0  0  0  0  0  0  0  0
    6.0963   -1.1371   -4.1033 H   0  0  0  0  0  0  0  0  0  0  0  0
    8.0151   -1.0712   -0.9245 H   0  0  0  0  0  0  0  0  0  0  0  0
    6.9582   -0.7064    1.2889 H   0  0  0  0  0  0  0  0  0  0  0  0
    1.3150   -1.2607   -1.3131 H   0  0  0  0  0  0  0  0  0  0  0  0
    1.3905    0.5603   -1.1009 H   0  0  0  0  0  0  0  0  0  0  0  0
    0.1160    1.5555    0.5684 H   0  0  0  0  0  0  0  0  0  0  0  0
   -1.5665    1.3751   -1.0209 H   0  0  0  0  0  0  0  0  0  0  0  0
   -0.6223   -0.0436   -1.4894 H   0  0  0  0  0  0  0  0  0  0  0  0
   -3.2437   -1.0762    1.1887 H   0  0  0  0  0  0  0  0  0  0  0  0
   -3.8298    1.1288   -1.7442 H   0  0  0  0  0  0  0  0  0  0  0  0
   -7.9925    1.0853   -1.1800 H   0  0  0  0  0  0  0  0  0  0  0  0
   -7.7044   -0.1259    1.0142 H   0  0  0  0  0  0  0  0  0  0  0  0
   -2.3778    1.8619    0.8800 H   0  0  0  0  0  0  0  0  0  0  0  0
   -3.0505    1.9544    3.1066 H   0  0  0  0  0  0  0  0  0  0  0  0
   -3.1270    0.2136    3.2317 H   0  0  0  0  0  0  0  0  0  0  0  0
   -0.7734    1.0323    2.6088 H   0  0  0  0  0  0  0  0  0  0  0  0
   -1.2014   -0.6661    2.1239 H   0  0  0  0  0  0  0  0  0  0  0  0
    1.3013   -0.9049    2.5048 H   0  0  0  0  0  0  0  0  0  0  0  0
    1.4263    0.8767    2.0668 H   0  0  0  0  0  0  0  0  0  0  0  0
  1  2  1  0
  2  3  1  0
  3  4  2  0
  4  5  1  0
  5  6  1  0
  6  7  2  0
  7  8  1  0
  8  9  2  0
  9 10  1  0
  8 11  1  0
 11 12  1  0
 12 13  1  0
 13 14  1  0
 14 15  1  0
 15 16  1  0
 16 17  1  0
 17 18  2  0
 18 19  1  0
 19 20  1  0
 19 21  2  0
 21 22  1  0
 22 23  2  0
 23 24  1  0
 16 25  1  0
 25 26  1  0
 25 27  1  0
 12 28  1  0
 10  2  2  0
 27 13  1  0
  9  5  1  0
 23 17  1  0
 28  7  1  0
  1 29  1  0
  1 30  1  0
  1 31  1  0
  3 32  1  0
  4 33  1  0
 11 34  1  0
 11 35  1  0
 13 36  1  6
 14 37  1  0
 14 38  1  0
 16 39  1  1
 18 40  1  0
 21 41  1  0
 22 42  1  0
 25 43  1  6
 26 44  1  0
 26 45  1  0
 27 46  1  0
 27 47  1  0
 28 48  1  0
 28 49  1  0
M  END
$$$$
