
     RDKit          3D

 43 47  0  0  0  0  0  0  0  0999 V2000
   -2.9529   -4.9967   -0.5120 O   0  0  0  0  0  0  0  0  0  0  0  0
   -3.1976   -3.6269   -0.6180 C   0  0  0  0  0  0  0  0  0  0  0  0
   -4.4857   -3.2058   -0.9145 C   0  0  0  0  0  0  0  0  0  0  0  0
   -4.7377   -1.8547   -1.0214 C   0  0  0  0  0  0  0  0  0  0  0  0
   -3.7254   -0.9035   -0.8379 C   0  0  0  0  0  0  0  0  0  0  0  0
   -2.4404   -1.3059   -0.5429 C   0  0  0  0  0  0  0  0  0  0  0  0
   -1.3354   -0.4032   -0.3374 C   0  0  0  0  0  0  0  0  0  0  0  0
   -1.5232    0.9468   -0.4304 C   0  0  0  0  0  0  0  0  0  0  0  0
   -0.4541    1.8196   -0.2315 C   0  0  0  0  0  0  0  0  0  0  0  0
    0.7780    1.2827    0.0572 C   0  0  0  0  0  0  0  0  0  0  0  0
    1.6262    2.2786    0.2033 O   0  0  0  0  0  0  0  0  0  0  0  0
    1.0187    3.4307    0.0266 C   0  0  0  0  0  0  0  0  0  0  0  0
    1.4637    4.7194    0.0737 N   0  0  0  0  0  0  0  0  0  0  0  0
    0.5963    5.6976   -0.1528 C   0  0  0  0  0  0  0  0  0  0  0  0
   -0.7431    5.5074   -0.4368 C   0  0  0  0  0  0  0  0  0  0  0  0
   -1.2016    4.2029   -0.4861 C   0  0  0  0  0  0  0  0  0  0  0  0
   -0.3095    3.1928   -0.2531 C   0  0  0  0  0  0  0  0  0  0  0  0
    0.9469   -0.0708    0.1462 C   0  0  0  0  0  0  0  0  0  0  0  0
    2.2187   -0.6472    0.4451 N   0  0  0  0  0  0  0  0  0  0  0  0
    2.8290   -0.2893    1.6950 C   0  0  0  0  0  0  0  0  0  0  0  0
    4.1734   -0.8644    1.9196 C   0  0  0  0  0  0  0  0  0  0  0  0
    4.7050   -1.5620    0.8566 O   0  0  0  0  0  0  0  0  0  0  0  0
    3.7963   -2.4089    0.2388 C   0  0  0  0  0  0  0  0  0  0  0  0
    2.8061   -1.5380   -0.5064 C   0  0  0  0  0  0  0  0  0  0  0  0
   -0.1199   -0.8798   -0.0546 N   0  0  0  0  0  0  0  0  0  0  0  0
   -2.2326   -2.6874   -0.4444 C   0  0  0  0  0  0  0  0  0  0  0  0
   -3.1713   -5.5059    0.3473 H   0  0  0  0  0  0  0  0  0  0  0  0
   -5.2751   -3.9409   -1.0578 H   0  0  0  0  0  0  0  0  0  0  0  0
   -5.7265   -1.4827   -1.2509 H   0  0  0  0  0  0  0  0  0  0  0  0
   -3.9647    0.1543   -0.9308 H   0  0  0  0  0  0  0  0  0  0  0  0
   -2.4624    1.4329   -0.6534 H   0  0  0  0  0  0  0  0  0  0  0  0
    0.9465    6.7404   -0.1169 H   0  0  0  0  0  0  0  0  0  0  0  0
   -1.4204    6.3298   -0.6159 H   0  0  0  0  0  0  0  0  0  0  0  0
   -2.2234    3.9573   -0.6989 H   0  0  0  0  0  0  0  0  0  0  0  0
    2.1184   -0.5667    2.5105 H   0  0  0  0  0  0  0  0  0  0  0  0
    2.8531    0.8398    1.7222 H   0  0  0  0  0  0  0  0  0  0  0  0
    4.8827   -0.0424    2.1689 H   0  0  0  0  0  0  0  0  0  0  0  0
    4.1436   -1.5116    2.8451 H   0  0  0  0  0  0  0  0  0  0  0  0
    3.2916   -3.0922    0.9313 H   0  0  0  0  0  0  0  0  0  0  0  0
    4.3793   -2.9621   -0.5494 H   0  0  0  0  0  0  0  0  0  0  0  0
    3.3341   -1.0044   -1.3258 H   0  0  0  0  0  0  0  0  0  0  0  0
    2.0182   -2.1443   -0.9961 H   0  0  0  0  0  0  0  0  0  0  0  0
   -1.2233   -3.0353   -0.2115 H   0  0  0  0  0  0  0  0  0  0  0  0
  1  2  1  0
  2  3  2  0
  3  4  1  0
  4  5  2  0
  5  6  1  0
  6  7  1  0
  7  8  2  0
  8  9  1  0
  9 10  2  0
 10 11  1  0
 11 12  1  0
 12 13  2  0
 13 14  1  0
 14 15  2  0
 15 16  1  0
 16 17  2  0
 10 18  1  0
 18 19  1  0
 19 20  1  0
 20 21  1  0
 21 22  1  0
 22 23  1  0
 23 24  1  0
 18 25  2  0
  6 26  2  0
 26  2  1  0
 25  7  1  0
 17  9  1  0
 24 19  1  0
 17 12  1  0
  1 27  1  0
  3 28  1  0
  4 29  1  0
  5 30  1  0
  8 31  1  0
 14 32  1  0
 15 33  1  0
 16 34  1  0
 20 35  1  0
 20 36  1  0
 21 37  1  0
 21 38  1  0
 23 39  1  0
 23 40  1  0
 24 41  1  0
 24 42  1  0
 26 43  1  0
M  END
$$$$
