@<TRIPOS>MOLECULE
*****
 43 47 0 0 0
SMALL
GASTEIGER

@<TRIPOS>ATOM
      1 O          -2.9529   -4.9967   -0.5120 O.3     1  UNL1       -0.5067
      2 C          -3.1976   -3.6269   -0.6180 C.ar    1  UNL1        0.1175
      3 C          -4.4857   -3.2058   -0.9145 C.ar    1  UNL1       -0.0201
      4 C          -4.7377   -1.8547   -1.0214 C.ar    1  UNL1       -0.0577
      5 C          -3.7254   -0.9035   -0.8379 C.ar    1  UNL1       -0.0523
      6 C          -2.4404   -1.3059   -0.5429 C.ar    1  UNL1        0.0039
      7 C          -1.3354   -0.4032   -0.3374 C.ar    1  UNL1        0.0740
      8 C          -1.5232    0.9468   -0.4304 C.ar    1  UNL1       -0.0242
      9 C          -0.4541    1.8196   -0.2315 C.ar    1  UNL1        0.0350
     10 C           0.7780    1.2827    0.0572 C.ar    1  UNL1        0.1779
     11 O           1.6262    2.2786    0.2033 O.2     1  UNL1       -0.4333
     12 C           1.0187    3.4307    0.0266 C.ar    1  UNL1        0.2285
     13 N           1.4637    4.7194    0.0737 N.ar    1  UNL1       -0.2205
     14 C           0.5963    5.6976   -0.1528 C.ar    1  UNL1        0.0314
     15 C          -0.7431    5.5074   -0.4368 C.ar    1  UNL1       -0.0428
     16 C          -1.2016    4.2029   -0.4861 C.ar    1  UNL1       -0.0474
     17 C          -0.3095    3.1928   -0.2531 C.ar    1  UNL1        0.0478
     18 C           0.9469   -0.0708    0.1462 C.ar    1  UNL1        0.1655
     19 N           2.2187   -0.6472    0.4451 N.pl3   1  UNL1       -0.3079
     20 C           2.8290   -0.2893    1.6950 C.3     1  UNL1        0.0371
     21 C           4.1734   -0.8644    1.9196 C.3     1  UNL1        0.0634
     22 O           4.7050   -1.5620    0.8566 O.3     1  UNL1       -0.3767
     23 C           3.7963   -2.4089    0.2388 C.3     1  UNL1        0.0634
     24 C           2.8061   -1.5380   -0.5064 C.3     1  UNL1        0.0371
     25 N          -0.1199   -0.8798   -0.0546 N.ar    1  UNL1       -0.2282
     26 C          -2.2326   -2.6874   -0.4444 C.ar    1  UNL1       -0.0110
     27 H          -3.1713   -5.5059    0.3473 H       1  UNL1        0.2921
     28 H          -5.2751   -3.9409   -1.0578 H       1  UNL1        0.0654
     29 H          -5.7265   -1.4827   -1.2509 H       1  UNL1        0.0619
     30 H          -3.9647    0.1543   -0.9308 H       1  UNL1        0.0624
     31 H          -2.4624    1.4329   -0.6534 H       1  UNL1        0.0646
     32 H           0.9465    6.7404   -0.1169 H       1  UNL1        0.0831
     33 H          -1.4204    6.3298   -0.6159 H       1  UNL1        0.0633
     34 H          -2.2234    3.9573   -0.6989 H       1  UNL1        0.0626
     35 H           2.1184   -0.5667    2.5105 H       1  UNL1        0.0487
     36 H           2.8531    0.8398    1.7222 H       1  UNL1        0.0487
     37 H           4.8827   -0.0424    2.1689 H       1  UNL1        0.0575
     38 H           4.1436   -1.5116    2.8451 H       1  UNL1        0.0575
     39 H           3.2916   -3.0922    0.9313 H       1  UNL1        0.0575
     40 H           4.3793   -2.9621   -0.5494 H       1  UNL1        0.0575
     41 H           3.3341   -1.0044   -1.3258 H       1  UNL1        0.0487
     42 H           2.0182   -2.1443   -0.9961 H       1  UNL1        0.0487
     43 H          -1.2233   -3.0353   -0.2115 H       1  UNL1        0.0661
@<TRIPOS>BOND
     1     1     2    1
     2     2     3   ar
     3     3     4   ar
     4     4     5   ar
     5     5     6   ar
     6     6     7    1
     7     7     8   ar
     8     8     9   ar
     9     9    10   ar
    10    10    11   ar
    11    11    12   ar
    12    12    13   ar
    13    13    14   ar
    14    14    15   ar
    15    15    16   ar
    16    16    17   ar
    17    10    18   ar
    18    18    19    1
    19    19    20    1
    20    20    21    1
    21    21    22    1
    22    22    23    1
    23    23    24    1
    24    18    25   ar
    25     6    26   ar
    26    26     2   ar
    27    25     7   ar
    28    17     9   ar
    29    24    19    1
    30    17    12   ar
    31     1    27    1
    32     3    28    1
    33     4    29    1
    34     5    30    1
    35     8    31    1
    36    14    32    1
    37    15    33    1
    38    16    34    1
    39    20    35    1
    40    20    36    1
    41    21    37    1
    42    21    38    1
    43    23    39    1
    44    23    40    1
    45    24    41    1
    46    24    42    1
    47    26    43    1
