
     RDKit          3D

 61 64  0  0  0  0  0  0  0  0999 V2000
    6.3437    2.3528   -0.4166 C   0  0  0  0  0  0  0  0  0  0  0  0
    6.0588    1.0167    0.2384 C   0  0  0  0  0  0  0  0  0  0  0  0
    7.3240    0.1845    0.3158 C   0  0  0  0  0  0  0  0  0  0  0  0
    5.0221    0.2242   -0.4688 C   0  0  0  0  0  0  0  0  0  0  0  0
    3.9202    0.0818    0.4895 N   0  0  0  0  0  0  0  0  0  0  0  0
    2.6484   -0.5119    0.5473 C   0  0  0  0  0  0  0  0  0  0  0  0
    2.0449   -1.2850   -0.6194 C   0  0  0  0  0  0  0  0  0  0  0  0
    0.4290   -1.9118   -0.2286 S   0  0  0  0  0  0  0  0  0  0  0  0
   -0.7917   -0.6565    0.0128 C   0  0  0  0  0  0  0  0  0  0  0  0
   -1.9959   -1.0401    0.2998 N   0  0  0  0  0  0  0  0  0  0  0  0
   -2.3040   -2.4698    0.4131 C   0  0  0  0  0  0  0  0  0  0  0  0
   -3.6143   -2.6460    1.1536 C   0  0  0  0  0  0  0  0  0  0  0  0
   -4.7499   -2.7709    0.1458 C   0  0  0  0  0  0  0  0  0  0  0  0
   -4.6525   -4.1578   -0.4932 C   0  0  0  0  0  0  0  0  0  0  0  0
   -3.2260   -4.3944   -0.8628 C   0  0  0  0  0  0  0  0  0  0  0  0
   -2.4261   -3.1142   -0.9324 C   0  0  0  0  0  0  0  0  0  0  0  0
   -0.5529    0.7304   -0.0840 N   0  0  0  0  0  0  0  0  0  0  0  0
   -1.5968    1.6926    0.1396 C   0  0  0  0  0  0  0  0  0  0  0  0
   -1.0213    3.1049   -0.0285 C   0  0  0  0  0  0  0  0  0  0  0  0
   -2.0711    4.1189    0.3773 C   0  0  0  0  0  0  0  0  0  0  0  0
   -3.3016    3.9813   -0.4773 C   0  0  0  0  0  0  0  0  0  0  0  0
   -3.7998    2.5581   -0.4247 C   0  0  0  0  0  0  0  0  0  0  0  0
   -2.7068    1.5974   -0.9056 C   0  0  0  0  0  0  0  0  0  0  0  0
    1.9713   -0.3845    1.6590 C   0  0  0  0  0  0  0  0  0  0  0  0
    2.9864    0.5685    2.7800 S   0  0  0  0  0  0  0  0  0  0  0  0
    4.3320    0.7546    1.6418 C   0  0  0  0  0  0  0  0  0  0  0  0
    5.4900    1.2719    1.5321 N   0  0  0  0  0  0  0  0  0  0  0  0
    6.5718    3.1312    0.3308 H   0  0  0  0  0  0  0  0  0  0  0  0
    7.2125    2.2556   -1.1222 H   0  0  0  0  0  0  0  0  0  0  0  0
    5.4449    2.6524   -0.9777 H   0  0  0  0  0  0  0  0  0  0  0  0
    7.0466   -0.7515    0.8461 H   0  0  0  0  0  0  0  0  0  0  0  0
    8.1378    0.7116    0.8438 H   0  0  0  0  0  0  0  0  0  0  0  0
    7.5784   -0.0921   -0.7288 H   0  0  0  0  0  0  0  0  0  0  0  0
    5.3806   -0.7688   -0.8078 H   0  0  0  0  0  0  0  0  0  0  0  0
    4.6634    0.8046   -1.3573 H   0  0  0  0  0  0  0  0  0  0  0  0
    2.0479   -0.6650   -1.5336 H   0  0  0  0  0  0  0  0  0  0  0  0
    2.7188   -2.1427   -0.8239 H   0  0  0  0  0  0  0  0  0  0  0  0
   -1.4779   -2.9389    1.0011 H   0  0  0  0  0  0  0  0  0  0  0  0
   -3.7978   -1.7953    1.8538 H   0  0  0  0  0  0  0  0  0  0  0  0
   -3.5627   -3.6166    1.6972 H   0  0  0  0  0  0  0  0  0  0  0  0
   -4.6150   -2.0435   -0.6820 H   0  0  0  0  0  0  0  0  0  0  0  0
   -5.7235   -2.6589    0.6570 H   0  0  0  0  0  0  0  0  0  0  0  0
   -4.9855   -4.9451    0.2038 H   0  0  0  0  0  0  0  0  0  0  0  0
   -5.2943   -4.2334   -1.3928 H   0  0  0  0  0  0  0  0  0  0  0  0
   -2.7531   -5.0325   -0.0976 H   0  0  0  0  0  0  0  0  0  0  0  0
   -3.1296   -4.8852   -1.8689 H   0  0  0  0  0  0  0  0  0  0  0  0
   -1.4252   -3.4021   -1.3576 H   0  0  0  0  0  0  0  0  0  0  0  0
   -2.8418   -2.3747   -1.6310 H   0  0  0  0  0  0  0  0  0  0  0  0
    0.4138    1.0456   -0.3257 H   0  0  0  0  0  0  0  0  0  0  0  0
   -2.0540    1.6233    1.1449 H   0  0  0  0  0  0  0  0  0  0  0  0
   -0.7957    3.2841   -1.1035 H   0  0  0  0  0  0  0  0  0  0  0  0
   -0.1026    3.2446    0.5450 H   0  0  0  0  0  0  0  0  0  0  0  0
   -1.6292    5.1190    0.2021 H   0  0  0  0  0  0  0  0  0  0  0  0
   -2.3418    4.0259    1.4402 H   0  0  0  0  0  0  0  0  0  0  0  0
   -4.1122    4.6130   -0.0346 H   0  0  0  0  0  0  0  0  0  0  0  0
   -3.0863    4.3119   -1.5174 H   0  0  0  0  0  0  0  0  0  0  0  0
   -4.0810    2.3370    0.6183 H   0  0  0  0  0  0  0  0  0  0  0  0
   -4.7066    2.4457   -1.0429 H   0  0  0  0  0  0  0  0  0  0  0  0
   -2.3047    2.0322   -1.8461 H   0  0  0  0  0  0  0  0  0  0  0  0
   -3.1208    0.5958   -1.0064 H   0  0  0  0  0  0  0  0  0  0  0  0
    0.9645   -0.7826    1.8810 H   0  0  0  0  0  0  0  0  0  0  0  0
  1  2  1  0
  2  3  1  0
  2  4  1  0
  4  5  1  0
  5  6  1  0
  6  7  1  0
  7  8  1  0
  8  9  1  0
  9 10  2  0
 10 11  1  0
 11 12  1  0
 12 13  1  0
 13 14  1  0
 14 15  1  0
 15 16  1  0
  9 17  1  0
 17 18  1  0
 18 19  1  0
 19 20  1  0
 20 21  1  0
 21 22  1  0
 22 23  1  0
  6 24  2  0
 24 25  1  0
 25 26  1  0
 26 27  2  0
 27  2  1  0
 26  5  1  0
 16 11  1  0
 23 18  1  0
  1 28  1  0
  1 29  1  0
  1 30  1  0
  3 31  1  0
  3 32  1  0
  3 33  1  0
  4 34  1  0
  4 35  1  0
  7 36  1  0
  7 37  1  0
 11 38  1  0
 12 39  1  0
 12 40  1  0
 13 41  1  0
 13 42  1  0
 14 43  1  0
 14 44  1  0
 15 45  1  0
 15 46  1  0
 16 47  1  0
 16 48  1  0
 17 49  1  0
 18 50  1  0
 19 51  1  0
 19 52  1  0
 20 53  1  0
 20 54  1  0
 21 55  1  0
 21 56  1  0
 22 57  1  0
 22 58  1  0
 23 59  1  0
 23 60  1  0
 24 61  1  0
M  END
$$$$
