@<TRIPOS>MOLECULE
*****
 61 64 0 0 0
SMALL
GASTEIGER

@<TRIPOS>ATOM
      1 C           6.3437    2.3528   -0.4166 C.3     1  UNL1       -0.0385
      2 C           6.0588    1.0167    0.2384 C.3     1  UNL1        0.0747
      3 C           7.3240    0.1845    0.3158 C.3     1  UNL1       -0.0385
      4 C           5.0221    0.2242   -0.4688 C.3     1  UNL1        0.0435
      5 N           3.9202    0.0818    0.4895 N.pl3   1  UNL1       -0.2799
      6 C           2.6484   -0.5119    0.5473 C.2     1  UNL1        0.0296
      7 C           2.0449   -1.2850   -0.6194 C.3     1  UNL1        0.0398
      8 S           0.4290   -1.9118   -0.2286 S.3     1  UNL1       -0.0849
      9 C          -0.7917   -0.6565    0.0128 C.2     1  UNL1        0.1501
     10 N          -1.9959   -1.0401    0.2998 N.2     1  UNL1       -0.2602
     11 C          -2.3040   -2.4698    0.4131 C.3     1  UNL1        0.0533
     12 C          -3.6143   -2.6460    1.1536 C.3     1  UNL1       -0.0305
     13 C          -4.7499   -2.7709    0.1458 C.3     1  UNL1       -0.0511
     14 C          -4.6525   -4.1578   -0.4932 C.3     1  UNL1       -0.0529
     15 C          -3.2260   -4.3944   -0.8628 C.3     1  UNL1       -0.0511
     16 C          -2.4261   -3.1142   -0.9324 C.3     1  UNL1       -0.0305
     17 N          -0.5529    0.7304   -0.0840 N.pl3   1  UNL1       -0.3211
     18 C          -1.5968    1.6926    0.1396 C.3     1  UNL1        0.0224
     19 C          -1.0213    3.1049   -0.0285 C.3     1  UNL1       -0.0345
     20 C          -2.0711    4.1189    0.3773 C.3     1  UNL1       -0.0514
     21 C          -3.3016    3.9813   -0.4773 C.3     1  UNL1       -0.0529
     22 C          -3.7998    2.5581   -0.4247 C.3     1  UNL1       -0.0514
     23 C          -2.7068    1.5974   -0.9056 C.3     1  UNL1       -0.0345
     24 C           1.9713   -0.3845    1.6590 C.2     1  UNL1       -0.0031
     25 S           2.9864    0.5685    2.7800 S.3     1  UNL1       -0.0607
     26 C           4.3320    0.7546    1.6418 C.2     1  UNL1        0.1609
     27 N           5.4900    1.2719    1.5321 N.2     1  UNL1       -0.2551
     28 H           6.5718    3.1312    0.3308 H       1  UNL1        0.0253
     29 H           7.2125    2.2556   -1.1222 H       1  UNL1        0.0253
     30 H           5.4449    2.6524   -0.9777 H       1  UNL1        0.0253
     31 H           7.0466   -0.7515    0.8461 H       1  UNL1        0.0253
     32 H           8.1378    0.7116    0.8438 H       1  UNL1        0.0253
     33 H           7.5784   -0.0921   -0.7288 H       1  UNL1        0.0253
     34 H           5.3806   -0.7688   -0.8078 H       1  UNL1        0.0492
     35 H           4.6634    0.8046   -1.3573 H       1  UNL1        0.0492
     36 H           2.0479   -0.6650   -1.5336 H       1  UNL1        0.0442
     37 H           2.7188   -2.1427   -0.8239 H       1  UNL1        0.0442
     38 H          -1.4779   -2.9389    1.0011 H       1  UNL1        0.0545
     39 H          -3.7978   -1.7953    1.8538 H       1  UNL1        0.0286
     40 H          -3.5627   -3.6166    1.6972 H       1  UNL1        0.0286
     41 H          -4.6150   -2.0435   -0.6820 H       1  UNL1        0.0266
     42 H          -5.7235   -2.6589    0.6570 H       1  UNL1        0.0266
     43 H          -4.9855   -4.9451    0.2038 H       1  UNL1        0.0265
     44 H          -5.2943   -4.2334   -1.3928 H       1  UNL1        0.0265
     45 H          -2.7531   -5.0325   -0.0976 H       1  UNL1        0.0266
     46 H          -3.1296   -4.8852   -1.8689 H       1  UNL1        0.0266
     47 H          -1.4252   -3.4021   -1.3576 H       1  UNL1        0.0286
     48 H          -2.8418   -2.3747   -1.6310 H       1  UNL1        0.0286
     49 H           0.4138    1.0456   -0.3257 H       1  UNL1        0.1482
     50 H          -2.0540    1.6233    1.1449 H       1  UNL1        0.0498
     51 H          -0.7957    3.2841   -1.1035 H       1  UNL1        0.0283
     52 H          -0.1026    3.2446    0.5450 H       1  UNL1        0.0283
     53 H          -1.6292    5.1190    0.2021 H       1  UNL1        0.0266
     54 H          -2.3418    4.0259    1.4402 H       1  UNL1        0.0266
     55 H          -4.1122    4.6130   -0.0346 H       1  UNL1        0.0265
     56 H          -3.0863    4.3119   -1.5174 H       1  UNL1        0.0265
     57 H          -4.0810    2.3370    0.6183 H       1  UNL1        0.0266
     58 H          -4.7066    2.4457   -1.0429 H       1  UNL1        0.0266
     59 H          -2.3047    2.0322   -1.8461 H       1  UNL1        0.0283
     60 H          -3.1208    0.5958   -1.0064 H       1  UNL1        0.0283
     61 H           0.9645   -0.7826    1.8810 H       1  UNL1        0.0710
@<TRIPOS>BOND
     1     1     2    1
     2     2     3    1
     3     2     4    1
     4     4     5    1
     5     5     6    1
     6     6     7    1
     7     7     8    1
     8     8     9    1
     9     9    10    2
    10    10    11    1
    11    11    12    1
    12    12    13    1
    13    13    14    1
    14    14    15    1
    15    15    16    1
    16     9    17    1
    17    17    18    1
    18    18    19    1
    19    19    20    1
    20    20    21    1
    21    21    22    1
    22    22    23    1
    23     6    24    2
    24    24    25    1
    25    25    26    1
    26    26    27    2
    27    27     2    1
    28    26     5    1
    29    16    11    1
    30    23    18    1
    31     1    28    1
    32     1    29    1
    33     1    30    1
    34     3    31    1
    35     3    32    1
    36     3    33    1
    37     4    34    1
    38     4    35    1
    39     7    36    1
    40     7    37    1
    41    11    38    1
    42    12    39    1
    43    12    40    1
    44    13    41    1
    45    13    42    1
    46    14    43    1
    47    14    44    1
    48    15    45    1
    49    15    46    1
    50    16    47    1
    51    16    48    1
    52    17    49    1
    53    18    50    1
    54    19    51    1
    55    19    52    1
    56    20    53    1
    57    20    54    1
    58    21    55    1
    59    21    56    1
    60    22    57    1
    61    22    58    1
    62    23    59    1
    63    23    60    1
    64    24    61    1
