@<TRIPOS>MOLECULE
*****
 15 16 0 0 0
SMALL
GASTEIGER

@<TRIPOS>ATOM
      1 N          -0.6711    2.1656   -0.1864 N.pl3   1  UNL1       -0.3414
      2 C          -0.8291    0.7585   -0.0607 C.ar    1  UNL1        0.1451
      3 C           0.2959   -0.0426   -0.0289 C.ar    1  UNL1        0.1251
      4 N           1.6177    0.2868   -0.1003 N.ar    1  UNL1       -0.3404
      5 C           2.3003   -0.8737   -0.0231 C.ar    1  UNL1        0.0963
      6 N           1.4331   -1.8985    0.0929 N.ar    1  UNL1       -0.2164
      7 C           0.1626   -1.4290    0.0942 C.ar    1  UNL1        0.1825
      8 N          -1.0803   -1.9382    0.1784 N.ar    1  UNL1       -0.2144
      9 C          -2.1849   -1.1727    0.1490 C.ar    1  UNL1        0.1205
     10 N          -2.0561    0.1683    0.0299 N.ar    1  UNL1       -0.2189
     11 H          -0.6921    2.4738    0.8078 H       1  UNL1        0.1438
     12 H          -0.5529    2.8889   -0.9295 H       1  UNL1        0.1438
     13 H           2.0340    1.2385   -0.1954 H       1  UNL1        0.1669
     14 H           3.3661   -0.9566   -0.0509 H       1  UNL1        0.1027
     15 H          -3.1434   -1.6692    0.2228 H       1  UNL1        0.1048
@<TRIPOS>BOND
     1     1     2    1
     2     2     3   ar
     3     3     4   ar
     4     4     5   ar
     5     5     6   ar
     6     6     7   ar
     7     7     8   ar
     8     8     9   ar
     9     9    10   ar
    10    10     2   ar
    11     7     3   ar
    12     1    11    1
    13     1    12    1
    14     4    13    1
    15     5    14    1
    16     9    15    1
