
     RDKit          3D

 15 16  0  0  0  0  0  0  0  0999 V2000
   -0.6711    2.1656   -0.1864 N   0  0  0  0  0  0  0  0  0  0  0  0
   -0.8291    0.7585   -0.0607 C   0  0  0  0  0  0  0  0  0  0  0  0
    0.2959   -0.0426   -0.0289 C   0  0  0  0  0  0  0  0  0  0  0  0
    1.6177    0.2868   -0.1003 N   0  0  0  0  0  0  0  0  0  0  0  0
    2.3003   -0.8737   -0.0231 C   0  0  0  0  0  0  0  0  0  0  0  0
    1.4331   -1.8985    0.0929 N   0  0  0  0  0  0  0  0  0  0  0  0
    0.1626   -1.4290    0.0942 C   0  0  0  0  0  0  0  0  0  0  0  0
   -1.0803   -1.9382    0.1784 N   0  0  0  0  0  0  0  0  0  0  0  0
   -2.1849   -1.1727    0.1490 C   0  0  0  0  0  0  0  0  0  0  0  0
   -2.0561    0.1683    0.0299 N   0  0  0  0  0  0  0  0  0  0  0  0
   -0.6921    2.4738    0.8078 H   0  0  0  0  0  0  0  0  0  0  0  0
   -0.5529    2.8889   -0.9295 H   0  0  0  0  0  0  0  0  0  0  0  0
    2.0340    1.2385   -0.1954 H   0  0  0  0  0  0  0  0  0  0  0  0
    3.3661   -0.9566   -0.0509 H   0  0  0  0  0  0  0  0  0  0  0  0
   -3.1434   -1.6692    0.2228 H   0  0  0  0  0  0  0  0  0  0  0  0
  1  2  1  0
  2  3  2  0
  3  4  1  0
  4  5  1  0
  5  6  2  0
  6  7  1  0
  7  8  2  0
  8  9  1  0
  9 10  2  0
 10  2  1  0
  7  3  1  0
  1 11  1  0
  1 12  1  0
  4 13  1  0
  5 14  1  0
  9 15  1  0
M  END
$$$$
