@<TRIPOS>MOLECULE
*****
 106 110 0 0 0
SMALL
GASTEIGER

@<TRIPOS>ATOM
      1 C         -11.2325    1.7332   -2.7991 C.3     1  UNL1       -0.0023
      2 N         -10.1678    2.1388   -1.9083 N.pl3   1  UNL1       -0.3440
      3 C          -9.7873    1.2128   -0.8823 C.ar    1  UNL1        0.0713
      4 C         -10.4228   -0.0114   -0.7672 C.ar    1  UNL1       -0.0335
      5 C         -10.0856   -0.9438    0.2131 C.ar    1  UNL1       -0.0383
      6 C         -10.8129   -2.2329    0.3036 C.3     1  UNL1       -0.0126
      7 C         -10.2878   -3.0485    1.4447 C.3     1  UNL1       -0.0560
      8 C         -10.6131   -3.0391   -0.9813 C.3     1  UNL1       -0.0560
      9 C         -12.2885   -1.9305    0.5200 C.3     1  UNL1       -0.0560
     10 C          -9.0757   -0.5854    1.0734 C.ar    1  UNL1       -0.0330
     11 C          -8.4360    0.6520    0.9551 C.ar    1  UNL1        0.0789
     12 N          -7.4390    0.9317    1.9058 N.am    1  UNL1       -0.2660
     13 C          -6.0745    0.7012    1.6488 C.2     1  UNL1        0.3082
     14 O          -5.6397    0.2631    0.5334 O.2     1  UNL1       -0.2521
     15 N          -5.1459    0.9687    2.6729 N.am    1  UNL1       -0.2686
     16 C          -3.7462    0.8248    2.5511 C.ar    1  UNL1        0.0427
     17 C          -3.0448   -0.3437    2.6709 C.ar    1  UNL1       -0.0364
     18 C          -1.6478   -0.3731    2.5862 C.ar    1  UNL1       -0.0170
     19 C          -0.9334    0.7862    2.3801 C.ar    1  UNL1        0.1362
     20 O           0.4367    0.7951    2.2885 O.3     1  UNL1       -0.4553
     21 C           1.1862   -0.3535    2.2498 C.ar    1  UNL1        0.1332
     22 C           1.5142   -1.1778    3.2819 C.ar    1  UNL1       -0.0011
     23 C           2.2969   -2.2787    2.9861 C.ar    1  UNL1        0.0332
     24 N           2.7270   -2.5475    1.7413 N.ar    1  UNL1       -0.2400
     25 C           2.4331   -1.7732    0.6929 C.ar    1  UNL1        0.1264
     26 N           2.8577   -1.9678   -0.6447 N.pl3   1  UNL1       -0.2992
     27 C           3.9894   -1.2795   -1.1419 C.ar    1  UNL1        0.0393
     28 C           3.8811   -0.5723   -2.3132 C.ar    1  UNL1        0.0015
     29 C           4.9494    0.1055   -2.8821 C.ar    1  UNL1        0.1253
     30 O           4.8347    0.8204   -4.0327 O.3     1  UNL1       -0.4949
     31 C           5.8059    1.4923   -4.7720 C.3     1  UNL1        0.0788
     32 C           6.1713    0.0508   -2.2204 C.ar    1  UNL1        0.0219
     33 C           6.3482   -0.6339   -1.0492 C.ar    1  UNL1        0.1258
     34 O           7.5209   -0.7186   -0.3617 O.3     1  UNL1       -0.4895
     35 C           8.7326   -0.1980   -0.7429 C.3     1  UNL1        0.1128
     36 C           9.2920   -0.9971   -1.9144 C.3     1  UNL1        0.0818
     37 O           9.4919   -2.2873   -1.5856 O.3     1  UNL1       -0.3742
     38 C          10.1943   -2.7734   -0.5995 C.3     1  UNL1        0.0711
     39 C          11.6401   -2.6570   -0.3650 C.3     1  UNL1        0.0711
     40 O          12.3510   -1.5668   -0.1724 O.3     1  UNL1       -0.3752
     41 C          12.5468   -0.5376   -0.9848 C.3     1  UNL1        0.0711
     42 C          13.6076    0.3891   -0.3457 C.3     1  UNL1        0.0706
     43 O          13.1222    0.8270    0.8747 O.3     1  UNL1       -0.3807
     44 C          14.1207    1.6737    1.4146 C.3     1  UNL1        0.0365
     45 C           5.2024   -1.3013   -0.5315 C.ar    1  UNL1        0.0015
     46 C           1.6561   -0.6685    0.9539 C.ar    1  UNL1        0.0208
     47 C          -1.6473    1.9784    2.2583 C.ar    1  UNL1        0.0262
     48 C          -0.8906    3.1028    2.0476 C.ar    1  UNL1       -0.0505
     49 C          -1.5610    4.3247    1.9120 C.ar    1  UNL1       -0.0611
     50 C          -2.9400    4.3459    1.9950 C.ar    1  UNL1       -0.0611
     51 C          -3.6929    3.1932    2.2097 C.ar    1  UNL1       -0.0521
     52 C          -3.0138    2.0010    2.3403 C.ar    1  UNL1        0.0069
     53 C          -8.7710    1.5651   -0.0096 C.ar    1  UNL1        0.1619
     54 O          -8.1557    2.7898   -0.1444 O.3     1  UNL1       -0.4914
     55 C          -7.0228    2.9595   -0.9593 C.3     1  UNL1        0.0790
     56 H         -11.6209    2.5879   -3.3769 H       1  UNL1        0.0425
     57 H         -10.9081    0.8793   -3.4311 H       1  UNL1        0.0425
     58 H         -12.0998    1.4132   -2.1478 H       1  UNL1        0.0425
     59 H          -9.6927    3.0614   -1.9946 H       1  UNL1        0.1458
     60 H         -11.2139   -0.2892   -1.4395 H       1  UNL1        0.0640
     61 H         -10.8417   -4.0186    1.4970 H       1  UNL1        0.0238
     62 H         -10.3618   -2.4484    2.3730 H       1  UNL1        0.0238
     63 H          -9.2164   -3.3243    1.2497 H       1  UNL1        0.0238
     64 H         -10.2342   -4.0490   -0.7321 H       1  UNL1        0.0238
     65 H         -11.5971   -3.2053   -1.4742 H       1  UNL1        0.0238
     66 H          -9.8947   -2.4922   -1.6214 H       1  UNL1        0.0238
     67 H         -12.8655   -2.8372    0.7312 H       1  UNL1        0.0238
     68 H         -12.7070   -1.4509   -0.3765 H       1  UNL1        0.0238
     69 H         -12.3570   -1.2049    1.3572 H       1  UNL1        0.0238
     70 H          -8.7811   -1.2760    1.8449 H       1  UNL1        0.0640
     71 H          -7.7503    1.3325    2.8402 H       1  UNL1        0.1565
     72 H          -5.5309    1.3055    3.6182 H       1  UNL1        0.1564
     73 H          -3.5993   -1.2636    2.8361 H       1  UNL1        0.0637
     74 H          -1.1194   -1.3367    2.6896 H       1  UNL1        0.0655
     75 H           1.1591   -0.9420    4.2703 H       1  UNL1        0.0669
     76 H           2.5723   -2.9513    3.8174 H       1  UNL1        0.0831
     77 H           2.3450   -2.6208   -1.2742 H       1  UNL1        0.1536
     78 H           2.9373   -0.5154   -2.8475 H       1  UNL1        0.0673
     79 H           6.2790    0.8180   -5.5190 H       1  UNL1        0.0660
     80 H           6.6324    1.9464   -4.1704 H       1  UNL1        0.0660
     81 H           5.3624    2.3746   -5.3233 H       1  UNL1        0.0660
     82 H           7.0087    0.6184   -2.6571 H       1  UNL1        0.0691
     83 H           8.5508    0.8268   -1.1673 H       1  UNL1        0.0720
     84 H           9.4707   -0.0705    0.0748 H       1  UNL1        0.0720
     85 H          10.0510   -0.4582   -2.4540 H       1  UNL1        0.0594
     86 H           8.4175   -1.0406   -2.6671 H       1  UNL1        0.0594
     87 H           9.6427   -2.5782    0.4200 H       1  UNL1        0.0583
     88 H          10.0104   -3.9333   -0.6186 H       1  UNL1        0.0583
     89 H          11.8990   -3.3485    0.5558 H       1  UNL1        0.0583
     90 H          12.1777   -3.3047   -1.1959 H       1  UNL1        0.0583
     91 H          12.9282   -0.7601   -2.0196 H       1  UNL1        0.0583
     92 H          11.6410    0.1350   -1.0167 H       1  UNL1        0.0583
     93 H          14.5409   -0.2174   -0.1900 H       1  UNL1        0.0582
     94 H          13.7868    1.2331   -1.0324 H       1  UNL1        0.0582
     95 H          14.2638    2.4843    0.6686 H       1  UNL1        0.0524
     96 H          13.7734    2.0694    2.3954 H       1  UNL1        0.0524
     97 H          15.0542    1.0880    1.5263 H       1  UNL1        0.0524
     98 H           5.3213   -1.8452    0.3923 H       1  UNL1        0.0673
     99 H           1.4007   -0.0137    0.1299 H       1  UNL1        0.0689
    100 H           0.1839    3.0588    1.9837 H       1  UNL1        0.0625
    101 H          -0.9679    5.2135    1.7475 H       1  UNL1        0.0618
    102 H          -3.4907    5.2711    1.8954 H       1  UNL1        0.0618
    103 H          -4.7722    3.2175    2.2700 H       1  UNL1        0.0624
    104 H          -6.0574    2.8028   -0.4740 H       1  UNL1        0.0660
    105 H          -7.0297    3.9815   -1.4303 H       1  UNL1        0.0660
    106 H          -7.0350    2.2489   -1.8326 H       1  UNL1        0.0660
@<TRIPOS>BOND
     1     1     2    1
     2     2     3    1
     3     3     4   ar
     4     4     5   ar
     5     5     6    1
     6     6     7    1
     7     6     8    1
     8     6     9    1
     9     5    10   ar
    10    10    11   ar
    11    11    12    1
    12    12    13   am
    13    13    14    2
    14    13    15   am
    15    15    16    1
    16    16    17   ar
    17    17    18   ar
    18    18    19   ar
    19    19    20    1
    20    20    21    1
    21    21    22   ar
    22    22    23   ar
    23    23    24   ar
    24    24    25   ar
    25    25    26    1
    26    26    27    1
    27    27    28   ar
    28    28    29   ar
    29    29    30    1
    30    30    31    1
    31    29    32   ar
    32    32    33   ar
    33    33    34    1
    34    34    35    1
    35    35    36    1
    36    36    37    1
    37    37    38    1
    38    38    39    1
    39    39    40    1
    40    40    41    1
    41    41    42    1
    42    42    43    1
    43    43    44    1
    44    33    45   ar
    45    25    46   ar
    46    19    47   ar
    47    47    48   ar
    48    48    49   ar
    49    49    50   ar
    50    50    51   ar
    51    51    52   ar
    52    11    53   ar
    53    53    54    1
    54    54    55    1
    55    53     3   ar
    56    52    16   ar
    57    46    21   ar
    58    52    47   ar
    59    45    27   ar
    60     1    56    1
    61     1    57    1
    62     1    58    1
    63     2    59    1
    64     4    60    1
    65     7    61    1
    66     7    62    1
    67     7    63    1
    68     8    64    1
    69     8    65    1
    70     8    66    1
    71     9    67    1
    72     9    68    1
    73     9    69    1
    74    10    70    1
    75    12    71    1
    76    15    72    1
    77    17    73    1
    78    18    74    1
    79    22    75    1
    80    23    76    1
    81    26    77    1
    82    28    78    1
    83    31    79    1
    84    31    80    1
    85    31    81    1
    86    32    82    1
    87    35    83    1
    88    35    84    1
    89    36    85    1
    90    36    86    1
    91    38    87    1
    92    38    88    1
    93    39    89    1
    94    39    90    1
    95    41    91    1
    96    41    92    1
    97    42    93    1
    98    42    94    1
    99    44    95    1
   100    44    96    1
   101    44    97    1
   102    45    98    1
   103    46    99    1
   104    48   100    1
   105    49   101    1
   106    50   102    1
   107    51   103    1
   108    55   104    1
   109    55   105    1
   110    55   106    1
