
     RDKit          3D

106110  0  0  0  0  0  0  0  0999 V2000
  -11.2325    1.7332   -2.7991 C   0  0  0  0  0  0  0  0  0  0  0  0
  -10.1678    2.1388   -1.9083 N   0  0  0  0  0  0  0  0  0  0  0  0
   -9.7873    1.2128   -0.8823 C   0  0  0  0  0  0  0  0  0  0  0  0
  -10.4228   -0.0114   -0.7672 C   0  0  0  0  0  0  0  0  0  0  0  0
  -10.0856   -0.9438    0.2131 C   0  0  0  0  0  0  0  0  0  0  0  0
  -10.8129   -2.2329    0.3036 C   0  0  0  0  0  0  0  0  0  0  0  0
  -10.2878   -3.0485    1.4447 C   0  0  0  0  0  0  0  0  0  0  0  0
  -10.6131   -3.0391   -0.9813 C   0  0  0  0  0  0  0  0  0  0  0  0
  -12.2885   -1.9305    0.5200 C   0  0  0  0  0  0  0  0  0  0  0  0
   -9.0757   -0.5854    1.0734 C   0  0  0  0  0  0  0  0  0  0  0  0
   -8.4360    0.6520    0.9551 C   0  0  0  0  0  0  0  0  0  0  0  0
   -7.4390    0.9317    1.9058 N   0  0  0  0  0  0  0  0  0  0  0  0
   -6.0745    0.7012    1.6488 C   0  0  0  0  0  0  0  0  0  0  0  0
   -5.6397    0.2631    0.5334 O   0  0  0  0  0  0  0  0  0  0  0  0
   -5.1459    0.9687    2.6729 N   0  0  0  0  0  0  0  0  0  0  0  0
   -3.7462    0.8248    2.5511 C   0  0  0  0  0  0  0  0  0  0  0  0
   -3.0448   -0.3437    2.6709 C   0  0  0  0  0  0  0  0  0  0  0  0
   -1.6478   -0.3731    2.5862 C   0  0  0  0  0  0  0  0  0  0  0  0
   -0.9334    0.7862    2.3801 C   0  0  0  0  0  0  0  0  0  0  0  0
    0.4367    0.7951    2.2885 O   0  0  0  0  0  0  0  0  0  0  0  0
    1.1862   -0.3535    2.2498 C   0  0  0  0  0  0  0  0  0  0  0  0
    1.5142   -1.1778    3.2819 C   0  0  0  0  0  0  0  0  0  0  0  0
    2.2969   -2.2787    2.9861 C   0  0  0  0  0  0  0  0  0  0  0  0
    2.7270   -2.5475    1.7413 N   0  0  0  0  0  0  0  0  0  0  0  0
    2.4331   -1.7732    0.6929 C   0  0  0  0  0  0  0  0  0  0  0  0
    2.8577   -1.9678   -0.6447 N   0  0  0  0  0  0  0  0  0  0  0  0
    3.9894   -1.2795   -1.1419 C   0  0  0  0  0  0  0  0  0  0  0  0
    3.8811   -0.5723   -2.3132 C   0  0  0  0  0  0  0  0  0  0  0  0
    4.9494    0.1055   -2.8821 C   0  0  0  0  0  0  0  0  0  0  0  0
    4.8347    0.8204   -4.0327 O   0  0  0  0  0  0  0  0  0  0  0  0
    5.8059    1.4923   -4.7720 C   0  0  0  0  0  0  0  0  0  0  0  0
    6.1713    0.0508   -2.2204 C   0  0  0  0  0  0  0  0  0  0  0  0
    6.3482   -0.6339   -1.0492 C   0  0  0  0  0  0  0  0  0  0  0  0
    7.5209   -0.7186   -0.3617 O   0  0  0  0  0  0  0  0  0  0  0  0
    8.7326   -0.1980   -0.7429 C   0  0  0  0  0  0  0  0  0  0  0  0
    9.2920   -0.9971   -1.9144 C   0  0  0  0  0  0  0  0  0  0  0  0
    9.4919   -2.2873   -1.5856 O   0  0  0  0  0  0  0  0  0  0  0  0
   10.1943   -2.7734   -0.5995 C   0  0  0  0  0  0  0  0  0  0  0  0
   11.6401   -2.6570   -0.3650 C   0  0  0  0  0  0  0  0  0  0  0  0
   12.3510   -1.5668   -0.1724 O   0  0  0  0  0  0  0  0  0  0  0  0
   12.5468   -0.5376   -0.9848 C   0  0  0  0  0  0  0  0  0  0  0  0
   13.6076    0.3891   -0.3457 C   0  0  0  0  0  0  0  0  0  0  0  0
   13.1222    0.8270    0.8747 O   0  0  0  0  0  0  0  0  0  0  0  0
   14.1207    1.6737    1.4146 C   0  0  0  0  0  0  0  0  0  0  0  0
    5.2024   -1.3013   -0.5315 C   0  0  0  0  0  0  0  0  0  0  0  0
    1.6561   -0.6685    0.9539 C   0  0  0  0  0  0  0  0  0  0  0  0
   -1.6473    1.9784    2.2583 C   0  0  0  0  0  0  0  0  0  0  0  0
   -0.8906    3.1028    2.0476 C   0  0  0  0  0  0  0  0  0  0  0  0
   -1.5610    4.3247    1.9120 C   0  0  0  0  0  0  0  0  0  0  0  0
   -2.9400    4.3459    1.9950 C   0  0  0  0  0  0  0  0  0  0  0  0
   -3.6929    3.1932    2.2097 C   0  0  0  0  0  0  0  0  0  0  0  0
   -3.0138    2.0010    2.3403 C   0  0  0  0  0  0  0  0  0  0  0  0
   -8.7710    1.5651   -0.0096 C   0  0  0  0  0  0  0  0  0  0  0  0
   -8.1557    2.7898   -0.1444 O   0  0  0  0  0  0  0  0  0  0  0  0
   -7.0228    2.9595   -0.9593 C   0  0  0  0  0  0  0  0  0  0  0  0
  -11.6209    2.5879   -3.3769 H   0  0  0  0  0  0  0  0  0  0  0  0
  -10.9081    0.8793   -3.4311 H   0  0  0  0  0  0  0  0  0  0  0  0
  -12.0998    1.4132   -2.1478 H   0  0  0  0  0  0  0  0  0  0  0  0
   -9.6927    3.0614   -1.9946 H   0  0  0  0  0  0  0  0  0  0  0  0
  -11.2139   -0.2892   -1.4395 H   0  0  0  0  0  0  0  0  0  0  0  0
  -10.8417   -4.0186    1.4970 H   0  0  0  0  0  0  0  0  0  0  0  0
  -10.3618   -2.4484    2.3730 H   0  0  0  0  0  0  0  0  0  0  0  0
   -9.2164   -3.3243    1.2497 H   0  0  0  0  0  0  0  0  0  0  0  0
  -10.2342   -4.0490   -0.7321 H   0  0  0  0  0  0  0  0  0  0  0  0
  -11.5971   -3.2053   -1.4742 H   0  0  0  0  0  0  0  0  0  0  0  0
   -9.8947   -2.4922   -1.6214 H   0  0  0  0  0  0  0  0  0  0  0  0
  -12.8655   -2.8372    0.7312 H   0  0  0  0  0  0  0  0  0  0  0  0
  -12.7070   -1.4509   -0.3765 H   0  0  0  0  0  0  0  0  0  0  0  0
  -12.3570   -1.2049    1.3572 H   0  0  0  0  0  0  0  0  0  0  0  0
   -8.7811   -1.2760    1.8449 H   0  0  0  0  0  0  0  0  0  0  0  0
   -7.7503    1.3325    2.8402 H   0  0  0  0  0  0  0  0  0  0  0  0
   -5.5309    1.3055    3.6182 H   0  0  0  0  0  0  0  0  0  0  0  0
   -3.5993   -1.2636    2.8361 H   0  0  0  0  0  0  0  0  0  0  0  0
   -1.1194   -1.3367    2.6896 H   0  0  0  0  0  0  0  0  0  0  0  0
    1.1591   -0.9420    4.2703 H   0  0  0  0  0  0  0  0  0  0  0  0
    2.5723   -2.9513    3.8174 H   0  0  0  0  0  0  0  0  0  0  0  0
    2.3450   -2.6208   -1.2742 H   0  0  0  0  0  0  0  0  0  0  0  0
    2.9373   -0.5154   -2.8475 H   0  0  0  0  0  0  0  0  0  0  0  0
    6.2790    0.8180   -5.5190 H   0  0  0  0  0  0  0  0  0  0  0  0
    6.6324    1.9464   -4.1704 H   0  0  0  0  0  0  0  0  0  0  0  0
    5.3624    2.3746   -5.3233 H   0  0  0  0  0  0  0  0  0  0  0  0
    7.0087    0.6184   -2.6571 H   0  0  0  0  0  0  0  0  0  0  0  0
    8.5508    0.8268   -1.1673 H   0  0  0  0  0  0  0  0  0  0  0  0
    9.4707   -0.0705    0.0748 H   0  0  0  0  0  0  0  0  0  0  0  0
   10.0510   -0.4582   -2.4540 H   0  0  0  0  0  0  0  0  0  0  0  0
    8.4175   -1.0406   -2.6671 H   0  0  0  0  0  0  0  0  0  0  0  0
    9.6427   -2.5782    0.4200 H   0  0  0  0  0  0  0  0  0  0  0  0
   10.0104   -3.9333   -0.6186 H   0  0  0  0  0  0  0  0  0  0  0  0
   11.8990   -3.3485    0.5558 H   0  0  0  0  0  0  0  0  0  0  0  0
   12.1777   -3.3047   -1.1959 H   0  0  0  0  0  0  0  0  0  0  0  0
   12.9282   -0.7601   -2.0196 H   0  0  0  0  0  0  0  0  0  0  0  0
   11.6410    0.1350   -1.0167 H   0  0  0  0  0  0  0  0  0  0  0  0
   14.5409   -0.2174   -0.1900 H   0  0  0  0  0  0  0  0  0  0  0  0
   13.7868    1.2331   -1.0324 H   0  0  0  0  0  0  0  0  0  0  0  0
   14.2638    2.4843    0.6686 H   0  0  0  0  0  0  0  0  0  0  0  0
   13.7734    2.0694    2.3954 H   0  0  0  0  0  0  0  0  0  0  0  0
   15.0542    1.0880    1.5263 H   0  0  0  0  0  0  0  0  0  0  0  0
    5.3213   -1.8452    0.3923 H   0  0  0  0  0  0  0  0  0  0  0  0
    1.4007   -0.0137    0.1299 H   0  0  0  0  0  0  0  0  0  0  0  0
    0.1839    3.0588    1.9837 H   0  0  0  0  0  0  0  0  0  0  0  0
   -0.9679    5.2135    1.7475 H   0  0  0  0  0  0  0  0  0  0  0  0
   -3.4907    5.2711    1.8954 H   0  0  0  0  0  0  0  0  0  0  0  0
   -4.7722    3.2175    2.2700 H   0  0  0  0  0  0  0  0  0  0  0  0
   -6.0574    2.8028   -0.4740 H   0  0  0  0  0  0  0  0  0  0  0  0
   -7.0297    3.9815   -1.4303 H   0  0  0  0  0  0  0  0  0  0  0  0
   -7.0350    2.2489   -1.8326 H   0  0  0  0  0  0  0  0  0  0  0  0
  1  2  1  0
  2  3  1  0
  3  4  2  0
  4  5  1  0
  5  6  1  0
  6  7  1  0
  6  8  1  0
  6  9  1  0
  5 10  2  0
 10 11  1  0
 11 12  1  0
 12 13  1  0
 13 14  2  0
 13 15  1  0
 15 16  1  0
 16 17  2  0
 17 18  1  0
 18 19  2  0
 19 20  1  0
 20 21  1  0
 21 22  2  0
 22 23  1  0
 23 24  2  0
 24 25  1  0
 25 26  1  0
 26 27  1  0
 27 28  2  0
 28 29  1  0
 29 30  1  0
 30 31  1  0
 29 32  2  0
 32 33  1  0
 33 34  1  0
 34 35  1  0
 35 36  1  0
 36 37  1  0
 37 38  1  0
 38 39  1  0
 39 40  1  0
 40 41  1  0
 41 42  1  0
 42 43  1  0
 43 44  1  0
 33 45  2  0
 25 46  2  0
 19 47  1  0
 47 48  2  0
 48 49  1  0
 49 50  2  0
 50 51  1  0
 51 52  2  0
 11 53  2  0
 53 54  1  0
 54 55  1  0
 53  3  1  0
 52 16  1  0
 46 21  1  0
 52 47  1  0
 45 27  1  0
  1 56  1  0
  1 57  1  0
  1 58  1  0
  2 59  1  0
  4 60  1  0
  7 61  1  0
  7 62  1  0
  7 63  1  0
  8 64  1  0
  8 65  1  0
  8 66  1  0
  9 67  1  0
  9 68  1  0
  9 69  1  0
 10 70  1  0
 12 71  1  0
 15 72  1  0
 17 73  1  0
 18 74  1  0
 22 75  1  0
 23 76  1  0
 26 77  1  0
 28 78  1  0
 31 79  1  0
 31 80  1  0
 31 81  1  0
 32 82  1  0
 35 83  1  0
 35 84  1  0
 36 85  1  0
 36 86  1  0
 38 87  1  0
 38 88  1  0
 39 89  1  0
 39 90  1  0
 41 91  1  0
 41 92  1  0
 42 93  1  0
 42 94  1  0
 44 95  1  0
 44 96  1  0
 44 97  1  0
 45 98  1  0
 46 99  1  0
 48100  1  0
 49101  1  0
 50102  1  0
 51103  1  0
 55104  1  0
 55105  1  0
 55106  1  0
M  END
$$$$
