@<TRIPOS>MOLECULE
*****
 22 24 0 0 0
SMALL
GASTEIGER

@<TRIPOS>ATOM
      1 N          -4.2178    0.5355   -0.8705 N.ar    1  UNL1       -0.2841
      2 C          -4.2434   -0.0609    0.3268 C.ar    1  UNL1        0.0230
      3 C          -2.9748   -0.3313    0.7994 C.ar    1  UNL1       -0.0135
      4 C          -2.1481    0.1551   -0.2211 C.ar    1  UNL1        0.1274
      5 N          -2.9391    0.6585   -1.1873 N.ar    1  UNL1       -0.1708
      6 C          -0.6869    0.0985   -0.1878 C.ar    1  UNL1        0.1594
      7 N           0.1128    0.5646   -1.1656 N.ar    1  UNL1       -0.2261
      8 C           1.4139    0.3682   -0.8430 C.ar    1  UNL1        0.0895
      9 C           2.6510    0.6226   -1.4204 C.ar    1  UNL1       -0.0342
     10 C           3.8334    0.2716   -0.7813 C.ar    1  UNL1       -0.0596
     11 C           3.7710   -0.3505    0.4691 C.ar    1  UNL1       -0.0597
     12 C           2.5438   -0.6086    1.0535 C.ar    1  UNL1       -0.0362
     13 C           1.3799   -0.2517    0.4017 C.ar    1  UNL1        0.0665
     14 N           0.0847   -0.4105    0.7906 N.ar    1  UNL1       -0.3366
     15 H          -5.0982    0.7995   -1.3517 H       1  UNL1        0.1882
     16 H          -5.1224   -0.3344    0.9233 H       1  UNL1        0.0824
     17 H          -2.6479   -0.7981    1.7174 H       1  UNL1        0.0655
     18 H           2.5814    1.1104   -2.3945 H       1  UNL1        0.0639
     19 H           4.7455    0.5083   -1.3055 H       1  UNL1        0.0618
     20 H           4.6988   -0.6112    0.9412 H       1  UNL1        0.0618
     21 H           2.5638   -1.0966    2.0308 H       1  UNL1        0.0639
     22 H          -0.3017   -0.8390    1.6707 H       1  UNL1        0.1674
@<TRIPOS>BOND
     1     1     2   ar
     2     2     3   ar
     3     3     4   ar
     4     4     5   ar
     5     4     6    1
     6     6     7   ar
     7     7     8   ar
     8     8     9   ar
     9     9    10   ar
    10    10    11   ar
    11    11    12   ar
    12    12    13   ar
    13    13    14   ar
    14     5     1   ar
    15    14     6   ar
    16    13     8   ar
    17     1    15    1
    18     2    16    1
    19     3    17    1
    20     9    18    1
    21    10    19    1
    22    11    20    1
    23    12    21    1
    24    14    22    1
