@<TRIPOS>MOLECULE
*****
 53 58 0 0 0
SMALL
GASTEIGER

@<TRIPOS>ATOM
      1 CL          3.6940    2.6685   -1.9347 Cl      1  UNL1       -0.0816
      2 C           3.1371    1.2612   -1.0535 C.ar    1  UNL1        0.0625
      3 C           1.7738    1.0559   -0.8552 C.ar    1  UNL1       -0.0338
      4 C           1.3015   -0.0361   -0.1691 C.ar    1  UNL1       -0.0135
      5 C          -0.1095   -0.2735    0.0507 C.ar    1  UNL1        0.0185
      6 C          -1.0492    0.1272   -0.8684 C.ar    1  UNL1        0.0391
      7 N          -2.3476   -0.0960   -0.6547 N.ar    1  UNL1       -0.2350
      8 C          -2.7422   -0.7175    0.4678 C.ar    1  UNL1        0.1632
      9 C          -4.0132   -1.0573    0.9099 C.ar    1  UNL1        0.0466
     10 C          -5.3139   -0.8202    0.2466 C.ar    1  UNL1       -0.0037
     11 C          -5.8423   -1.7559   -0.6174 C.ar    1  UNL1       -0.0532
     12 C          -7.0516   -1.5555   -1.2465 C.ar    1  UNL1       -0.0591
     13 C          -7.7230   -0.3795   -0.9826 C.ar    1  UNL1       -0.0357
     14 C          -7.2165    0.5746   -0.1213 C.ar    1  UNL1        0.0715
     15 N          -7.9127    1.7233    0.1111 N.ar    1  UNL1       -0.2550
     16 C          -7.3839    2.6206    0.9531 C.ar    1  UNL1        0.0283
     17 C          -6.1814    2.4217    1.5788 C.ar    1  UNL1       -0.0430
     18 C          -5.4588    1.2709    1.3614 C.ar    1  UNL1       -0.0506
     19 C          -6.0142    0.3378    0.4824 C.ar    1  UNL1        0.0082
     20 C          -3.8446   -1.6761    2.1190 C.ar    1  UNL1        0.0597
     21 N          -2.5335   -1.7193    2.4157 N.ar    1  UNL1       -0.1727
     22 N          -1.8772   -1.1355    1.4076 N.ar    1  UNL1       -0.2206
     23 C          -0.5550   -0.9079    1.1893 C.ar    1  UNL1        0.0406
     24 C           2.2206   -0.9305    0.3218 C.ar    1  UNL1       -0.0521
     25 C           3.5881   -0.7494    0.1378 C.ar    1  UNL1       -0.0387
     26 C           4.0476    0.3453   -0.5490 C.ar    1  UNL1        0.0484
     27 N           5.4272    0.5447   -0.7447 N.pl3   1  UNL1       -0.3263
     28 C           6.0145    0.6216   -2.0648 C.3     1  UNL1        0.0248
     29 C           7.2551   -0.2522   -2.0703 C.3     1  UNL1        0.0117
     30 N           7.2848   -1.1323   -0.9283 N.3     1  UNL1       -0.3130
     31 C           7.3313   -0.4086    0.3266 C.3     1  UNL1        0.0117
     32 C           6.2937    0.6798    0.4062 C.3     1  UNL1        0.0248
     33 H           1.1093    1.7872   -1.2611 H       1  UNL1        0.0639
     34 H          -0.7051    0.6351   -1.7820 H       1  UNL1        0.0837
     35 H          -5.2884   -2.6754   -0.8070 H       1  UNL1        0.0624
     36 H          -7.4367   -2.3131   -1.9199 H       1  UNL1        0.0618
     37 H          -8.6857   -0.2009   -1.4717 H       1  UNL1        0.0639
     38 H          -7.9646    3.5296    1.1186 H       1  UNL1        0.0830
     39 H          -5.7781    3.1576    2.2502 H       1  UNL1        0.0633
     40 H          -4.5054    1.0564    1.8247 H       1  UNL1        0.0625
     41 H          -4.6064   -2.0817    2.7693 H       1  UNL1        0.0855
     42 H           0.1638   -1.2291    1.9209 H       1  UNL1        0.0837
     43 H           1.9191   -1.8234    0.8791 H       1  UNL1        0.0624
     44 H           4.3108   -1.4516    0.5231 H       1  UNL1        0.0637
     45 H           6.3138    1.6912   -2.2476 H       1  UNL1        0.0476
     46 H           5.2946    0.2945   -2.8413 H       1  UNL1        0.0476
     47 H           7.2154   -0.8886   -2.9771 H       1  UNL1        0.0439
     48 H           8.1747    0.3853   -2.1477 H       1  UNL1        0.0439
     49 H           8.1688   -1.6861   -0.9806 H       1  UNL1        0.1220
     50 H           7.1809   -1.1561    1.1323 H       1  UNL1        0.0439
     51 H           8.3592   -0.0046    0.4446 H       1  UNL1        0.0439
     52 H           5.7290    0.6772    1.3589 H       1  UNL1        0.0476
     53 H           6.8319    1.6472    0.3460 H       1  UNL1        0.0476
@<TRIPOS>BOND
     1     1     2    1
     2     2     3   ar
     3     3     4   ar
     4     4     5    1
     5     5     6   ar
     6     6     7   ar
     7     7     8   ar
     8     8     9   ar
     9     9    10    1
    10    10    11   ar
    11    11    12   ar
    12    12    13   ar
    13    13    14   ar
    14    14    15   ar
    15    15    16   ar
    16    16    17   ar
    17    17    18   ar
    18    18    19   ar
    19     9    20   ar
    20    20    21   ar
    21    21    22   ar
    22    22    23   ar
    23     4    24   ar
    24    24    25   ar
    25    25    26   ar
    26    26    27    1
    27    27    28    1
    28    28    29    1
    29    29    30    1
    30    30    31    1
    31    31    32    1
    32    26     2   ar
    33    32    27    1
    34    23     5   ar
    35    22     8   ar
    36    19    10   ar
    37    19    14   ar
    38     3    33    1
    39     6    34    1
    40    11    35    1
    41    12    36    1
    42    13    37    1
    43    16    38    1
    44    17    39    1
    45    18    40    1
    46    20    41    1
    47    23    42    1
    48    24    43    1
    49    25    44    1
    50    28    45    1
    51    28    46    1
    52    29    47    1
    53    29    48    1
    54    30    49    1
    55    31    50    1
    56    31    51    1
    57    32    52    1
    58    32    53    1
