
     RDKit          3D

 53 58  0  0  0  0  0  0  0  0999 V2000
    3.6940    2.6685   -1.9347 Cl  0  0  0  0  0  0  0  0  0  0  0  0
    3.1371    1.2612   -1.0535 C   0  0  0  0  0  0  0  0  0  0  0  0
    1.7738    1.0559   -0.8552 C   0  0  0  0  0  0  0  0  0  0  0  0
    1.3015   -0.0361   -0.1691 C   0  0  0  0  0  0  0  0  0  0  0  0
   -0.1095   -0.2735    0.0507 C   0  0  0  0  0  0  0  0  0  0  0  0
   -1.0492    0.1272   -0.8684 C   0  0  0  0  0  0  0  0  0  0  0  0
   -2.3476   -0.0960   -0.6547 N   0  0  0  0  0  0  0  0  0  0  0  0
   -2.7422   -0.7175    0.4678 C   0  0  0  0  0  0  0  0  0  0  0  0
   -4.0132   -1.0573    0.9099 C   0  0  0  0  0  0  0  0  0  0  0  0
   -5.3139   -0.8202    0.2466 C   0  0  0  0  0  0  0  0  0  0  0  0
   -5.8423   -1.7559   -0.6174 C   0  0  0  0  0  0  0  0  0  0  0  0
   -7.0516   -1.5555   -1.2465 C   0  0  0  0  0  0  0  0  0  0  0  0
   -7.7230   -0.3795   -0.9826 C   0  0  0  0  0  0  0  0  0  0  0  0
   -7.2165    0.5746   -0.1213 C   0  0  0  0  0  0  0  0  0  0  0  0
   -7.9127    1.7233    0.1111 N   0  0  0  0  0  0  0  0  0  0  0  0
   -7.3839    2.6206    0.9531 C   0  0  0  0  0  0  0  0  0  0  0  0
   -6.1814    2.4217    1.5788 C   0  0  0  0  0  0  0  0  0  0  0  0
   -5.4588    1.2709    1.3614 C   0  0  0  0  0  0  0  0  0  0  0  0
   -6.0142    0.3378    0.4824 C   0  0  0  0  0  0  0  0  0  0  0  0
   -3.8446   -1.6761    2.1190 C   0  0  0  0  0  0  0  0  0  0  0  0
   -2.5335   -1.7193    2.4157 N   0  0  0  0  0  0  0  0  0  0  0  0
   -1.8772   -1.1355    1.4076 N   0  0  0  0  0  0  0  0  0  0  0  0
   -0.5550   -0.9079    1.1893 C   0  0  0  0  0  0  0  0  0  0  0  0
    2.2206   -0.9305    0.3218 C   0  0  0  0  0  0  0  0  0  0  0  0
    3.5881   -0.7494    0.1378 C   0  0  0  0  0  0  0  0  0  0  0  0
    4.0476    0.3453   -0.5490 C   0  0  0  0  0  0  0  0  0  0  0  0
    5.4272    0.5447   -0.7447 N   0  0  0  0  0  0  0  0  0  0  0  0
    6.0145    0.6216   -2.0648 C   0  0  0  0  0  0  0  0  0  0  0  0
    7.2551   -0.2522   -2.0703 C   0  0  0  0  0  0  0  0  0  0  0  0
    7.2848   -1.1323   -0.9283 N   0  0  0  0  0  0  0  0  0  0  0  0
    7.3313   -0.4086    0.3266 C   0  0  0  0  0  0  0  0  0  0  0  0
    6.2937    0.6798    0.4062 C   0  0  0  0  0  0  0  0  0  0  0  0
    1.1093    1.7872   -1.2611 H   0  0  0  0  0  0  0  0  0  0  0  0
   -0.7051    0.6351   -1.7820 H   0  0  0  0  0  0  0  0  0  0  0  0
   -5.2884   -2.6754   -0.8070 H   0  0  0  0  0  0  0  0  0  0  0  0
   -7.4367   -2.3131   -1.9199 H   0  0  0  0  0  0  0  0  0  0  0  0
   -8.6857   -0.2009   -1.4717 H   0  0  0  0  0  0  0  0  0  0  0  0
   -7.9646    3.5296    1.1186 H   0  0  0  0  0  0  0  0  0  0  0  0
   -5.7781    3.1576    2.2502 H   0  0  0  0  0  0  0  0  0  0  0  0
   -4.5054    1.0564    1.8247 H   0  0  0  0  0  0  0  0  0  0  0  0
   -4.6064   -2.0817    2.7693 H   0  0  0  0  0  0  0  0  0  0  0  0
    0.1638   -1.2291    1.9209 H   0  0  0  0  0  0  0  0  0  0  0  0
    1.9191   -1.8234    0.8791 H   0  0  0  0  0  0  0  0  0  0  0  0
    4.3108   -1.4516    0.5231 H   0  0  0  0  0  0  0  0  0  0  0  0
    6.3138    1.6912   -2.2476 H   0  0  0  0  0  0  0  0  0  0  0  0
    5.2946    0.2945   -2.8413 H   0  0  0  0  0  0  0  0  0  0  0  0
    7.2154   -0.8886   -2.9771 H   0  0  0  0  0  0  0  0  0  0  0  0
    8.1747    0.3853   -2.1477 H   0  0  0  0  0  0  0  0  0  0  0  0
    8.1688   -1.6861   -0.9806 H   0  0  0  0  0  0  0  0  0  0  0  0
    7.1809   -1.1561    1.1323 H   0  0  0  0  0  0  0  0  0  0  0  0
    8.3592   -0.0046    0.4446 H   0  0  0  0  0  0  0  0  0  0  0  0
    5.7290    0.6772    1.3589 H   0  0  0  0  0  0  0  0  0  0  0  0
    6.8319    1.6472    0.3460 H   0  0  0  0  0  0  0  0  0  0  0  0
  1  2  1  0
  2  3  2  0
  3  4  1  0
  4  5  1  0
  5  6  1  0
  6  7  2  0
  7  8  1  0
  8  9  2  0
  9 10  1  0
 10 11  2  0
 11 12  1  0
 12 13  2  0
 13 14  1  0
 14 15  2  0
 15 16  1  0
 16 17  2  0
 17 18  1  0
 18 19  2  0
  9 20  1  0
 20 21  2  0
 21 22  1  0
 22 23  1  0
  4 24  2  0
 24 25  1  0
 25 26  2  0
 26 27  1  0
 27 28  1  0
 28 29  1  0
 29 30  1  0
 30 31  1  0
 31 32  1  0
 26  2  1  0
 32 27  1  0
 23  5  2  0
 22  8  1  0
 19 10  1  0
 19 14  1  0
  3 33  1  0
  6 34  1  0
 11 35  1  0
 12 36  1  0
 13 37  1  0
 16 38  1  0
 17 39  1  0
 18 40  1  0
 20 41  1  0
 23 42  1  0
 24 43  1  0
 25 44  1  0
 28 45  1  0
 28 46  1  0
 29 47  1  0
 29 48  1  0
 30 49  1  0
 31 50  1  0
 31 51  1  0
 32 52  1  0
 32 53  1  0
M  END
$$$$
