
     RDKit          3D

 54 57  0  0  0  0  0  0  0  0999 V2000
   -7.6950    2.4050   -0.1772 C   0  0  0  0  0  0  0  0  0  0  0  0
   -7.4125    1.0355    0.1961 N   0  0  0  0  0  0  0  0  0  0  0  0
   -8.3574    0.1454    0.6169 C   0  0  0  0  0  0  0  0  0  0  0  0
   -7.7427   -1.0707    0.8952 C   0  0  0  0  0  0  0  0  0  0  0  0
   -6.4171   -0.8783    0.6300 N   0  0  0  0  0  0  0  0  0  0  0  0
   -6.2466    0.3887    0.2135 C   0  0  0  0  0  0  0  0  0  0  0  0
   -4.9579    0.9567   -0.1661 C   0  0  0  0  0  0  0  0  0  0  0  0
   -4.9954    2.1582   -0.5615 O   0  0  0  0  0  0  0  0  0  0  0  0
   -3.7395    0.2029   -0.0943 C   0  0  0  0  0  0  0  0  0  0  0  0
   -2.4654    0.5814   -0.4284 C   0  0  0  0  0  0  0  0  0  0  0  0
   -2.0348    1.8901   -0.9567 C   0  0  0  0  0  0  0  0  0  0  0  0
   -1.5651   -0.4653   -0.2029 C   0  0  0  0  0  0  0  0  0  0  0  0
   -2.4184   -1.4564    0.2799 C   0  0  0  0  0  0  0  0  0  0  0  0
   -3.6626   -1.0430    0.3311 O   0  0  0  0  0  0  0  0  0  0  0  0
   -1.9025   -2.6829    0.6297 C   0  0  0  0  0  0  0  0  0  0  0  0
   -0.5628   -2.9853    0.5244 C   0  0  0  0  0  0  0  0  0  0  0  0
    0.2141   -1.9580    0.0408 C   0  0  0  0  0  0  0  0  0  0  0  0
   -0.1832   -0.6974   -0.3393 C   0  0  0  0  0  0  0  0  0  0  0  0
    0.4178    0.3753   -0.8127 O   0  0  0  0  0  0  0  0  0  0  0  0
    1.5899    0.9123   -1.1789 C   0  0  0  0  0  0  0  0  0  0  0  0
    2.6990    1.0830   -0.2056 C   0  0  0  0  0  0  0  0  0  0  0  0
    3.2534   -0.1280    0.4399 C   0  0  0  0  0  0  0  0  0  0  0  0
    3.8069   -1.0845   -0.4912 N   0  0  0  0  0  0  0  0  0  0  0  0
    5.0108   -0.6361   -1.1525 C   0  0  0  0  0  0  0  0  0  0  0  0
    6.1361   -0.3471   -0.2641 C   0  0  0  0  0  0  0  0  0  0  0  0
    6.4235    0.8688    0.3186 C   0  0  0  0  0  0  0  0  0  0  0  0
    7.4926    1.0175    1.1213 N   0  0  0  0  0  0  0  0  0  0  0  0
    8.3262    0.0017    1.3939 C   0  0  0  0  0  0  0  0  0  0  0  0
    8.0637   -1.2275    0.8243 C   0  0  0  0  0  0  0  0  0  0  0  0
    6.9778   -1.4350   -0.0082 C   0  0  0  0  0  0  0  0  0  0  0  0
   -7.2534    2.7210   -1.1245 H   0  0  0  0  0  0  0  0  0  0  0  0
   -7.2609    3.0977    0.5990 H   0  0  0  0  0  0  0  0  0  0  0  0
   -8.7928    2.5718   -0.2466 H   0  0  0  0  0  0  0  0  0  0  0  0
   -9.4272    0.3902    0.7084 H   0  0  0  0  0  0  0  0  0  0  0  0
   -8.2812   -1.9214    1.2407 H   0  0  0  0  0  0  0  0  0  0  0  0
   -1.1615    2.2015   -0.3110 H   0  0  0  0  0  0  0  0  0  0  0  0
   -2.7504    2.6946   -0.8849 H   0  0  0  0  0  0  0  0  0  0  0  0
   -1.6172    1.8407   -1.9895 H   0  0  0  0  0  0  0  0  0  0  0  0
   -2.5588   -3.4526    1.0037 H   0  0  0  0  0  0  0  0  0  0  0  0
   -0.1066   -3.9205    0.7807 H   0  0  0  0  0  0  0  0  0  0  0  0
    1.2590   -2.1408   -0.0724 H   0  0  0  0  0  0  0  0  0  0  0  0
    1.5019    1.9074   -1.7141 H   0  0  0  0  0  0  0  0  0  0  0  0
    2.0281    0.2479   -2.0063 H   0  0  0  0  0  0  0  0  0  0  0  0
    3.5442    1.5635   -0.7791 H   0  0  0  0  0  0  0  0  0  0  0  0
    2.4474    1.8438    0.5674 H   0  0  0  0  0  0  0  0  0  0  0  0
    2.6063   -0.6597    1.1420 H   0  0  0  0  0  0  0  0  0  0  0  0
    4.1283    0.2253    1.0692 H   0  0  0  0  0  0  0  0  0  0  0  0
    3.1274   -1.2927   -1.2604 H   0  0  0  0  0  0  0  0  0  0  0  0
    4.6997    0.2315   -1.7906 H   0  0  0  0  0  0  0  0  0  0  0  0
    5.2606   -1.4356   -1.8913 H   0  0  0  0  0  0  0  0  0  0  0  0
    5.7680    1.6870    0.1087 H   0  0  0  0  0  0  0  0  0  0  0  0
    9.1839    0.1287    2.0401 H   0  0  0  0  0  0  0  0  0  0  0  0
    8.7492   -2.0300    1.0595 H   0  0  0  0  0  0  0  0  0  0  0  0
    6.8534   -2.4264   -0.4044 H   0  0  0  0  0  0  0  0  0  0  0  0
  1  2  1  0
  2  3  1  0
  3  4  2  0
  4  5  1  0
  5  6  2  0
  6  7  1  0
  7  8  2  0
  7  9  1  0
  9 10  2  0
 10 11  1  0
 10 12  1  0
 12 13  2  0
 13 14  1  0
 13 15  1  0
 15 16  2  0
 16 17  1  0
 17 18  2  0
 18 19  1  0
 19 20  1  0
 20 21  1  0
 21 22  1  0
 22 23  1  0
 23 24  1  0
 24 25  1  0
 25 26  2  0
 26 27  1  0
 27 28  2  0
 28 29  1  0
 29 30  2  0
  6  2  1  0
 14  9  1  0
 30 25  1  0
 18 12  1  0
  1 31  1  0
  1 32  1  0
  1 33  1  0
  3 34  1  0
  4 35  1  0
 11 36  1  0
 11 37  1  0
 11 38  1  0
 15 39  1  0
 16 40  1  0
 17 41  1  0
 20 42  1  0
 20 43  1  0
 21 44  1  0
 21 45  1  0
 22 46  1  0
 22 47  1  0
 23 48  1  0
 24 49  1  0
 24 50  1  0
 26 51  1  0
 28 52  1  0
 29 53  1  0
 30 54  1  0
M  END
$$$$
