
     RDKit          3D

 83 88  0  0  0  0  0  0  0  0999 V2000
   -8.9358    2.1905   -3.7974 C   0  0  0  0  0  0  0  0  0  0  0  0
   -8.5663    1.6925   -2.5160 O   0  0  0  0  0  0  0  0  0  0  0  0
   -7.2808    1.2467   -2.2294 C   0  0  0  0  0  0  0  0  0  0  0  0
   -6.2683    1.2657   -3.1927 C   0  0  0  0  0  0  0  0  0  0  0  0
   -5.0000    0.8071   -2.8531 C   0  0  0  0  0  0  0  0  0  0  0  0
   -4.7376    0.3418   -1.5955 C   0  0  0  0  0  0  0  0  0  0  0  0
   -5.7753    0.3517   -0.7010 C   0  0  0  0  0  0  0  0  0  0  0  0
   -7.0527    0.7828   -0.9443 C   0  0  0  0  0  0  0  0  0  0  0  0
   -7.8287    0.6372    0.2177 O   0  0  0  0  0  0  0  0  0  0  0  0
   -6.8828    0.6631    1.3029 C   0  0  1  0  0  0  0  0  0  0  0  0
   -7.4333    0.1426    2.5778 C   0  0  0  0  0  0  0  0  0  0  0  0
   -7.1092   -1.2765    2.9003 C   0  0  1  0  0  0  0  0  0  0  0  0
   -8.3037   -1.8879    3.3470 O   0  0  0  0  0  0  0  0  0  0  0  0
   -6.5945   -2.0722    1.7819 C   0  0  0  0  0  0  0  0  0  0  0  0
   -5.9548   -1.5442    0.7558 C   0  0  0  0  0  0  0  0  0  0  0  0
   -5.7478   -0.0947    0.7308 C   0  0  1  0  0  0  0  0  0  0  0  0
   -4.3913    0.2258    1.3040 C   0  0  0  0  0  0  0  0  0  0  0  0
   -3.6560    1.2530    0.5076 C   0  0  0  0  0  0  0  0  0  0  0  0
   -2.7073    0.6987   -0.4639 N   0  0  0  0  0  0  0  0  0  0  0  0
   -1.4368    0.5713    0.0644 C   0  0  0  0  0  0  0  0  0  0  0  0
   -0.2825    0.1349   -0.7321 C   0  0  0  0  0  0  0  0  0  0  0  0
   -0.3623   -1.2418   -1.2624 C   0  0  0  0  0  0  0  0  0  0  0  0
    0.8452   -1.6544   -2.0492 C   0  0  0  0  0  0  0  0  0  0  0  0
    2.0858   -1.6713   -1.2649 C   0  0  0  0  0  0  0  0  0  0  0  0
    2.5386   -0.4649   -0.7184 O   0  0  0  0  0  0  0  0  0  0  0  0
    3.6953   -0.4245    0.0446 C   0  0  0  0  0  0  0  0  0  0  0  0
    4.4627   -1.5343    0.3132 C   0  0  0  0  0  0  0  0  0  0  0  0
    5.6150   -1.4715    1.0810 C   0  0  0  0  0  0  0  0  0  0  0  0
    6.0543   -0.2705    1.6216 C   0  0  0  0  0  0  0  0  0  0  0  0
    7.2784   -0.1814    2.4512 C   0  0  0  0  0  0  0  0  0  0  0  0
    8.4787    0.0720    1.7430 N   0  0  0  0  0  0  0  0  0  0  0  0
    8.5493    1.3006    1.0141 C   0  0  0  0  0  0  0  0  0  0  0  0
   10.0357    1.6963    1.0218 C   0  0  0  0  0  0  0  0  0  0  0  0
   10.8827    0.6004    0.4604 C   0  0  0  0  0  0  0  0  0  0  0  0
   10.5413   -0.7768    0.9236 C   0  0  0  0  0  0  0  0  0  0  0  0
    9.0435   -1.0211    1.0184 C   0  0  0  0  0  0  0  0  0  0  0  0
    5.2892    0.8421    1.3546 C   0  0  0  0  0  0  0  0  0  0  0  0
    4.1432    0.7769    0.5904 C   0  0  0  0  0  0  0  0  0  0  0  0
   -3.2919   -0.1330   -1.4103 C   0  0  0  0  0  0  0  0  0  0  0  0
  -10.0092    2.4502   -3.7825 H   0  0  0  0  0  0  0  0  0  0  0  0
   -8.7452    1.4031   -4.5648 H   0  0  0  0  0  0  0  0  0  0  0  0
   -8.3479    3.0764   -4.0943 H   0  0  0  0  0  0  0  0  0  0  0  0
   -6.4916    1.6362   -4.1829 H   0  0  0  0  0  0  0  0  0  0  0  0
   -4.2143    0.8221   -3.6022 H   0  0  0  0  0  0  0  0  0  0  0  0
   -6.6332    1.7360    1.4324 H   0  0  0  0  0  0  0  0  0  0  0  0
   -8.5376    0.3447    2.6041 H   0  0  0  0  0  0  0  0  0  0  0  0
   -7.0337    0.7760    3.4255 H   0  0  0  0  0  0  0  0  0  0  0  0
   -6.4146   -1.3606    3.7876 H   0  0  0  0  0  0  0  0  0  0  0  0
   -8.9817   -1.2076    3.5862 H   0  0  0  0  0  0  0  0  0  0  0  0
   -6.7425   -3.1487    1.7900 H   0  0  0  0  0  0  0  0  0  0  0  0
   -5.6029   -2.1892   -0.0325 H   0  0  0  0  0  0  0  0  0  0  0  0
   -4.5358    0.6016    2.3303 H   0  0  0  0  0  0  0  0  0  0  0  0
   -3.8035   -0.6854    1.3416 H   0  0  0  0  0  0  0  0  0  0  0  0
   -4.3270    1.9359   -0.0423 H   0  0  0  0  0  0  0  0  0  0  0  0
   -3.0579    1.8696    1.2019 H   0  0  0  0  0  0  0  0  0  0  0  0
   -1.4639    0.0035    1.0620 H   0  0  0  0  0  0  0  0  0  0  0  0
   -1.1587    1.6249    0.4748 H   0  0  0  0  0  0  0  0  0  0  0  0
    0.6641    0.2422   -0.0942 H   0  0  0  0  0  0  0  0  0  0  0  0
   -0.0514    0.8296   -1.5899 H   0  0  0  0  0  0  0  0  0  0  0  0
   -1.2541   -1.4852   -1.8775 H   0  0  0  0  0  0  0  0  0  0  0  0
   -0.4837   -1.9211   -0.3593 H   0  0  0  0  0  0  0  0  0  0  0  0
    0.9362   -1.0422   -3.0006 H   0  0  0  0  0  0  0  0  0  0  0  0
    0.6609   -2.6952   -2.4635 H   0  0  0  0  0  0  0  0  0  0  0  0
    2.9354   -2.1993   -1.8013 H   0  0  0  0  0  0  0  0  0  0  0  0
    1.9063   -2.3719   -0.3833 H   0  0  0  0  0  0  0  0  0  0  0  0
    4.1251   -2.4761   -0.1053 H   0  0  0  0  0  0  0  0  0  0  0  0
    6.2207   -2.3367    1.2956 H   0  0  0  0  0  0  0  0  0  0  0  0
    7.1831    0.6216    3.2318 H   0  0  0  0  0  0  0  0  0  0  0  0
    7.4375   -1.1158    3.0562 H   0  0  0  0  0  0  0  0  0  0  0  0
    8.2606    1.1294   -0.0459 H   0  0  0  0  0  0  0  0  0  0  0  0
    7.9872    2.0926    1.5053 H   0  0  0  0  0  0  0  0  0  0  0  0
   10.2871    1.7759    2.1206 H   0  0  0  0  0  0  0  0  0  0  0  0
   10.2222    2.6191    0.4734 H   0  0  0  0  0  0  0  0  0  0  0  0
   10.7930    0.6160   -0.6590 H   0  0  0  0  0  0  0  0  0  0  0  0
   11.9430    0.8009    0.7781 H   0  0  0  0  0  0  0  0  0  0  0  0
   11.0305   -1.4982    0.2359 H   0  0  0  0  0  0  0  0  0  0  0  0
   10.9280   -0.9443    1.9690 H   0  0  0  0  0  0  0  0  0  0  0  0
    8.8806   -1.9497    1.5918 H   0  0  0  0  0  0  0  0  0  0  0  0
    8.5885   -1.1762    0.0107 H   0  0  0  0  0  0  0  0  0  0  0  0
    5.6213    1.7944    1.7735 H   0  0  0  0  0  0  0  0  0  0  0  0
    3.5272    1.6523    0.3702 H   0  0  0  0  0  0  0  0  0  0  0  0
   -3.3322   -1.2160   -1.1674 H   0  0  0  0  0  0  0  0  0  0  0  0
   -2.8556   -0.0075   -2.4052 H   0  0  0  0  0  0  0  0  0  0  0  0
  1  2  1  0
  2  3  1  0
  3  4  2  0
  4  5  1  0
  5  6  2  0
  6  7  1  0
  7  8  2  0
  8  9  1  0
  9 10  1  0
 10 11  1  0
 11 12  1  0
 12 13  1  0
 12 14  1  0
 14 15  2  0
 15 16  1  0
 16 17  1  1
 17 18  1  0
 18 19  1  0
 19 20  1  0
 20 21  1  0
 21 22  1  0
 22 23  1  0
 23 24  1  0
 24 25  1  0
 25 26  1  0
 26 27  2  0
 27 28  1  0
 28 29  2  0
 29 30  1  0
 30 31  1  0
 31 32  1  0
 32 33  1  0
 33 34  1  0
 34 35  1  0
 35 36  1  0
 29 37  1  0
 37 38  2  0
 19 39  1  0
  8  3  1  0
 16 10  1  0
 38 26  1  0
 39  6  1  0
 16  7  1  0
 36 31  1  0
  1 40  1  0
  1 41  1  0
  1 42  1  0
  4 43  1  0
  5 44  1  0
 10 45  1  1
 11 46  1  0
 11 47  1  0
 12 48  1  1
 13 49  1  0
 14 50  1  0
 15 51  1  0
 17 52  1  0
 17 53  1  0
 18 54  1  0
 18 55  1  0
 20 56  1  0
 20 57  1  0
 21 58  1  0
 21 59  1  0
 22 60  1  0
 22 61  1  0
 23 62  1  0
 23 63  1  0
 24 64  1  0
 24 65  1  0
 27 66  1  0
 28 67  1  0
 30 68  1  0
 30 69  1  0
 32 70  1  0
 32 71  1  0
 33 72  1  0
 33 73  1  0
 34 74  1  0
 34 75  1  0
 35 76  1  0
 35 77  1  0
 36 78  1  0
 36 79  1  0
 37 80  1  0
 38 81  1  0
 39 82  1  0
 39 83  1  0
M  END
$$$$
