@<TRIPOS>MOLECULE
*****
 83 88 0 0 0
SMALL
GASTEIGER

@<TRIPOS>ATOM
      1 C          -8.9358    2.1905   -3.7974 C.3     1  UNL1        0.0790
      2 O          -8.5663    1.6925   -2.5160 O.3     1  UNL1       -0.4914
      3 C          -7.2808    1.2467   -2.2294 C.ar    1  UNL1        0.1618
      4 C          -6.2683    1.2657   -3.1927 C.ar    1  UNL1       -0.0160
      5 C          -5.0000    0.8071   -2.8531 C.ar    1  UNL1       -0.0534
      6 C          -4.7376    0.3418   -1.5955 C.ar    1  UNL1       -0.0255
      7 C          -5.7753    0.3517   -0.7010 C.ar    1  UNL1        0.0158
      8 C          -7.0527    0.7828   -0.9443 C.ar    1  UNL1        0.1667
      9 O          -7.8287    0.6372    0.2177 O.3     1  UNL1       -0.4836
     10 C          -6.8828    0.6631    1.3029 C.3     1  UNL1        0.1161
     11 C          -7.4333    0.1426    2.5778 C.3     1  UNL1        0.0151
     12 C          -7.1092   -1.2765    2.9003 C.3     1  UNL1        0.0768
     13 O          -8.3037   -1.8879    3.3470 O.3     1  UNL1       -0.3876
     14 C          -6.5945   -2.0722    1.7819 C.2     1  UNL1       -0.0588
     15 C          -5.9548   -1.5442    0.7558 C.2     1  UNL1       -0.0715
     16 C          -5.7478   -0.0947    0.7308 C.3     1  UNL1        0.0558
     17 C          -4.3913    0.2258    1.3040 C.3     1  UNL1       -0.0235
     18 C          -3.6560    1.2530    0.5076 C.3     1  UNL1        0.0004
     19 N          -2.7073    0.6987   -0.4639 N.3     1  UNL1       -0.2981
     20 C          -1.4368    0.5713    0.0644 C.3     1  UNL1       -0.0008
     21 C          -0.2825    0.1349   -0.7321 C.3     1  UNL1       -0.0401
     22 C          -0.3623   -1.2418   -1.2624 C.3     1  UNL1       -0.0488
     23 C           0.8452   -1.6544   -2.0492 C.3     1  UNL1       -0.0186
     24 C           2.0858   -1.6713   -1.2649 C.3     1  UNL1        0.0896
     25 O           2.5386   -0.4649   -0.7184 O.3     1  UNL1       -0.4920
     26 C           3.6953   -0.4245    0.0446 C.ar    1  UNL1        0.1205
     27 C           4.4627   -1.5343    0.3132 C.ar    1  UNL1       -0.0196
     28 C           5.6150   -1.4715    1.0810 C.ar    1  UNL1       -0.0539
     29 C           6.0543   -0.2705    1.6216 C.ar    1  UNL1       -0.0331
     30 C           7.2784   -0.1814    2.4512 C.3     1  UNL1        0.0240
     31 N           8.4787    0.0720    1.7430 N.3     1  UNL1       -0.2982
     32 C           8.5493    1.3006    1.0141 C.3     1  UNL1       -0.0008
     33 C          10.0357    1.6963    1.0218 C.3     1  UNL1       -0.0402
     34 C          10.8827    0.6004    0.4604 C.3     1  UNL1       -0.0507
     35 C          10.5413   -0.7768    0.9236 C.3     1  UNL1       -0.0402
     36 C           9.0435   -1.0211    1.0184 C.3     1  UNL1       -0.0008
     37 C           5.2892    0.8421    1.3546 C.ar    1  UNL1       -0.0539
     38 C           4.1432    0.7769    0.5904 C.ar    1  UNL1       -0.0196
     39 C          -3.2919   -0.1330   -1.4103 C.3     1  UNL1        0.0244
     40 H         -10.0092    2.4502   -3.7825 H       1  UNL1        0.0660
     41 H          -8.7452    1.4031   -4.5648 H       1  UNL1        0.0660
     42 H          -8.3479    3.0764   -4.0943 H       1  UNL1        0.0660
     43 H          -6.4916    1.6362   -4.1829 H       1  UNL1        0.0655
     44 H          -4.2143    0.8221   -3.6022 H       1  UNL1        0.0622
     45 H          -6.6332    1.7360    1.4324 H       1  UNL1        0.0746
     46 H          -8.5376    0.3447    2.6041 H       1  UNL1        0.0329
     47 H          -7.0337    0.7760    3.4255 H       1  UNL1        0.0329
     48 H          -6.4146   -1.3606    3.7876 H       1  UNL1        0.0639
     49 H          -8.9817   -1.2076    3.5862 H       1  UNL1        0.2102
     50 H          -6.7425   -3.1487    1.7900 H       1  UNL1        0.0595
     51 H          -5.6029   -2.1892   -0.0325 H       1  UNL1        0.0580
     52 H          -4.5358    0.6016    2.3303 H       1  UNL1        0.0290
     53 H          -3.8035   -0.6854    1.3416 H       1  UNL1        0.0290
     54 H          -4.3270    1.9359   -0.0423 H       1  UNL1        0.0427
     55 H          -3.0579    1.8696    1.2019 H       1  UNL1        0.0427
     56 H          -1.4639    0.0035    1.0620 H       1  UNL1        0.0427
     57 H          -1.1587    1.6249    0.4748 H       1  UNL1        0.0427
     58 H           0.6641    0.2422   -0.0942 H       1  UNL1        0.0278
     59 H          -0.0514    0.8296   -1.5899 H       1  UNL1        0.0278
     60 H          -1.2541   -1.4852   -1.8775 H       1  UNL1        0.0267
     61 H          -0.4837   -1.9211   -0.3593 H       1  UNL1        0.0267
     62 H           0.9362   -1.0422   -3.0006 H       1  UNL1        0.0298
     63 H           0.6609   -2.6952   -2.4635 H       1  UNL1        0.0298
     64 H           2.9354   -2.1993   -1.8013 H       1  UNL1        0.0696
     65 H           1.9063   -2.3719   -0.3833 H       1  UNL1        0.0696
     66 H           4.1251   -2.4761   -0.1053 H       1  UNL1        0.0654
     67 H           6.2207   -2.3367    1.2956 H       1  UNL1        0.0622
     68 H           7.1831    0.6216    3.2318 H       1  UNL1        0.0476
     69 H           7.4375   -1.1158    3.0562 H       1  UNL1        0.0476
     70 H           8.2606    1.1294   -0.0459 H       1  UNL1        0.0427
     71 H           7.9872    2.0926    1.5053 H       1  UNL1        0.0427
     72 H          10.2871    1.7759    2.1206 H       1  UNL1        0.0278
     73 H          10.2222    2.6191    0.4734 H       1  UNL1        0.0278
     74 H          10.7930    0.6160   -0.6590 H       1  UNL1        0.0266
     75 H          11.9430    0.8009    0.7781 H       1  UNL1        0.0266
     76 H          11.0305   -1.4982    0.2359 H       1  UNL1        0.0278
     77 H          10.9280   -0.9443    1.9690 H       1  UNL1        0.0278
     78 H           8.8806   -1.9497    1.5918 H       1  UNL1        0.0427
     79 H           8.5885   -1.1762    0.0107 H       1  UNL1        0.0427
     80 H           5.6213    1.7944    1.7735 H       1  UNL1        0.0622
     81 H           3.5272    1.6523    0.3702 H       1  UNL1        0.0654
     82 H          -3.3322   -1.2160   -1.1674 H       1  UNL1        0.0476
     83 H          -2.8556   -0.0075   -2.4052 H       1  UNL1        0.0476
@<TRIPOS>BOND
     1     1     2    1
     2     2     3    1
     3     3     4   ar
     4     4     5   ar
     5     5     6   ar
     6     6     7   ar
     7     7     8   ar
     8     8     9    1
     9     9    10    1
    10    10    11    1
    11    11    12    1
    12    12    13    1
    13    12    14    1
    14    14    15    2
    15    15    16    1
    16    16    17    1
    17    17    18    1
    18    18    19    1
    19    19    20    1
    20    20    21    1
    21    21    22    1
    22    22    23    1
    23    23    24    1
    24    24    25    1
    25    25    26    1
    26    26    27   ar
    27    27    28   ar
    28    28    29   ar
    29    29    30    1
    30    30    31    1
    31    31    32    1
    32    32    33    1
    33    33    34    1
    34    34    35    1
    35    35    36    1
    36    29    37   ar
    37    37    38   ar
    38    19    39    1
    39     8     3   ar
    40    16    10    1
    41    38    26   ar
    42    39     6    1
    43    16     7    1
    44    36    31    1
    45     1    40    1
    46     1    41    1
    47     1    42    1
    48     4    43    1
    49     5    44    1
    50    10    45    1
    51    11    46    1
    52    11    47    1
    53    12    48    1
    54    13    49    1
    55    14    50    1
    56    15    51    1
    57    17    52    1
    58    17    53    1
    59    18    54    1
    60    18    55    1
    61    20    56    1
    62    20    57    1
    63    21    58    1
    64    21    59    1
    65    22    60    1
    66    22    61    1
    67    23    62    1
    68    23    63    1
    69    24    64    1
    70    24    65    1
    71    27    66    1
    72    28    67    1
    73    30    68    1
    74    30    69    1
    75    32    70    1
    76    32    71    1
    77    33    72    1
    78    33    73    1
    79    34    74    1
    80    34    75    1
    81    35    76    1
    82    35    77    1
    83    36    78    1
    84    36    79    1
    85    37    80    1
    86    38    81    1
    87    39    82    1
    88    39    83    1
