
     RDKit          3D

108112  0  0  0  0  0  0  0  0999 V2000
    3.5999   -0.4564    0.0541 C   0  0  1  0  0  0  0  0  0  0  0  0
    3.8159   -0.2240    1.5190 C   0  0  0  0  0  0  0  0  0  0  0  0
    4.7657   -0.0293   -0.6170 O   0  0  0  0  0  0  0  0  0  0  0  0
    5.8616   -0.6309   -0.0783 C   0  0  2  0  0  0  0  0  0  0  0  0
    7.0698   -0.1364   -0.5711 O   0  0  0  0  0  0  0  0  0  0  0  0
    7.8415    0.5423    0.3342 C   0  0  2  0  0  0  0  0  0  0  0  0
    8.0999    1.9251   -0.1320 C   0  0  1  0  0  0  0  0  0  0  0  0
    7.9070    2.9365    1.0107 C   0  0  0  0  0  0  0  0  0  0  0  0
    6.6820    2.6065    1.6380 O   0  0  0  0  0  0  0  0  0  0  0  0
    9.2593    2.1390   -0.8381 O   0  0  0  0  0  0  0  0  0  0  0  0
   10.1144    1.0801   -0.9606 C   0  0  2  0  0  0  0  0  0  0  0  0
    9.6319    0.0462   -1.7325 O   0  0  0  0  0  0  0  0  0  0  0  0
   10.3274    0.5413    0.4604 C   0  0  2  0  0  0  0  0  0  0  0  0
   11.4580   -0.2873    0.4806 O   0  0  0  0  0  0  0  0  0  0  0  0
    9.0717   -0.2433    0.7512 C   0  0  1  0  0  0  0  0  0  0  0  0
    9.0014   -0.7162    2.0576 O   0  0  0  0  0  0  0  0  0  0  0  0
    5.7548   -2.1036   -0.1191 C   0  0  2  0  0  0  0  0  0  0  0  0
    6.8127   -2.7543   -0.7439 O   0  0  0  0  0  0  0  0  0  0  0  0
    4.5316   -2.4624   -0.9820 C   0  0  1  0  0  0  0  0  0  0  0  0
    4.5203   -3.8310   -1.0820 O   0  0  0  0  0  0  0  0  0  0  0  0
    3.2776   -1.8895   -0.3310 C   0  0  2  0  0  0  0  0  0  0  0  0
    2.2019   -1.9885   -1.2568 N   0  0  0  0  0  0  0  0  0  0  0  0
    0.8792   -2.1140   -0.7963 C   0  0  1  0  0  0  0  0  0  0  0  0
    0.6205   -1.1835    0.3333 C   0  0  0  0  0  0  0  0  0  0  0  0
   -0.2047   -0.1984    0.5782 C   0  0  0  0  0  0  0  0  0  0  0  0
   -0.2546    0.5880    1.8199 C   0  0  0  0  0  0  0  0  0  0  0  0
   -0.0070    1.9324    1.4591 O   0  0  0  0  0  0  0  0  0  0  0  0
   -1.1353    0.0478   -0.5539 C   0  0  1  0  0  0  0  0  0  0  0  0
   -1.6288    1.3343   -0.5749 O   0  0  0  0  0  0  0  0  0  0  0  0
   -3.0278    1.3558   -0.5288 C   0  0  1  0  0  0  0  0  0  0  0  0
   -3.3836    1.9118    0.6900 O   0  0  0  0  0  0  0  0  0  0  0  0
   -4.7196    2.2166    0.8201 C   0  0  2  0  0  0  0  0  0  0  0  0
   -5.1421    1.7600    2.2133 C   0  0  0  0  0  0  0  0  0  0  0  0
   -4.3588    2.4560    3.1641 O   0  0  0  0  0  0  0  0  0  0  0  0
   -5.5596    1.4989   -0.1866 C   0  0  1  0  0  0  0  0  0  0  0  0
   -6.9265    1.6400    0.0373 O   0  0  0  0  0  0  0  0  0  0  0  0
   -7.5269    0.4031    0.3133 C   0  0  1  0  0  0  0  0  0  0  0  0
   -8.2385    0.5642    1.4775 O   0  0  0  0  0  0  0  0  0  0  0  0
   -8.7725   -0.5957    1.9546 C   0  0  2  0  0  0  0  0  0  0  0  0
   -7.7968   -1.6893    2.2350 C   0  0  0  0  0  0  0  0  0  0  0  0
   -8.5037   -2.7929    2.7363 O   0  0  0  0  0  0  0  0  0  0  0  0
   -9.8346   -1.1304    0.9931 C   0  0  1  0  0  0  0  0  0  0  0  0
  -10.9516   -0.2790    1.0528 O   0  0  0  0  0  0  0  0  0  0  0  0
   -9.3377   -1.1581   -0.4126 C   0  0  2  0  0  0  0  0  0  0  0  0
   -8.5604   -2.2921   -0.6713 O   0  0  0  0  0  0  0  0  0  0  0  0
   -8.5437    0.0645   -0.7830 C   0  0  1  0  0  0  0  0  0  0  0  0
   -9.3824    1.1239   -1.0320 O   0  0  0  0  0  0  0  0  0  0  0  0
   -5.1602    1.8377   -1.5954 C   0  0  2  0  0  0  0  0  0  0  0  0
   -5.4448    0.7037   -2.3960 O   0  0  0  0  0  0  0  0  0  0  0  0
   -3.6689    2.0652   -1.6761 C   0  0  1  0  0  0  0  0  0  0  0  0
   -3.3586    3.4279   -1.6975 O   0  0  0  0  0  0  0  0  0  0  0  0
   -0.3669   -0.2102   -1.8301 C   0  0  2  0  0  0  0  0  0  0  0  0
   -1.0528    0.1341   -2.9707 O   0  0  0  0  0  0  0  0  0  0  0  0
   -0.1492   -1.7244   -1.8646 C   0  0  1  0  0  0  0  0  0  0  0  0
    0.1430   -2.1671   -3.1154 O   0  0  0  0  0  0  0  0  0  0  0  0
    2.7609    0.2301   -0.2653 H   0  0  0  0  0  0  0  0  0  0  0  0
    4.3918    0.7270    1.7075 H   0  0  0  0  0  0  0  0  0  0  0  0
    2.8562   -0.0367    2.0776 H   0  0  0  0  0  0  0  0  0  0  0  0
    4.3141   -1.0175    2.0679 H   0  0  0  0  0  0  0  0  0  0  0  0
    5.8903   -0.3121    1.0098 H   0  0  0  0  0  0  0  0  0  0  0  0
    7.2442    0.5995    1.2941 H   0  0  0  0  0  0  0  0  0  0  0  0
    7.2728    2.1865   -0.8616 H   0  0  0  0  0  0  0  0  0  0  0  0
    7.8320    3.9479    0.5759 H   0  0  0  0  0  0  0  0  0  0  0  0
    8.6855    2.8128    1.7757 H   0  0  0  0  0  0  0  0  0  0  0  0
    5.9147    2.9347    1.0973 H   0  0  0  0  0  0  0  0  0  0  0  0
   11.1072    1.4459   -1.2861 H   0  0  0  0  0  0  0  0  0  0  0  0
   10.1854   -0.7617   -1.5734 H   0  0  0  0  0  0  0  0  0  0  0  0
   10.5135    1.3585    1.1662 H   0  0  0  0  0  0  0  0  0  0  0  0
   11.9072   -0.3074   -0.4235 H   0  0  0  0  0  0  0  0  0  0  0  0
    9.1270   -1.1737    0.1162 H   0  0  0  0  0  0  0  0  0  0  0  0
    8.0655   -0.5099    2.3826 H   0  0  0  0  0  0  0  0  0  0  0  0
    5.6479   -2.5968    0.8817 H   0  0  0  0  0  0  0  0  0  0  0  0
    7.5690   -2.9749   -0.1793 H   0  0  0  0  0  0  0  0  0  0  0  0
    4.6271   -2.0028   -1.9685 H   0  0  0  0  0  0  0  0  0  0  0  0
    3.9066   -4.0916   -1.8238 H   0  0  0  0  0  0  0  0  0  0  0  0
    3.0139   -2.4917    0.5705 H   0  0  0  0  0  0  0  0  0  0  0  0
    2.4209   -2.2006   -2.2271 H   0  0  0  0  0  0  0  0  0  0  0  0
    0.5881   -3.1319   -0.4706 H   0  0  0  0  0  0  0  0  0  0  0  0
    1.3268   -1.4962    1.0901 H   0  0  0  0  0  0  0  0  0  0  0  0
    0.5037    0.3412    2.5580 H   0  0  0  0  0  0  0  0  0  0  0  0
   -1.2550    0.4851    2.3230 H   0  0  0  0  0  0  0  0  0  0  0  0
   -0.4630    2.5699    2.0394 H   0  0  0  0  0  0  0  0  0  0  0  0
   -1.9445   -0.7185   -0.5082 H   0  0  0  0  0  0  0  0  0  0  0  0
   -3.4297    0.3083   -0.5056 H   0  0  0  0  0  0  0  0  0  0  0  0
   -4.9196    3.3197    0.8272 H   0  0  0  0  0  0  0  0  0  0  0  0
   -6.1844    2.0833    2.4375 H   0  0  0  0  0  0  0  0  0  0  0  0
   -4.9975    0.6948    2.3907 H   0  0  0  0  0  0  0  0  0  0  0  0
   -4.8873    2.8906    3.8588 H   0  0  0  0  0  0  0  0  0  0  0  0
   -5.3727    0.3913   -0.0452 H   0  0  0  0  0  0  0  0  0  0  0  0
   -6.7946   -0.3992    0.2874 H   0  0  0  0  0  0  0  0  0  0  0  0
   -9.3080   -0.3732    2.9243 H   0  0  0  0  0  0  0  0  0  0  0  0
   -7.0602   -1.3782    3.0003 H   0  0  0  0  0  0  0  0  0  0  0  0
   -7.2623   -2.0240    1.3181 H   0  0  0  0  0  0  0  0  0  0  0  0
   -8.0456   -3.6291    2.5332 H   0  0  0  0  0  0  0  0  0  0  0  0
  -10.1283   -2.1691    1.2892 H   0  0  0  0  0  0  0  0  0  0  0  0
  -11.1989    0.0225    0.1350 H   0  0  0  0  0  0  0  0  0  0  0  0
  -10.2064   -1.1946   -1.1141 H   0  0  0  0  0  0  0  0  0  0  0  0
   -8.2179   -2.1965   -1.6187 H   0  0  0  0  0  0  0  0  0  0  0  0
   -8.0265   -0.1954   -1.7420 H   0  0  0  0  0  0  0  0  0  0  0  0
   -8.9046    1.9672   -0.8003 H   0  0  0  0  0  0  0  0  0  0  0  0
   -5.7362    2.6684   -2.0305 H   0  0  0  0  0  0  0  0  0  0  0  0
   -4.9635   -0.0865   -2.1022 H   0  0  0  0  0  0  0  0  0  0  0  0
   -3.3086    1.6575   -2.6228 H   0  0  0  0  0  0  0  0  0  0  0  0
   -3.6510    3.7631   -2.5630 H   0  0  0  0  0  0  0  0  0  0  0  0
    0.6193    0.3094   -1.7416 H   0  0  0  0  0  0  0  0  0  0  0  0
   -0.5783    0.8951   -3.3967 H   0  0  0  0  0  0  0  0  0  0  0  0
   -1.1121   -2.1556   -1.5366 H   0  0  0  0  0  0  0  0  0  0  0  0
   -0.5855   -2.5799   -3.6202 H   0  0  0  0  0  0  0  0  0  0  0  0
  1  2  1  0
  1  3  1  0
  3  4  1  0
  4  5  1  0
  5  6  1  0
  6  7  1  0
  7  8  1  0
  8  9  1  0
  7 10  1  0
 10 11  1  0
 11 12  1  0
 11 13  1  0
 13 14  1  0
 13 15  1  0
 15 16  1  0
  4 17  1  0
 17 18  1  0
 17 19  1  0
 19 20  1  0
 19 21  1  0
 21 22  1  0
 22 23  1  0
 23 24  1  0
 24 25  2  0
 25 26  1  0
 26 27  1  0
 25 28  1  0
 28 29  1  0
 29 30  1  0
 30 31  1  0
 31 32  1  0
 32 33  1  0
 33 34  1  0
 32 35  1  0
 35 36  1  0
 36 37  1  0
 37 38  1  0
 38 39  1  0
 39 40  1  0
 40 41  1  0
 39 42  1  0
 42 43  1  0
 42 44  1  0
 44 45  1  0
 44 46  1  0
 46 47  1  0
 35 48  1  0
 48 49  1  0
 48 50  1  0
 50 51  1  0
 28 52  1  0
 52 53  1  0
 52 54  1  0
 54 55  1  0
 21  1  1  0
 54 23  1  0
 15  6  1  0
 50 30  1  0
 46 37  1  0
  1 56  1  6
  2 57  1  0
  2 58  1  0
  2 59  1  0
  4 60  1  1
  6 61  1  1
  7 62  1  6
  8 63  1  0
  8 64  1  0
  9 65  1  0
 11 66  1  6
 12 67  1  0
 13 68  1  1
 14 69  1  0
 15 70  1  6
 16 71  1  0
 17 72  1  1
 18 73  1  0
 19 74  1  6
 20 75  1  0
 21 76  1  1
 22 77  1  0
 23 78  1  1
 24 79  1  0
 26 80  1  0
 26 81  1  0
 27 82  1  0
 28 83  1  1
 30 84  1  1
 32 85  1  1
 33 86  1  0
 33 87  1  0
 34 88  1  0
 35 89  1  1
 37 90  1  1
 39 91  1  1
 40 92  1  0
 40 93  1  0
 41 94  1  0
 42 95  1  1
 43 96  1  0
 44 97  1  6
 45 98  1  0
 46 99  1  6
 47100  1  0
 48101  1  6
 49102  1  0
 50103  1  6
 51104  1  0
 52105  1  1
 53106  1  0
 54107  1  1
 55108  1  0
M  END
$$$$
