
     RDKit          3D

 56 58  0  0  0  0  0  0  0  0999 V2000
   -0.6992   -2.0444   -2.0697 C   0  0  0  0  0  0  0  0  0  0  0  0
   -1.2482   -1.1651   -1.0101 C   0  0  2  0  0  0  0  0  0  0  0  0
   -2.3605   -0.2923   -1.5493 C   0  0  0  0  0  0  0  0  0  0  0  0
   -2.9710    0.3883   -0.4382 N   0  0  0  0  0  0  0  0  0  0  0  0
   -4.3625    0.5293   -0.3175 C   0  0  0  0  0  0  0  0  0  0  0  0
   -4.9412    1.7668   -0.6905 C   0  0  0  0  0  0  0  0  0  0  0  0
   -6.2963    1.9464   -0.5913 C   0  0  0  0  0  0  0  0  0  0  0  0
   -7.1428    0.9556   -0.1346 C   0  0  0  0  0  0  0  0  0  0  0  0
   -8.4782    1.1752   -0.0522 F   0  0  0  0  0  0  0  0  0  0  0  0
   -6.5745   -0.2379    0.2240 C   0  0  0  0  0  0  0  0  0  0  0  0
   -5.1813   -0.4567    0.1342 C   0  0  0  0  0  0  0  0  0  0  0  0
   -4.6853   -1.7729    0.5437 C   0  0  0  0  0  0  0  0  0  0  0  0
   -3.7215   -1.5842    1.5315 F   0  0  0  0  0  0  0  0  0  0  0  0
   -5.7256   -2.4279    1.2469 F   0  0  0  0  0  0  0  0  0  0  0  0
   -4.1889   -2.5802   -0.4133 F   0  0  0  0  0  0  0  0  0  0  0  0
   -2.1259    0.9636    0.5741 C   0  0  0  0  0  0  0  0  0  0  0  0
   -0.7905    0.3685    0.7626 C   0  0  0  0  0  0  0  0  0  0  0  0
   -0.2520   -0.3799   -0.3229 N   0  0  0  0  0  0  0  0  0  0  0  0
    0.8057    0.4667   -1.3400 S   0  0  0  0  0  6  0  0  0  0  0  0
    1.2499   -0.4484   -2.4465 O   0  0  0  0  0  0  0  0  0  0  0  0
    0.1661    1.7126   -1.9316 O   0  0  0  0  0  0  0  0  0  0  0  0
    2.1923    1.0050   -0.4285 C   0  0  0  0  0  0  0  0  0  0  0  0
    2.1721    2.2277    0.1823 C   0  0  0  0  0  0  0  0  0  0  0  0
    3.2720    2.6357    0.8958 C   0  0  0  0  0  0  0  0  0  0  0  0
    4.3890    1.8408    1.0072 C   0  0  0  0  0  0  0  0  0  0  0  0
    4.4180    0.6037    0.3932 C   0  0  0  0  0  0  0  0  0  0  0  0
    5.6151   -0.2408    0.5103 C   0  0  1  0  0  0  0  0  0  0  0  0
    6.4040    0.2895    1.5556 O   0  0  0  0  0  0  0  0  0  0  0  0
    5.3452   -1.6514    0.8351 C   0  0  0  0  0  0  0  0  0  0  0  0
    4.6142   -2.5502    0.0144 N   0  0  0  0  0  0  0  0  0  0  0  0
    5.7818   -2.1262    1.9124 O   0  0  0  0  0  0  0  0  0  0  0  0
    6.5023   -0.1196   -0.7296 C   0  0  0  0  0  0  0  0  0  0  0  0
    7.6165   -0.9040   -0.6240 F   0  0  0  0  0  0  0  0  0  0  0  0
    6.9110    1.1753   -0.9150 F   0  0  0  0  0  0  0  0  0  0  0  0
    5.7578   -0.5187   -1.8327 F   0  0  0  0  0  0  0  0  0  0  0  0
    3.3129    0.2181   -0.3116 C   0  0  0  0  0  0  0  0  0  0  0  0
   -0.6712   -1.6129   -3.0811 H   0  0  0  0  0  0  0  0  0  0  0  0
   -1.3868   -2.9375   -2.1531 H   0  0  0  0  0  0  0  0  0  0  0  0
    0.2865   -2.4772   -1.8091 H   0  0  0  0  0  0  0  0  0  0  0  0
   -1.6918   -1.8099   -0.2260 H   0  0  0  0  0  0  0  0  0  0  0  0
   -3.0947   -0.9283   -2.0484 H   0  0  0  0  0  0  0  0  0  0  0  0
   -1.9345    0.4590   -2.2849 H   0  0  0  0  0  0  0  0  0  0  0  0
   -4.2612    2.5309   -1.0460 H   0  0  0  0  0  0  0  0  0  0  0  0
   -6.7376    2.8882   -0.8751 H   0  0  0  0  0  0  0  0  0  0  0  0
   -7.2323   -1.0264    0.5851 H   0  0  0  0  0  0  0  0  0  0  0  0
   -2.0899    2.0791    0.3828 H   0  0  0  0  0  0  0  0  0  0  0  0
   -2.7021    0.9081    1.5447 H   0  0  0  0  0  0  0  0  0  0  0  0
   -0.8285   -0.3290    1.6509 H   0  0  0  0  0  0  0  0  0  0  0  0
   -0.0796    1.1670    1.0696 H   0  0  0  0  0  0  0  0  0  0  0  0
    1.2929    2.8848    0.1104 H   0  0  0  0  0  0  0  0  0  0  0  0
    3.2822    3.5928    1.3859 H   0  0  0  0  0  0  0  0  0  0  0  0
    5.2669    2.1376    1.5620 H   0  0  0  0  0  0  0  0  0  0  0  0
    5.8173    0.2668    2.3634 H   0  0  0  0  0  0  0  0  0  0  0  0
    4.7733   -2.6789   -1.0079 H   0  0  0  0  0  0  0  0  0  0  0  0
    3.8682   -3.1186    0.4690 H   0  0  0  0  0  0  0  0  0  0  0  0
    3.3422   -0.7640   -0.8005 H   0  0  0  0  0  0  0  0  0  0  0  0
  1  2  1  0
  2  3  1  0
  3  4  1  0
  4  5  1  0
  5  6  2  0
  6  7  1  0
  7  8  2  0
  8  9  1  0
  8 10  1  0
 10 11  2  0
 11 12  1  0
 12 13  1  0
 12 14  1  0
 12 15  1  0
  4 16  1  0
 16 17  1  0
 17 18  1  0
 18 19  1  0
 19 20  2  0
 19 21  2  0
 19 22  1  0
 22 23  2  0
 23 24  1  0
 24 25  2  0
 25 26  1  0
 26 27  1  0
 27 28  1  1
 27 29  1  0
 29 30  1  0
 29 31  2  0
 27 32  1  0
 32 33  1  0
 32 34  1  0
 32 35  1  0
 26 36  2  0
 18  2  1  0
 36 22  1  0
 11  5  1  0
  1 37  1  0
  1 38  1  0
  1 39  1  0
  2 40  1  1
  3 41  1  0
  3 42  1  0
  6 43  1  0
  7 44  1  0
 10 45  1  0
 16 46  1  0
 16 47  1  0
 17 48  1  0
 17 49  1  0
 23 50  1  0
 24 51  1  0
 25 52  1  0
 28 53  1  0
 30 54  1  0
 30 55  1  0
 36 56  1  0
M  END
$$$$
