@<TRIPOS>MOLECULE
*****
 56 58 0 0 0
SMALL
GASTEIGER

@<TRIPOS>ATOM
      1 C          -0.6992   -2.0444   -2.0697 C.3     1  UNL1       -0.0464
      2 C          -1.2482   -1.1651   -1.0101 C.3     1  UNL1        0.0447
      3 C          -2.3605   -0.2923   -1.5493 C.3     1  UNL1        0.0292
      4 N          -2.9710    0.3883   -0.4382 N.pl3   1  UNL1       -0.3266
      5 C          -4.3625    0.5293   -0.3175 C.ar    1  UNL1        0.0417
      6 C          -4.9412    1.7668   -0.6905 C.ar    1  UNL1       -0.0374
      7 C          -6.2963    1.9464   -0.5913 C.ar    1  UNL1       -0.0247
      8 C          -7.1428    0.9556   -0.1346 C.ar    1  UNL1        0.1241
      9 F          -8.4782    1.1752   -0.0522 F       1  UNL1       -0.2055
     10 C          -6.5745   -0.2379    0.2240 C.ar    1  UNL1       -0.0130
     11 C          -5.1813   -0.4567    0.1342 C.ar    1  UNL1        0.0785
     12 C          -4.6853   -1.7729    0.5437 C.3     1  UNL1        0.4192
     13 F          -3.7215   -1.5842    1.5315 F       1  UNL1       -0.1658
     14 F          -5.7256   -2.4279    1.2469 F       1  UNL1       -0.1658
     15 F          -4.1889   -2.5802   -0.4133 F       1  UNL1       -0.1658
     16 C          -2.1259    0.9636    0.5741 C.3     1  UNL1        0.0267
     17 C          -0.7905    0.3685    0.7626 C.3     1  UNL1        0.0366
     18 N          -0.2520   -0.3799   -0.3229 N.3     1  UNL1       -0.1708
     19 S           0.8057    0.4667   -1.3400 S.O2    1  UNL1        0.0612
     20 O           1.2499   -0.4484   -2.4465 O.2     1  UNL1       -0.1528
     21 O           0.1661    1.7126   -1.9316 O.2     1  UNL1       -0.1528
     22 C           2.1923    1.0050   -0.4285 C.ar    1  UNL1        0.1059
     23 C           2.1721    2.2277    0.1823 C.ar    1  UNL1       -0.0353
     24 C           3.2720    2.6357    0.8958 C.ar    1  UNL1       -0.0595
     25 C           4.3890    1.8408    1.0072 C.ar    1  UNL1       -0.0550
     26 C           4.4180    0.6037    0.3932 C.ar    1  UNL1        0.0035
     27 C           5.6151   -0.2408    0.5103 C.3     1  UNL1        0.2621
     28 O           6.4040    0.2895    1.5556 O.3     1  UNL1       -0.3683
     29 C           5.3452   -1.6514    0.8351 C.2     1  UNL1        0.2559
     30 N           4.6142   -2.5502    0.0144 N.am    1  UNL1       -0.3264
     31 O           5.7818   -2.1262    1.9124 O.2     1  UNL1       -0.2722
     32 C           6.5023   -0.1196   -0.7296 C.3     1  UNL1        0.4311
     33 F           7.6165   -0.9040   -0.6240 F       1  UNL1       -0.1668
     34 F           6.9110    1.1753   -0.9150 F       1  UNL1       -0.1668
     35 F           5.7578   -0.5187   -1.8327 F       1  UNL1       -0.1668
     36 C           3.3129    0.2181   -0.3116 C.ar    1  UNL1       -0.0287
     37 H          -0.6712   -1.6129   -3.0811 H       1  UNL1        0.0246
     38 H          -1.3868   -2.9375   -2.1531 H       1  UNL1        0.0246
     39 H           0.2865   -2.4772   -1.8091 H       1  UNL1        0.0246
     40 H          -1.6918   -1.8099   -0.2260 H       1  UNL1        0.0493
     41 H          -3.0947   -0.9283   -2.0484 H       1  UNL1        0.0479
     42 H          -1.9345    0.4590   -2.2849 H       1  UNL1        0.0479
     43 H          -4.2612    2.5309   -1.0460 H       1  UNL1        0.0637
     44 H          -6.7376    2.8882   -0.8751 H       1  UNL1        0.0647
     45 H          -7.2323   -1.0264    0.5851 H       1  UNL1        0.0652
     46 H          -2.0899    2.0791    0.3828 H       1  UNL1        0.0477
     47 H          -2.7021    0.9081    1.5447 H       1  UNL1        0.0477
     48 H          -0.8285   -0.3290    1.6509 H       1  UNL1        0.0459
     49 H          -0.0796    1.1670    1.0696 H       1  UNL1        0.0459
     50 H           1.2929    2.8848    0.1104 H       1  UNL1        0.0637
     51 H           3.2822    3.5928    1.3859 H       1  UNL1        0.0618
     52 H           5.2669    2.1376    1.5620 H       1  UNL1        0.0621
     53 H           5.8173    0.2668    2.3634 H       1  UNL1        0.2115
     54 H           4.7733   -2.6789   -1.0079 H       1  UNL1        0.1450
     55 H           3.8682   -3.1186    0.4690 H       1  UNL1        0.1450
     56 H           3.3422   -0.7640   -0.8005 H       1  UNL1        0.0641
@<TRIPOS>BOND
     1     1     2    1
     2     2     3    1
     3     3     4    1
     4     4     5    1
     5     5     6   ar
     6     6     7   ar
     7     7     8   ar
     8     8     9    1
     9     8    10   ar
    10    10    11   ar
    11    11    12    1
    12    12    13    1
    13    12    14    1
    14    12    15    1
    15     4    16    1
    16    16    17    1
    17    17    18    1
    18    18    19    1
    19    19    20    2
    20    19    21    2
    21    19    22    1
    22    22    23   ar
    23    23    24   ar
    24    24    25   ar
    25    25    26   ar
    26    26    27    1
    27    27    28    1
    28    27    29    1
    29    29    30   am
    30    29    31    2
    31    27    32    1
    32    32    33    1
    33    32    34    1
    34    32    35    1
    35    26    36   ar
    36    18     2    1
    37    36    22   ar
    38    11     5   ar
    39     1    37    1
    40     1    38    1
    41     1    39    1
    42     2    40    1
    43     3    41    1
    44     3    42    1
    45     6    43    1
    46     7    44    1
    47    10    45    1
    48    16    46    1
    49    16    47    1
    50    17    48    1
    51    17    49    1
    52    23    50    1
    53    24    51    1
    54    25    52    1
    55    28    53    1
    56    30    54    1
    57    30    55    1
    58    36    56    1
