@<TRIPOS>MOLECULE
*****
 49 52 0 0 0
SMALL
GASTEIGER

@<TRIPOS>ATOM
      1 O          -3.3670   -2.1786   -0.7502 O.2     1  UNL1       -0.2702
      2 C          -2.6897   -1.0950   -0.6165 C.2     1  UNL1        0.2444
      3 N          -2.9744    0.0410   -1.4088 N.am    1  UNL1       -0.3072
      4 C          -4.0479   -0.0171   -2.3826 C.3     1  UNL1        0.0371
      5 C          -5.3931    0.1087   -1.8360 C.ar    1  UNL1       -0.0303
      6 C          -6.1979   -0.9522   -1.5012 C.ar    1  UNL1       -0.0571
      7 C          -7.4623   -0.7678   -0.9757 C.ar    1  UNL1       -0.0615
      8 C          -7.9715    0.4883   -0.7648 C.ar    1  UNL1       -0.0617
      9 C          -7.1994    1.5612   -1.0864 C.ar    1  UNL1       -0.0615
     10 C          -5.9414    1.3790   -1.6091 C.ar    1  UNL1       -0.0571
     11 C          -1.6147   -1.0282    0.3601 C.ar    1  UNL1        0.0384
     12 C          -1.3602   -2.1705    1.1214 C.ar    1  UNL1       -0.0495
     13 C          -0.3666   -2.1951    2.0638 C.ar    1  UNL1       -0.0593
     14 C           0.4166   -1.0865    2.2902 C.ar    1  UNL1       -0.0408
     15 C           0.1975    0.0608    1.5588 C.ar    1  UNL1        0.0282
     16 N           0.9756    1.2181    1.7275 N.pl3   1  UNL1       -0.3367
     17 C           2.1039    1.4275    2.5586 C.3     1  UNL1        0.0686
     18 C           3.2832    0.7241    2.0050 C.ar    1  UNL1        0.1427
     19 N           4.1236    1.1878    1.0286 N.ar    1  UNL1       -0.2099
     20 C           5.1023    0.3070    0.7855 C.ar    1  UNL1        0.1815
     21 C           6.1942    0.4595   -0.2006 C.ar    1  UNL1        0.0237
     22 C           7.0916   -0.5550   -0.3916 C.ar    1  UNL1       -0.0328
     23 C           8.0965   -0.3451   -1.3369 C.ar    1  UNL1        0.0282
     24 N           8.2058    0.7846   -2.0412 N.ar    1  UNL1       -0.2632
     25 C           7.3286    1.8074   -1.8713 C.ar    1  UNL1        0.0282
     26 C           6.3320    1.6111   -0.9403 C.ar    1  UNL1       -0.0328
     27 N           4.8948   -0.7303    1.6074 N.ar    1  UNL1       -0.1522
     28 N           3.7952   -0.4619    2.3349 N.ar    1  UNL1       -0.2609
     29 C          -0.8176    0.0538    0.6113 C.ar    1  UNL1       -0.0287
     30 H          -2.4283    0.9537   -1.3231 H       1  UNL1        0.1493
     31 H          -3.9173    0.8219   -3.1276 H       1  UNL1        0.0512
     32 H          -3.8877   -0.9541   -2.9573 H       1  UNL1        0.0512
     33 H          -5.8883   -1.9565   -1.6390 H       1  UNL1        0.0621
     34 H          -8.0888   -1.6224   -0.7148 H       1  UNL1        0.0618
     35 H          -8.9709    0.6535   -0.3494 H       1  UNL1        0.0618
     36 H          -7.6076    2.5512   -0.9176 H       1  UNL1        0.0618
     37 H          -5.3293    2.2195   -1.8641 H       1  UNL1        0.0621
     38 H          -1.9627   -3.0523    0.9605 H       1  UNL1        0.0625
     39 H          -0.1528   -3.0815    2.6699 H       1  UNL1        0.0618
     40 H           1.1798   -1.1456    3.0536 H       1  UNL1        0.0636
     41 H           0.6811    2.0723    1.1471 H       1  UNL1        0.1465
     42 H           1.9324    1.1581    3.6273 H       1  UNL1        0.0542
     43 H           2.3635    2.5113    2.5877 H       1  UNL1        0.0542
     44 H           7.0296   -1.4657    0.1544 H       1  UNL1        0.0640
     45 H           8.8112   -1.1421   -1.4952 H       1  UNL1        0.0830
     46 H           7.4164    2.7311   -2.4459 H       1  UNL1        0.0830
     47 H           5.6168    2.4020   -0.7784 H       1  UNL1        0.0640
     48 H           3.4711   -1.1568    3.0504 H       1  UNL1        0.1903
     49 H          -1.0058    0.9563    0.0218 H       1  UNL1        0.0643
@<TRIPOS>BOND
     1     1     2    2
     2     2     3   am
     3     3     4    1
     4     4     5    1
     5     5     6   ar
     6     6     7   ar
     7     7     8   ar
     8     8     9   ar
     9     9    10   ar
    10     2    11    1
    11    11    12   ar
    12    12    13   ar
    13    13    14   ar
    14    14    15   ar
    15    15    16    1
    16    16    17    1
    17    17    18    1
    18    18    19   ar
    19    19    20   ar
    20    20    21    1
    21    21    22   ar
    22    22    23   ar
    23    23    24   ar
    24    24    25   ar
    25    25    26   ar
    26    20    27   ar
    27    27    28   ar
    28    15    29   ar
    29    10     5   ar
    30    29    11   ar
    31    28    18   ar
    32    26    21   ar
    33     3    30    1
    34     4    31    1
    35     4    32    1
    36     6    33    1
    37     7    34    1
    38     8    35    1
    39     9    36    1
    40    10    37    1
    41    12    38    1
    42    13    39    1
    43    14    40    1
    44    16    41    1
    45    17    42    1
    46    17    43    1
    47    22    44    1
    48    23    45    1
    49    25    46    1
    50    26    47    1
    51    28    48    1
    52    29    49    1
