
     RDKit          3D

 49 52  0  0  0  0  0  0  0  0999 V2000
   -3.3670   -2.1786   -0.7502 O   0  0  0  0  0  0  0  0  0  0  0  0
   -2.6897   -1.0950   -0.6165 C   0  0  0  0  0  0  0  0  0  0  0  0
   -2.9744    0.0410   -1.4088 N   0  0  0  0  0  0  0  0  0  0  0  0
   -4.0479   -0.0171   -2.3826 C   0  0  0  0  0  0  0  0  0  0  0  0
   -5.3931    0.1087   -1.8360 C   0  0  0  0  0  0  0  0  0  0  0  0
   -6.1979   -0.9522   -1.5012 C   0  0  0  0  0  0  0  0  0  0  0  0
   -7.4623   -0.7678   -0.9757 C   0  0  0  0  0  0  0  0  0  0  0  0
   -7.9715    0.4883   -0.7648 C   0  0  0  0  0  0  0  0  0  0  0  0
   -7.1994    1.5612   -1.0864 C   0  0  0  0  0  0  0  0  0  0  0  0
   -5.9414    1.3790   -1.6091 C   0  0  0  0  0  0  0  0  0  0  0  0
   -1.6147   -1.0282    0.3601 C   0  0  0  0  0  0  0  0  0  0  0  0
   -1.3602   -2.1705    1.1214 C   0  0  0  0  0  0  0  0  0  0  0  0
   -0.3666   -2.1951    2.0638 C   0  0  0  0  0  0  0  0  0  0  0  0
    0.4166   -1.0865    2.2902 C   0  0  0  0  0  0  0  0  0  0  0  0
    0.1975    0.0608    1.5588 C   0  0  0  0  0  0  0  0  0  0  0  0
    0.9756    1.2181    1.7275 N   0  0  0  0  0  0  0  0  0  0  0  0
    2.1039    1.4275    2.5586 C   0  0  0  0  0  0  0  0  0  0  0  0
    3.2832    0.7241    2.0050 C   0  0  0  0  0  0  0  0  0  0  0  0
    4.1236    1.1878    1.0286 N   0  0  0  0  0  0  0  0  0  0  0  0
    5.1023    0.3070    0.7855 C   0  0  0  0  0  0  0  0  0  0  0  0
    6.1942    0.4595   -0.2006 C   0  0  0  0  0  0  0  0  0  0  0  0
    7.0916   -0.5550   -0.3916 C   0  0  0  0  0  0  0  0  0  0  0  0
    8.0965   -0.3451   -1.3369 C   0  0  0  0  0  0  0  0  0  0  0  0
    8.2058    0.7846   -2.0412 N   0  0  0  0  0  0  0  0  0  0  0  0
    7.3286    1.8074   -1.8713 C   0  0  0  0  0  0  0  0  0  0  0  0
    6.3320    1.6111   -0.9403 C   0  0  0  0  0  0  0  0  0  0  0  0
    4.8948   -0.7303    1.6074 N   0  0  0  0  0  0  0  0  0  0  0  0
    3.7952   -0.4619    2.3349 N   0  0  0  0  0  0  0  0  0  0  0  0
   -0.8176    0.0538    0.6113 C   0  0  0  0  0  0  0  0  0  0  0  0
   -2.4283    0.9537   -1.3231 H   0  0  0  0  0  0  0  0  0  0  0  0
   -3.9173    0.8219   -3.1276 H   0  0  0  0  0  0  0  0  0  0  0  0
   -3.8877   -0.9541   -2.9573 H   0  0  0  0  0  0  0  0  0  0  0  0
   -5.8883   -1.9565   -1.6390 H   0  0  0  0  0  0  0  0  0  0  0  0
   -8.0888   -1.6224   -0.7148 H   0  0  0  0  0  0  0  0  0  0  0  0
   -8.9709    0.6535   -0.3494 H   0  0  0  0  0  0  0  0  0  0  0  0
   -7.6076    2.5512   -0.9176 H   0  0  0  0  0  0  0  0  0  0  0  0
   -5.3293    2.2195   -1.8641 H   0  0  0  0  0  0  0  0  0  0  0  0
   -1.9627   -3.0523    0.9605 H   0  0  0  0  0  0  0  0  0  0  0  0
   -0.1528   -3.0815    2.6699 H   0  0  0  0  0  0  0  0  0  0  0  0
    1.1798   -1.1456    3.0536 H   0  0  0  0  0  0  0  0  0  0  0  0
    0.6811    2.0723    1.1471 H   0  0  0  0  0  0  0  0  0  0  0  0
    1.9324    1.1581    3.6273 H   0  0  0  0  0  0  0  0  0  0  0  0
    2.3635    2.5113    2.5877 H   0  0  0  0  0  0  0  0  0  0  0  0
    7.0296   -1.4657    0.1544 H   0  0  0  0  0  0  0  0  0  0  0  0
    8.8112   -1.1421   -1.4952 H   0  0  0  0  0  0  0  0  0  0  0  0
    7.4164    2.7311   -2.4459 H   0  0  0  0  0  0  0  0  0  0  0  0
    5.6168    2.4020   -0.7784 H   0  0  0  0  0  0  0  0  0  0  0  0
    3.4711   -1.1568    3.0504 H   0  0  0  0  0  0  0  0  0  0  0  0
   -1.0058    0.9563    0.0218 H   0  0  0  0  0  0  0  0  0  0  0  0
  1  2  2  0
  2  3  1  0
  3  4  1  0
  4  5  1  0
  5  6  2  0
  6  7  1  0
  7  8  2  0
  8  9  1  0
  9 10  2  0
  2 11  1  0
 11 12  2  0
 12 13  1  0
 13 14  2  0
 14 15  1  0
 15 16  1  0
 16 17  1  0
 17 18  1  0
 18 19  2  0
 19 20  1  0
 20 21  1  0
 21 22  2  0
 22 23  1  0
 23 24  2  0
 24 25  1  0
 25 26  2  0
 20 27  2  0
 27 28  1  0
 15 29  2  0
 10  5  1  0
 29 11  1  0
 28 18  1  0
 26 21  1  0
  3 30  1  0
  4 31  1  0
  4 32  1  0
  6 33  1  0
  7 34  1  0
  8 35  1  0
  9 36  1  0
 10 37  1  0
 12 38  1  0
 13 39  1  0
 14 40  1  0
 16 41  1  0
 17 42  1  0
 17 43  1  0
 22 44  1  0
 23 45  1  0
 25 46  1  0
 26 47  1  0
 28 48  1  0
 29 49  1  0
M  END
$$$$
