@<TRIPOS>MOLECULE
*****
 55 57 0 0 0
SMALL
GASTEIGER

@<TRIPOS>ATOM
      1 C          -0.0061   -2.3578    0.2420 C.3     1  UNL1        0.1023
      2 C           0.8823   -3.3973   -0.3555 C.3     1  UNL1       -0.0243
      3 C           0.8226   -3.2304   -1.8406 C.3     1  UNL1       -0.0350
      4 C           0.2107   -1.8488   -1.9985 C.3     1  UNL1        0.0156
      5 N          -0.6461   -1.6640   -0.8581 N.am    1  UNL1       -0.2880
      6 C          -1.8401   -0.9098   -0.9952 C.2     1  UNL1        0.2420
      7 O          -1.7111   -0.6280   -2.2168 O.2     1  UNL1       -0.2731
      8 C          -2.8769   -0.5872    0.0186 C.3     1  UNL1        0.1242
      9 O          -3.8273    0.1954   -0.6242 O.3     1  UNL1       -0.3674
     10 C          -4.8129    0.5098    0.2949 C.3     1  UNL1        0.0593
     11 C          -6.1990    0.1611   -0.1990 C.3     1  UNL1       -0.0266
     12 C          -7.1190    1.1142    0.5360 C.3     1  UNL1       -0.0506
     13 C          -6.2416    2.0932    1.2537 C.3     1  UNL1       -0.0506
     14 C          -4.9555    2.0323    0.4330 C.3     1  UNL1       -0.0266
     15 C           0.7504   -1.3262    1.0226 C.2     1  UNL1        0.2338
     16 O           1.3903   -1.6960    2.0445 O.2     1  UNL1       -0.2738
     17 N           0.7744    0.0345    0.6612 N.am    1  UNL1       -0.3097
     18 C           1.4420    1.1301    1.2935 C.3     1  UNL1        0.0369
     19 C           2.9017    1.0518    0.9547 C.ar    1  UNL1       -0.0303
     20 C           3.2929    1.6866   -0.2110 C.ar    1  UNL1       -0.0563
     21 C           4.5899    1.7229   -0.6766 C.ar    1  UNL1       -0.0466
     22 C           5.5275    1.0734    0.0972 C.ar    1  UNL1        0.0647
     23 C           5.1890    0.4254    1.2679 C.ar    1  UNL1       -0.0466
     24 C           3.8822    0.4060    1.7090 C.ar    1  UNL1       -0.0563
     25 C           6.9450    1.0039   -0.2360 C.2     1  UNL1        0.3081
     26 N           7.5315    1.9986   -1.0468 N.pl3   1  UNL1       -0.2466
     27 N           7.9053    0.1865    0.0352 N.2     1  UNL1       -0.0994
     28 H          -0.7508   -2.8432    0.9176 H       1  UNL1        0.0597
     29 H           0.5342   -4.4256   -0.0651 H       1  UNL1        0.0288
     30 H           1.9145   -3.2599    0.0434 H       1  UNL1        0.0288
     31 H           1.8374   -3.2443   -2.2676 H       1  UNL1        0.0281
     32 H           0.1907   -4.0180   -2.3032 H       1  UNL1        0.0281
     33 H          -0.2987   -1.8250   -2.9731 H       1  UNL1        0.0465
     34 H           1.0024   -1.0695   -2.0441 H       1  UNL1        0.0465
     35 H          -2.4651   -0.0980    0.9292 H       1  UNL1        0.0657
     36 H          -3.4287   -1.4956    0.3771 H       1  UNL1        0.0657
     37 H          -4.6398    0.0818    1.2857 H       1  UNL1        0.0596
     38 H          -6.2662    0.4040   -1.2874 H       1  UNL1        0.0290
     39 H          -6.5249   -0.8547    0.0343 H       1  UNL1        0.0290
     40 H          -7.7785    0.5842    1.2420 H       1  UNL1        0.0266
     41 H          -7.7403    1.7143   -0.1913 H       1  UNL1        0.0266
     42 H          -5.9982    1.6804    2.2414 H       1  UNL1        0.0266
     43 H          -6.6727    3.1088    1.3032 H       1  UNL1        0.0266
     44 H          -4.0985    2.4784    0.9528 H       1  UNL1        0.0290
     45 H          -5.1323    2.4109   -0.5741 H       1  UNL1        0.0290
     46 H           0.2151    0.2467   -0.1993 H       1  UNL1        0.1491
     47 H           1.0592    2.0909    0.9457 H       1  UNL1        0.0512
     48 H           1.2996    1.0482    2.4002 H       1  UNL1        0.0512
     49 H           2.5586    2.2028   -0.8292 H       1  UNL1        0.0621
     50 H           4.9026    2.2148   -1.5834 H       1  UNL1        0.0626
     51 H           5.8384   -0.1045    1.9368 H       1  UNL1        0.0626
     52 H           3.5332   -0.0756    2.6113 H       1  UNL1        0.0621
     53 H           7.1461    1.7686   -2.0002 H       1  UNL1        0.2884
     54 H           8.1883    2.7674   -0.7437 H       1  UNL1        0.2884
     55 H           7.7721   -0.6685    0.6225 H       1  UNL1        0.3633
@<TRIPOS>BOND
     1     1     2    1
     2     2     3    1
     3     3     4    1
     4     4     5    1
     5     5     6   am
     6     6     7    2
     7     6     8    1
     8     8     9    1
     9     9    10    1
    10    10    11    1
    11    11    12    1
    12    12    13    1
    13    13    14    1
    14     1    15    1
    15    15    16    2
    16    15    17   am
    17    17    18    1
    18    18    19    1
    19    19    20   ar
    20    20    21   ar
    21    21    22   ar
    22    22    23   ar
    23    23    24   ar
    24    22    25    1
    25    25    26    1
    26    25    27    2
    27     5     1    1
    28    14    10    1
    29    24    19   ar
    30     1    28    1
    31     2    29    1
    32     2    30    1
    33     3    31    1
    34     3    32    1
    35     4    33    1
    36     4    34    1
    37     8    35    1
    38     8    36    1
    39    10    37    1
    40    11    38    1
    41    11    39    1
    42    12    40    1
    43    12    41    1
    44    13    42    1
    45    13    43    1
    46    14    44    1
    47    14    45    1
    48    17    46    1
    49    18    47    1
    50    18    48    1
    51    20    49    1
    52    21    50    1
    53    23    51    1
    54    24    52    1
    55    26    53    1
    56    26    54    1
    57    27    55    1
