@<TRIPOS>MOLECULE
*****
 49 53 0 0 0
SMALL
GASTEIGER

@<TRIPOS>ATOM
      1 CL          3.0072   -1.7177    2.5351 Cl      1  UNL1       -0.0832
      2 C           3.9674   -0.6528    1.5139 C.ar    1  UNL1        0.0459
      3 C           3.4150    0.3485    0.7058 C.ar    1  UNL1       -0.0275
      4 C           1.9369    0.4331    0.7844 C.3     1  UNL1       -0.0135
      5 C           1.2569   -0.6656   -0.0127 C.3     1  UNL1        0.0030
      6 N          -0.1393   -0.5412    0.1184 N.3     1  UNL1       -0.2990
      7 C          -0.7424    0.5735   -0.4876 C.3     1  UNL1        0.0147
      8 C          -2.2507    0.6233   -0.3073 C.3     1  UNL1        0.0263
      9 N          -2.8722   -0.6643   -0.6065 N.pl3   1  UNL1       -0.3117
     10 C          -2.1387   -1.9081   -0.3919 C.3     1  UNL1        0.0263
     11 C          -0.9144   -1.6731    0.4273 C.3     1  UNL1        0.0147
     12 C          -4.1880   -0.5641   -1.0980 C.ar    1  UNL1        0.1382
     13 N          -4.0971   -1.0962   -2.3995 N.ar    1  UNL1       -0.1944
     14 S          -5.8658   -0.9192   -2.9808 S.2     1  UNL1        0.0138
     15 C          -6.4474   -0.1767   -1.4306 C.ar    1  UNL1        0.0412
     16 C          -7.7194    0.2462   -1.1002 C.ar    1  UNL1       -0.0459
     17 C          -7.9153    0.7839    0.1532 C.ar    1  UNL1       -0.0606
     18 C          -6.7921    0.8393    0.9525 C.ar    1  UNL1       -0.0610
     19 C          -5.5110    0.4276    0.6540 C.ar    1  UNL1       -0.0502
     20 C          -5.3832   -0.0976   -0.6076 C.ar    1  UNL1        0.0306
     21 C           4.2920    1.1059   -0.0404 C.ar    1  UNL1       -0.0517
     22 C           5.6547    0.9037   -0.0070 C.ar    1  UNL1       -0.0171
     23 C           6.7189    1.6352   -0.7551 C.3     1  UNL1        0.0512
     24 C           7.9479    0.9223   -0.2535 C.2     1  UNL1        0.2216
     25 O           9.1041    1.2780   -0.6683 O.2     1  UNL1       -0.2751
     26 N           7.6184   -0.1098    0.6697 N.am    1  UNL1       -0.2849
     27 C           6.1802   -0.0871    0.7953 C.ar    1  UNL1        0.0384
     28 C           5.3358   -0.8772    1.5656 C.ar    1  UNL1       -0.0216
     29 H           1.5975    1.4224    0.4285 H       1  UNL1        0.0326
     30 H           1.6159    0.3668    1.8648 H       1  UNL1        0.0326
     31 H           1.6549   -1.6605    0.2325 H       1  UNL1        0.0430
     32 H           1.5888   -0.4860   -1.0818 H       1  UNL1        0.0430
     33 H          -0.5023    0.6904   -1.5749 H       1  UNL1        0.0442
     34 H          -0.3757    1.5167    0.0151 H       1  UNL1        0.0442
     35 H          -2.6176    1.4329   -0.9698 H       1  UNL1        0.0477
     36 H          -2.4012    0.8357    0.7769 H       1  UNL1        0.0477
     37 H          -2.8333   -2.5643    0.2118 H       1  UNL1        0.0477
     38 H          -1.8965   -2.4104   -1.3431 H       1  UNL1        0.0477
     39 H          -1.2552   -1.5977    1.5017 H       1  UNL1        0.0442
     40 H          -0.2643   -2.5806    0.3895 H       1  UNL1        0.0442
     41 H          -8.5193    0.1579   -1.7941 H       1  UNL1        0.0629
     42 H          -8.8700    1.1371    0.4909 H       1  UNL1        0.0618
     43 H          -6.9706    1.2737    1.9516 H       1  UNL1        0.0618
     44 H          -4.7420    0.5382    1.3845 H       1  UNL1        0.0625
     45 H           3.8066    1.8558   -0.6383 H       1  UNL1        0.0624
     46 H           6.6642    1.3610   -1.8371 H       1  UNL1        0.0408
     47 H           6.7465    2.7071   -0.5688 H       1  UNL1        0.0408
     48 H           8.3212   -0.7231    1.1300 H       1  UNL1        0.1548
     49 H           5.7942   -1.6430    2.1814 H       1  UNL1        0.0651
@<TRIPOS>BOND
     1     1     2    1
     2     2     3   ar
     3     3     4    1
     4     4     5    1
     5     5     6    1
     6     6     7    1
     7     7     8    1
     8     8     9    1
     9     9    10    1
    10    10    11    1
    11     9    12    1
    12    12    13   ar
    13    13    14   ar
    14    14    15   ar
    15    15    16   ar
    16    16    17   ar
    17    17    18   ar
    18    18    19   ar
    19    19    20   ar
    20     3    21   ar
    21    21    22   ar
    22    22    23    1
    23    23    24    1
    24    24    25    2
    25    24    26   am
    26    26    27    1
    27    27    28   ar
    28    28     2   ar
    29    11     6    1
    30    20    12   ar
    31    27    22   ar
    32    20    15   ar
    33     4    29    1
    34     4    30    1
    35     5    31    1
    36     5    32    1
    37     7    33    1
    38     7    34    1
    39     8    35    1
    40     8    36    1
    41    10    37    1
    42    10    38    1
    43    11    39    1
    44    11    40    1
    45    16    41    1
    46    17    42    1
    47    18    43    1
    48    19    44    1
    49    21    45    1
    50    23    46    1
    51    23    47    1
    52    26    48    1
    53    28    49    1
