@<TRIPOS>MOLECULE
*****
 43 47 0 0 0
SMALL
GASTEIGER

@<TRIPOS>ATOM
      1 N          -2.9453    1.1886    4.4696 N.1     1  UNL1       -0.1893
      2 C          -3.1024    0.4812    3.5918 C.1     1  UNL1        0.1192
      3 C          -3.2899   -0.4099    2.4696 C.ar    1  UNL1        0.1438
      4 C          -4.3494   -1.2241    2.1961 C.ar    1  UNL1        0.0643
      5 N          -4.0922   -1.8723    1.0566 N.ar    1  UNL1       -0.2348
      6 C          -2.8724   -1.4835    0.5898 C.ar    1  UNL1        0.1385
      7 C          -2.1266   -1.8242   -0.5178 C.ar    1  UNL1       -0.0181
      8 C          -0.8880   -1.2779   -0.7747 C.ar    1  UNL1       -0.0477
      9 C          -0.3977   -0.3550    0.1292 C.ar    1  UNL1        0.0173
     10 C           0.9051    0.2436   -0.0986 C.ar    1  UNL1        0.0778
     11 C           1.1771    1.5041   -0.5951 C.ar    1  UNL1        0.0968
     12 C           0.1566    2.4832   -0.9988 C.ar    1  UNL1        0.0040
     13 C          -0.6560    2.1292   -2.0528 C.ar    1  UNL1       -0.0497
     14 C          -1.6378    3.0032   -2.4851 C.ar    1  UNL1       -0.0244
     15 C          -1.8073    4.2287   -1.8651 C.ar    1  UNL1        0.1417
     16 F          -2.7693    5.0847   -2.2885 F       1  UNL1       -0.2040
     17 C          -0.9974    4.5924   -0.8076 C.ar    1  UNL1        0.0767
     18 CL         -1.2211    6.1359   -0.0386 Cl      1  UNL1       -0.0806
     19 C          -0.0088    3.7023   -0.3789 C.ar    1  UNL1       -0.0313
     20 N           2.5080    1.6340   -0.6300 N.ar    1  UNL1       -0.2351
     21 C           3.0733    0.5036   -0.1748 C.ar    1  UNL1        0.0971
     22 N           2.0852   -0.3495    0.1512 N.ar    1  UNL1       -0.3293
     23 C           2.3467   -1.6744    0.6826 C.3     1  UNL1        0.0275
     24 C           2.4694   -2.7306   -0.3709 C.3     1  UNL1       -0.0230
     25 C           3.4736   -2.6990   -1.4279 C.3     1  UNL1       -0.0483
     26 C           3.6679   -3.6830   -0.3252 C.3     1  UNL1       -0.0483
     27 C          -1.1768   -0.0514    1.2120 C.ar    1  UNL1        0.0216
     28 N          -2.3882   -0.5907    1.4565 N.ar    1  UNL1       -0.2906
     29 H          -5.2282   -1.2919    2.8354 H       1  UNL1        0.0859
     30 H          -2.5203   -2.5486   -1.2197 H       1  UNL1        0.0654
     31 H          -0.3203   -1.5748   -1.6701 H       1  UNL1        0.0626
     32 H          -0.5311    1.1781   -2.5412 H       1  UNL1        0.0625
     33 H          -2.2680    2.7200   -3.3078 H       1  UNL1        0.0647
     34 H           0.6269    3.9732    0.4424 H       1  UNL1        0.0640
     35 H           4.1629    0.3585   -0.1041 H       1  UNL1        0.1029
     36 H           3.3321   -1.6761    1.2384 H       1  UNL1        0.0495
     37 H           1.6004   -1.9638    1.4527 H       1  UNL1        0.0495
     38 H           1.4967   -3.2389   -0.6091 H       1  UNL1        0.0318
     39 H           4.2412   -1.9120   -1.5342 H       1  UNL1        0.0269
     40 H           3.2087   -3.1615   -2.4128 H       1  UNL1        0.0269
     41 H           3.4603   -4.7606   -0.4755 H       1  UNL1        0.0269
     42 H           4.4360   -3.4550    0.4253 H       1  UNL1        0.0269
     43 H          -0.8332    0.6646    1.9437 H       1  UNL1        0.0820
@<TRIPOS>BOND
     1     1     2    3
     2     2     3    1
     3     3     4   ar
     4     4     5   ar
     5     5     6   ar
     6     6     7   ar
     7     7     8   ar
     8     8     9   ar
     9     9    10    1
    10    10    11   ar
    11    11    12    1
    12    12    13   ar
    13    13    14   ar
    14    14    15   ar
    15    15    16    1
    16    15    17   ar
    17    17    18    1
    18    17    19   ar
    19    11    20   ar
    20    20    21   ar
    21    21    22   ar
    22    22    23    1
    23    23    24    1
    24    24    25    1
    25    25    26    1
    26     9    27   ar
    27    27    28   ar
    28    28     3   ar
    29    28     6   ar
    30    22    10   ar
    31    26    24    1
    32    19    12   ar
    33     4    29    1
    34     7    30    1
    35     8    31    1
    36    13    32    1
    37    14    33    1
    38    19    34    1
    39    21    35    1
    40    23    36    1
    41    23    37    1
    42    24    38    1
    43    25    39    1
    44    25    40    1
    45    26    41    1
    46    26    42    1
    47    27    43    1
