
     RDKit          3D

 43 47  0  0  0  0  0  0  0  0999 V2000
   -2.9453    1.1886    4.4696 N   0  0  0  0  0  0  0  0  0  0  0  0
   -3.1024    0.4812    3.5918 C   0  0  0  0  0  0  0  0  0  0  0  0
   -3.2899   -0.4099    2.4696 C   0  0  0  0  0  0  0  0  0  0  0  0
   -4.3494   -1.2241    2.1961 C   0  0  0  0  0  0  0  0  0  0  0  0
   -4.0922   -1.8723    1.0566 N   0  0  0  0  0  0  0  0  0  0  0  0
   -2.8724   -1.4835    0.5898 C   0  0  0  0  0  0  0  0  0  0  0  0
   -2.1266   -1.8242   -0.5178 C   0  0  0  0  0  0  0  0  0  0  0  0
   -0.8880   -1.2779   -0.7747 C   0  0  0  0  0  0  0  0  0  0  0  0
   -0.3977   -0.3550    0.1292 C   0  0  0  0  0  0  0  0  0  0  0  0
    0.9051    0.2436   -0.0986 C   0  0  0  0  0  0  0  0  0  0  0  0
    1.1771    1.5041   -0.5951 C   0  0  0  0  0  0  0  0  0  0  0  0
    0.1566    2.4832   -0.9988 C   0  0  0  0  0  0  0  0  0  0  0  0
   -0.6560    2.1292   -2.0528 C   0  0  0  0  0  0  0  0  0  0  0  0
   -1.6378    3.0032   -2.4851 C   0  0  0  0  0  0  0  0  0  0  0  0
   -1.8073    4.2287   -1.8651 C   0  0  0  0  0  0  0  0  0  0  0  0
   -2.7693    5.0847   -2.2885 F   0  0  0  0  0  0  0  0  0  0  0  0
   -0.9974    4.5924   -0.8076 C   0  0  0  0  0  0  0  0  0  0  0  0
   -1.2211    6.1359   -0.0386 Cl  0  0  0  0  0  0  0  0  0  0  0  0
   -0.0088    3.7023   -0.3789 C   0  0  0  0  0  0  0  0  0  0  0  0
    2.5080    1.6340   -0.6300 N   0  0  0  0  0  0  0  0  0  0  0  0
    3.0733    0.5036   -0.1748 C   0  0  0  0  0  0  0  0  0  0  0  0
    2.0852   -0.3495    0.1512 N   0  0  0  0  0  0  0  0  0  0  0  0
    2.3467   -1.6744    0.6826 C   0  0  0  0  0  0  0  0  0  0  0  0
    2.4694   -2.7306   -0.3709 C   0  0  0  0  0  0  0  0  0  0  0  0
    3.4736   -2.6990   -1.4279 C   0  0  0  0  0  0  0  0  0  0  0  0
    3.6679   -3.6830   -0.3252 C   0  0  0  0  0  0  0  0  0  0  0  0
   -1.1768   -0.0514    1.2120 C   0  0  0  0  0  0  0  0  0  0  0  0
   -2.3882   -0.5907    1.4565 N   0  0  0  0  0  0  0  0  0  0  0  0
   -5.2282   -1.2919    2.8354 H   0  0  0  0  0  0  0  0  0  0  0  0
   -2.5203   -2.5486   -1.2197 H   0  0  0  0  0  0  0  0  0  0  0  0
   -0.3203   -1.5748   -1.6701 H   0  0  0  0  0  0  0  0  0  0  0  0
   -0.5311    1.1781   -2.5412 H   0  0  0  0  0  0  0  0  0  0  0  0
   -2.2680    2.7200   -3.3078 H   0  0  0  0  0  0  0  0  0  0  0  0
    0.6269    3.9732    0.4424 H   0  0  0  0  0  0  0  0  0  0  0  0
    4.1629    0.3585   -0.1041 H   0  0  0  0  0  0  0  0  0  0  0  0
    3.3321   -1.6761    1.2384 H   0  0  0  0  0  0  0  0  0  0  0  0
    1.6004   -1.9638    1.4527 H   0  0  0  0  0  0  0  0  0  0  0  0
    1.4967   -3.2389   -0.6091 H   0  0  0  0  0  0  0  0  0  0  0  0
    4.2412   -1.9120   -1.5342 H   0  0  0  0  0  0  0  0  0  0  0  0
    3.2087   -3.1615   -2.4128 H   0  0  0  0  0  0  0  0  0  0  0  0
    3.4603   -4.7606   -0.4755 H   0  0  0  0  0  0  0  0  0  0  0  0
    4.4360   -3.4550    0.4253 H   0  0  0  0  0  0  0  0  0  0  0  0
   -0.8332    0.6646    1.9437 H   0  0  0  0  0  0  0  0  0  0  0  0
  1  2  3  0
  2  3  1  0
  3  4  2  0
  4  5  1  0
  5  6  2  0
  6  7  1  0
  7  8  2  0
  8  9  1  0
  9 10  1  0
 10 11  2  0
 11 12  1  0
 12 13  2  0
 13 14  1  0
 14 15  2  0
 15 16  1  0
 15 17  1  0
 17 18  1  0
 17 19  2  0
 11 20  1  0
 20 21  2  0
 21 22  1  0
 22 23  1  0
 23 24  1  0
 24 25  1  0
 25 26  1  0
  9 27  2  0
 27 28  1  0
 28  3  1  0
 28  6  1  0
 22 10  1  0
 26 24  1  0
 19 12  1  0
  4 29  1  0
  7 30  1  0
  8 31  1  0
 13 32  1  0
 14 33  1  0
 19 34  1  0
 21 35  1  0
 23 36  1  0
 23 37  1  0
 24 38  1  0
 25 39  1  0
 25 40  1  0
 26 41  1  0
 26 42  1  0
 27 43  1  0
M  END
$$$$
