
     RDKit          3D

 91 96  0  0  0  0  0  0  0  0999 V2000
   -1.0314   -0.1965   -0.0959 C   0  0  2  0  0  0  0  0  0  0  0  0
   -2.2586   -0.7665   -0.6937 C   0  0  0  0  0  0  0  0  0  0  0  0
   -3.2264   -0.5016    0.4648 C   0  0  1  0  0  0  0  0  0  0  0  0
   -2.7660    0.7138    1.1556 C   0  0  2  0  0  0  0  0  0  0  0  0
   -3.6387    1.7884    1.2446 O   0  0  0  0  0  0  0  0  0  0  0  0
   -4.0116    2.4654    2.3918 C   0  0  0  0  0  0  0  0  0  0  0  0
   -4.9807    3.5916    2.1494 C   0  0  0  0  0  0  0  0  0  0  0  0
   -3.5135    2.0755    3.4788 O   0  0  0  0  0  0  0  0  0  0  0  0
   -1.5392    1.1557    0.4189 C   0  0  2  0  0  0  0  0  0  0  0  0
   -1.8260    2.1208   -0.6899 C   0  0  0  0  0  0  0  0  0  0  0  0
   -0.4499    1.6605    1.3269 C   0  0  0  0  0  0  0  0  0  0  0  0
    0.8823    1.7160    0.6763 C   0  0  0  0  0  0  0  0  0  0  0  0
    1.2368    0.4634   -0.0898 C   0  0  1  0  0  0  0  0  0  0  0  0
    0.0886    0.1388   -1.0196 C   0  0  1  0  0  0  0  0  0  0  0  0
    0.3851   -0.8872   -2.0525 C   0  0  0  0  0  0  0  0  0  0  0  0
    1.6669   -0.4765   -2.7757 C   0  0  0  0  0  0  0  0  0  0  0  0
    2.7341   -0.5937   -1.7214 C   0  0  1  0  0  0  0  0  0  0  0  0
    4.1308   -0.6841   -2.2419 C   0  0  0  0  0  0  0  0  0  0  0  0
    4.9680   -1.2096   -1.0663 C   0  0  2  0  0  0  0  0  0  0  0  0
    4.7695   -2.6093   -1.0999 O   0  0  0  0  0  0  0  0  0  0  0  0
    4.4662   -0.7093    0.2480 C   0  0  2  0  0  0  0  0  0  0  0  0
    3.6831    0.5627    0.1944 C   0  0  0  0  0  0  0  0  0  0  0  0
    2.5450    0.5783   -0.7717 C   0  0  2  0  0  0  0  0  0  0  0  0
    2.5413    1.8300   -1.6235 C   0  0  0  0  0  0  0  0  0  0  0  0
    5.5347   -0.5197    1.2001 N   0  0  0  0  0  0  0  0  0  0  0  0
    6.2798   -1.6666    1.5221 C   0  0  0  0  0  0  0  0  0  0  0  0
    7.7085   -1.4599    1.8982 C   0  0  0  0  0  0  0  0  0  0  0  0
    7.7637   -0.2219    2.5787 O   0  0  0  0  0  0  0  0  0  0  0  0
    7.6316    0.7259    1.5660 C   0  0  0  0  0  0  0  0  0  0  0  0
    6.2468    0.7033    1.0294 C   0  0  0  0  0  0  0  0  0  0  0  0
   -4.5569   -0.5946    0.0104 N   0  0  0  0  0  4  0  0  0  0  0  0
   -4.6445   -1.8783   -0.7149 C   0  0  0  0  0  0  0  0  0  0  0  0
   -4.5525   -3.0433    0.1862 C   0  0  0  0  0  0  0  0  0  0  0  0
   -5.4904   -3.9977    0.3454 C   0  0  0  0  0  0  0  0  0  0  0  0
   -5.5326   -0.7066    1.0508 C   0  0  0  0  0  0  0  0  0  0  0  0
   -6.8396   -0.6033    0.2673 C   0  0  0  0  0  0  0  0  0  0  0  0
   -6.4901    0.1313   -0.9859 C   0  0  0  0  0  0  0  0  0  0  0  0
   -4.9872    0.3662   -0.9435 C   0  0  0  0  0  0  0  0  0  0  0  0
   -0.7467   -0.7831    0.7823 H   0  0  0  0  0  0  0  0  0  0  0  0
   -2.5996   -0.3095   -1.6263 H   0  0  0  0  0  0  0  0  0  0  0  0
   -2.0887   -1.8667   -0.8290 H   0  0  0  0  0  0  0  0  0  0  0  0
   -3.0586   -1.3807    1.1475 H   0  0  0  0  0  0  0  0  0  0  0  0
   -2.4229    0.5051    2.2116 H   0  0  0  0  0  0  0  0  0  0  0  0
   -5.3122    4.0634    3.0780 H   0  0  0  0  0  0  0  0  0  0  0  0
   -4.5616    4.3475    1.4500 H   0  0  0  0  0  0  0  0  0  0  0  0
   -5.9156    3.2245    1.6473 H   0  0  0  0  0  0  0  0  0  0  0  0
   -0.9682    2.8306   -0.8449 H   0  0  0  0  0  0  0  0  0  0  0  0
   -2.1033    1.6696   -1.6498 H   0  0  0  0  0  0  0  0  0  0  0  0
   -2.6824    2.8011   -0.4331 H   0  0  0  0  0  0  0  0  0  0  0  0
   -0.5043    1.0587    2.2552 H   0  0  0  0  0  0  0  0  0  0  0  0
   -0.7190    2.7069    1.6349 H   0  0  0  0  0  0  0  0  0  0  0  0
    1.6372    1.8370    1.4833 H   0  0  0  0  0  0  0  0  0  0  0  0
    0.9553    2.6356    0.0691 H   0  0  0  0  0  0  0  0  0  0  0  0
    1.2728   -0.3634    0.6478 H   0  0  0  0  0  0  0  0  0  0  0  0
   -0.1500    1.0878   -1.5692 H   0  0  0  0  0  0  0  0  0  0  0  0
   -0.4573   -0.9296   -2.7409 H   0  0  0  0  0  0  0  0  0  0  0  0
    0.6152   -1.8646   -1.5602 H   0  0  0  0  0  0  0  0  0  0  0  0
    1.5321    0.5382   -3.1809 H   0  0  0  0  0  0  0  0  0  0  0  0
    1.8325   -1.2175   -3.5657 H   0  0  0  0  0  0  0  0  0  0  0  0
    2.5413   -1.5721   -1.1952 H   0  0  0  0  0  0  0  0  0  0  0  0
    4.6015    0.2583   -2.5312 H   0  0  0  0  0  0  0  0  0  0  0  0
    4.1511   -1.3769   -3.1006 H   0  0  0  0  0  0  0  0  0  0  0  0
    6.0343   -1.0669   -1.2420 H   0  0  0  0  0  0  0  0  0  0  0  0
    4.7565   -2.9684   -2.0166 H   0  0  0  0  0  0  0  0  0  0  0  0
    3.7927   -1.4763    0.7328 H   0  0  0  0  0  0  0  0  0  0  0  0
    3.3613    0.7720    1.2459 H   0  0  0  0  0  0  0  0  0  0  0  0
    4.3415    1.4443   -0.0543 H   0  0  0  0  0  0  0  0  0  0  0  0
    3.0726    1.7308   -2.5767 H   0  0  0  0  0  0  0  0  0  0  0  0
    3.0909    2.6484   -1.0733 H   0  0  0  0  0  0  0  0  0  0  0  0
    1.5269    2.2152   -1.8426 H   0  0  0  0  0  0  0  0  0  0  0  0
    5.7788   -2.2235    2.3607 H   0  0  0  0  0  0  0  0  0  0  0  0
    6.2678   -2.3838    0.6759 H   0  0  0  0  0  0  0  0  0  0  0  0
    8.0310   -2.2869    2.5662 H   0  0  0  0  0  0  0  0  0  0  0  0
    8.4108   -1.4353    1.0396 H   0  0  0  0  0  0  0  0  0  0  0  0
    8.4060    0.4696    0.8136 H   0  0  0  0  0  0  0  0  0  0  0  0
    7.8405    1.7165    2.0478 H   0  0  0  0  0  0  0  0  0  0  0  0
    6.3276    0.9821   -0.0626 H   0  0  0  0  0  0  0  0  0  0  0  0
    5.6630    1.5225    1.4975 H   0  0  0  0  0  0  0  0  0  0  0  0
   -5.6878   -1.8869   -1.1248 H   0  0  0  0  0  0  0  0  0  0  0  0
   -3.9893   -1.9085   -1.5867 H   0  0  0  0  0  0  0  0  0  0  0  0
   -3.7605   -3.3336    0.8499 H   0  0  0  0  0  0  0  0  0  0  0  0
   -5.6332   -4.9002    0.9210 H   0  0  0  0  0  0  0  0  0  0  0  0
   -6.4162   -3.9502   -0.2181 H   0  0  0  0  0  0  0  0  0  0  0  0
   -5.4195   -1.7284    1.4959 H   0  0  0  0  0  0  0  0  0  0  0  0
   -5.5479    0.0781    1.8010 H   0  0  0  0  0  0  0  0  0  0  0  0
   -7.5995   -0.0430    0.8723 H   0  0  0  0  0  0  0  0  0  0  0  0
   -7.2919   -1.5992    0.1067 H   0  0  0  0  0  0  0  0  0  0  0  0
   -6.8174   -0.3819   -1.9145 H   0  0  0  0  0  0  0  0  0  0  0  0
   -6.9853    1.1385   -0.9585 H   0  0  0  0  0  0  0  0  0  0  0  0
   -4.6063    0.0914   -1.9642 H   0  0  0  0  0  0  0  0  0  0  0  0
   -4.7223    1.4023   -0.7901 H   0  0  0  0  0  0  0  0  0  0  0  0
  1  2  1  0
  2  3  1  0
  3  4  1  0
  4  5  1  0
  5  6  1  0
  6  7  1  0
  6  8  2  0
  4  9  1  0
  9 10  1  6
  9 11  1  0
 11 12  1  0
 12 13  1  0
 13 14  1  0
 14 15  1  0
 15 16  1  0
 16 17  1  0
 17 18  1  0
 18 19  1  0
 19 20  1  0
 19 21  1  0
 21 22  1  0
 22 23  1  0
 23 24  1  6
 21 25  1  0
 25 26  1  0
 26 27  1  0
 27 28  1  0
 28 29  1  0
 29 30  1  0
  3 31  1  0
 31 32  1  0
 32 33  1  0
 33 34  2  0
 31 35  1  0
 35 36  1  0
 36 37  1  0
 37 38  1  0
  9  1  1  0
 23 13  1  0
 30 25  1  0
 38 31  1  0
 14  1  1  0
 23 17  1  0
  1 39  1  1
  2 40  1  0
  2 41  1  0
  3 42  1  1
  4 43  1  1
  7 44  1  0
  7 45  1  0
  7 46  1  0
 10 47  1  0
 10 48  1  0
 10 49  1  0
 11 50  1  0
 11 51  1  0
 12 52  1  0
 12 53  1  0
 13 54  1  1
 14 55  1  6
 15 56  1  0
 15 57  1  0
 16 58  1  0
 16 59  1  0
 17 60  1  1
 18 61  1  0
 18 62  1  0
 19 63  1  6
 20 64  1  0
 21 65  1  1
 22 66  1  0
 22 67  1  0
 24 68  1  0
 24 69  1  0
 24 70  1  0
 26 71  1  0
 26 72  1  0
 27 73  1  0
 27 74  1  0
 29 75  1  0
 29 76  1  0
 30 77  1  0
 30 78  1  0
 32 79  1  0
 32 80  1  0
 33 81  1  0
 34 82  1  0
 34 83  1  0
 35 84  1  0
 35 85  1  0
 36 86  1  0
 36 87  1  0
 37 88  1  0
 37 89  1  0
 38 90  1  0
 38 91  1  0
M  CHG  1  31   1
M  END
$$$$
