@<TRIPOS>MOLECULE
*****
 91 96 0 0 0
SMALL
GASTEIGER

@<TRIPOS>ATOM
      1 C          -1.0314   -0.1965   -0.0959 C.3     1  UNL1       -0.0238
      2 C          -2.2586   -0.7665   -0.6937 C.3     1  UNL1       -0.0024
      3 C          -3.2264   -0.5016    0.4648 C.3     1  UNL1        0.0199
      4 C          -2.7660    0.7138    1.1556 C.3     1  UNL1        0.1508
      5 O          -3.6387    1.7884    1.2446 O.3     1  UNL1       -0.4553
      6 C          -4.0116    2.4654    2.3918 C.2     1  UNL1        0.3044
      7 C          -4.9807    3.5916    2.1494 C.3     1  UNL1        0.0332
      8 O          -3.5135    2.0755    3.4788 O.2     1  UNL1       -0.2512
      9 C          -1.5392    1.1557    0.4189 C.3     1  UNL1        0.0136
     10 C          -1.8260    2.1208   -0.6899 C.3     1  UNL1       -0.0557
     11 C          -0.4499    1.6605    1.3269 C.3     1  UNL1       -0.0435
     12 C           0.8823    1.7160    0.6763 C.3     1  UNL1       -0.0488
     13 C           1.2368    0.4634   -0.0898 C.3     1  UNL1       -0.0322
     14 C           0.0886    0.1388   -1.0196 C.3     1  UNL1       -0.0341
     15 C           0.3851   -0.8872   -2.0525 C.3     1  UNL1       -0.0494
     16 C           1.6669   -0.4765   -2.7757 C.3     1  UNL1       -0.0494
     17 C           2.7341   -0.5937   -1.7214 C.3     1  UNL1       -0.0329
     18 C           4.1308   -0.6841   -2.2419 C.3     1  UNL1       -0.0220
     19 C           4.9680   -1.2096   -1.0663 C.3     1  UNL1        0.0710
     20 O           4.7695   -2.6093   -1.0999 O.3     1  UNL1       -0.3902
     21 C           4.4662   -0.7093    0.2480 C.3     1  UNL1        0.0370
     22 C           3.6831    0.5627    0.1944 C.3     1  UNL1       -0.0290
     23 C           2.5450    0.5783   -0.7717 C.3     1  UNL1       -0.0246
     24 C           2.5413    1.8300   -1.6235 C.3     1  UNL1       -0.0590
     25 N           5.5347   -0.5197    1.2001 N.3     1  UNL1       -0.2926
     26 C           6.2798   -1.6666    1.5221 C.3     1  UNL1        0.0228
     27 C           7.7085   -1.4599    1.8982 C.3     1  UNL1        0.0604
     28 O           7.7637   -0.2219    2.5787 O.3     1  UNL1       -0.3772
     29 C           7.6316    0.7259    1.5660 C.3     1  UNL1        0.0604
     30 C           6.2468    0.7033    1.0294 C.3     1  UNL1        0.0228
     31 N          -4.5569   -0.5946    0.0104 N.4     1  UNL1        0.2509
     32 C          -4.6445   -1.8783   -0.7149 C.3     1  UNL1       -0.0111
     33 C          -4.5525   -3.0433    0.1862 C.2     1  UNL1       -0.0465
     34 C          -5.4904   -3.9977    0.3454 C.2     1  UNL1       -0.0977
     35 C          -5.5326   -0.7066    1.0508 C.3     1  UNL1       -0.0292
     36 C          -6.8396   -0.6033    0.2673 C.3     1  UNL1       -0.0076
     37 C          -6.4901    0.1313   -0.9859 C.3     1  UNL1       -0.0076
     38 C          -4.9872    0.3662   -0.9435 C.3     1  UNL1       -0.0292
     39 H          -0.7467   -0.7831    0.7823 H       1  UNL1        0.0312
     40 H          -2.5996   -0.3095   -1.6263 H       1  UNL1        0.0324
     41 H          -2.0887   -1.8667   -0.8290 H       1  UNL1        0.0324
     42 H          -3.0586   -1.3807    1.1475 H       1  UNL1        0.0889
     43 H          -2.4229    0.5051    2.2116 H       1  UNL1        0.0797
     44 H          -5.3122    4.0634    3.0780 H       1  UNL1        0.0342
     45 H          -4.5616    4.3475    1.4500 H       1  UNL1        0.0342
     46 H          -5.9156    3.2245    1.6473 H       1  UNL1        0.0342
     47 H          -0.9682    2.8306   -0.8449 H       1  UNL1        0.0236
     48 H          -2.1033    1.6696   -1.6498 H       1  UNL1        0.0236
     49 H          -2.6824    2.8011   -0.4331 H       1  UNL1        0.0236
     50 H          -0.5043    1.0587    2.2552 H       1  UNL1        0.0272
     51 H          -0.7190    2.7069    1.6349 H       1  UNL1        0.0272
     52 H           1.6372    1.8370    1.4833 H       1  UNL1        0.0268
     53 H           0.9553    2.6356    0.0691 H       1  UNL1        0.0268
     54 H           1.2728   -0.3634    0.6478 H       1  UNL1        0.0309
     55 H          -0.1500    1.0878   -1.5692 H       1  UNL1        0.0306
     56 H          -0.4573   -0.9296   -2.7409 H       1  UNL1        0.0268
     57 H           0.6152   -1.8646   -1.5602 H       1  UNL1        0.0268
     58 H           1.5321    0.5382   -3.1809 H       1  UNL1        0.0268
     59 H           1.8325   -1.2175   -3.5657 H       1  UNL1        0.0268
     60 H           2.5413   -1.5721   -1.1952 H       1  UNL1        0.0307
     61 H           4.6015    0.2583   -2.5312 H       1  UNL1        0.0293
     62 H           4.1511   -1.3769   -3.1006 H       1  UNL1        0.0293
     63 H           6.0343   -1.0669   -1.2420 H       1  UNL1        0.0609
     64 H           4.7565   -2.9684   -2.0166 H       1  UNL1        0.2098
     65 H           3.7927   -1.4763    0.7328 H       1  UNL1        0.0488
     66 H           3.3613    0.7720    1.2459 H       1  UNL1        0.0287
     67 H           4.3415    1.4443   -0.0543 H       1  UNL1        0.0287
     68 H           3.0726    1.7308   -2.5767 H       1  UNL1        0.0235
     69 H           3.0909    2.6484   -1.0733 H       1  UNL1        0.0235
     70 H           1.5269    2.2152   -1.8426 H       1  UNL1        0.0235
     71 H           5.7788   -2.2235    2.3607 H       1  UNL1        0.0449
     72 H           6.2678   -2.3838    0.6759 H       1  UNL1        0.0449
     73 H           8.0310   -2.2869    2.5662 H       1  UNL1        0.0572
     74 H           8.4108   -1.4353    1.0396 H       1  UNL1        0.0572
     75 H           8.4060    0.4696    0.8136 H       1  UNL1        0.0572
     76 H           7.8405    1.7165    2.0478 H       1  UNL1        0.0572
     77 H           6.3276    0.9821   -0.0626 H       1  UNL1        0.0449
     78 H           5.6630    1.5225    1.4975 H       1  UNL1        0.0449
     79 H          -5.6878   -1.8869   -1.1248 H       1  UNL1        0.0862
     80 H          -3.9893   -1.9085   -1.5867 H       1  UNL1        0.0862
     81 H          -3.7605   -3.3336    0.8499 H       1  UNL1        0.0619
     82 H          -5.6332   -4.9002    0.9210 H       1  UNL1        0.0534
     83 H          -6.4162   -3.9502   -0.2181 H       1  UNL1        0.0534
     84 H          -5.4195   -1.7284    1.4959 H       1  UNL1        0.0815
     85 H          -5.5479    0.0781    1.8010 H       1  UNL1        0.0815
     86 H          -7.5995   -0.0430    0.8723 H       1  UNL1        0.0319
     87 H          -7.2919   -1.5992    0.1067 H       1  UNL1        0.0319
     88 H          -6.8174   -0.3819   -1.9145 H       1  UNL1        0.0319
     89 H          -6.9853    1.1385   -0.9585 H       1  UNL1        0.0319
     90 H          -4.6063    0.0914   -1.9642 H       1  UNL1        0.0815
     91 H          -4.7223    1.4023   -0.7901 H       1  UNL1        0.0815
@<TRIPOS>UNITY_ATOM_ATTR
31 1
charge 1
@<TRIPOS>BOND
     1     1     2    1
     2     2     3    1
     3     3     4    1
     4     4     5    1
     5     5     6    1
     6     6     7    1
     7     6     8    2
     8     4     9    1
     9     9    10    1
    10     9    11    1
    11    11    12    1
    12    12    13    1
    13    13    14    1
    14    14    15    1
    15    15    16    1
    16    16    17    1
    17    17    18    1
    18    18    19    1
    19    19    20    1
    20    19    21    1
    21    21    22    1
    22    22    23    1
    23    23    24    1
    24    21    25    1
    25    25    26    1
    26    26    27    1
    27    27    28    1
    28    28    29    1
    29    29    30    1
    30     3    31    1
    31    31    32    1
    32    32    33    1
    33    33    34    2
    34    31    35    1
    35    35    36    1
    36    36    37    1
    37    37    38    1
    38     9     1    1
    39    23    13    1
    40    30    25    1
    41    38    31    1
    42    14     1    1
    43    23    17    1
    44     1    39    1
    45     2    40    1
    46     2    41    1
    47     3    42    1
    48     4    43    1
    49     7    44    1
    50     7    45    1
    51     7    46    1
    52    10    47    1
    53    10    48    1
    54    10    49    1
    55    11    50    1
    56    11    51    1
    57    12    52    1
    58    12    53    1
    59    13    54    1
    60    14    55    1
    61    15    56    1
    62    15    57    1
    63    16    58    1
    64    16    59    1
    65    17    60    1
    66    18    61    1
    67    18    62    1
    68    19    63    1
    69    20    64    1
    70    21    65    1
    71    22    66    1
    72    22    67    1
    73    24    68    1
    74    24    69    1
    75    24    70    1
    76    26    71    1
    77    26    72    1
    78    27    73    1
    79    27    74    1
    80    29    75    1
    81    29    76    1
    82    30    77    1
    83    30    78    1
    84    32    79    1
    85    32    80    1
    86    33    81    1
    87    34    82    1
    88    34    83    1
    89    35    84    1
    90    35    85    1
    91    36    86    1
    92    36    87    1
    93    37    88    1
    94    37    89    1
    95    38    90    1
    96    38    91    1
