@<TRIPOS>MOLECULE
*****
 43 44 0 0 0
SMALL
GASTEIGER

@<TRIPOS>ATOM
      1 C          -1.1065    2.0924    2.3847 C.3     1  UNL1        0.0788
      2 O          -0.6765    1.7529    1.0766 O.3     1  UNL1       -0.4944
      3 C          -1.3123    0.6807    0.4315 C.ar    1  UNL1        0.1303
      4 C          -0.8774   -0.6482    0.5183 C.ar    1  UNL1        0.0404
      5 C           0.3329   -0.9107    1.3447 C.3     1  UNL1       -0.0023
      6 C           1.5786   -0.5213    0.6786 C.2     1  UNL1       -0.0805
      7 C           2.6339   -1.2492    0.3545 C.2     1  UNL1       -0.0757
      8 C           2.5368   -2.6791    0.7228 C.3     1  UNL1       -0.0438
      9 C           3.8620   -0.7774   -0.3115 C.3     1  UNL1       -0.0219
     10 C           3.8952    0.6848   -0.6181 C.3     1  UNL1        0.0484
     11 C           3.8151    1.4898    0.6546 C.2     1  UNL1        0.3050
     12 O           3.8094    2.8640    0.3587 O.3     1  UNL1       -0.4806
     13 O           3.7529    1.2106    1.9012 O.2     1  UNL1       -0.2510
     14 C          -1.5976   -1.6048   -0.1669 C.ar    1  UNL1        0.1381
     15 O          -1.1452   -2.9354   -0.0671 O.3     1  UNL1       -0.5055
     16 C          -2.7044   -1.2893   -0.9139 C.ar    1  UNL1        0.1074
     17 C          -3.5961   -2.1328   -1.7040 C.2     1  UNL1        0.3435
     18 O          -3.4825   -3.3794   -1.8355 O.2     1  UNL1       -0.2448
     19 O          -4.5279   -1.2797   -2.2324 O.3     1  UNL1       -0.4563
     20 C          -4.3160    0.0650   -1.8518 C.3     1  UNL1        0.1191
     21 C          -3.1236    0.0276   -0.9916 C.ar    1  UNL1        0.0136
     22 C          -2.4197    1.0010   -0.3152 C.ar    1  UNL1       -0.0011
     23 C          -2.8941    2.4061   -0.4149 C.3     1  UNL1       -0.0358
     24 H          -1.5379    1.2069    2.9036 H       1  UNL1        0.0660
     25 H          -1.8990    2.8914    2.3231 H       1  UNL1        0.0660
     26 H          -0.2519    2.4509    2.9935 H       1  UNL1        0.0660
     27 H           0.2767   -1.9249    1.7410 H       1  UNL1        0.0358
     28 H           0.2499   -0.2508    2.2484 H       1  UNL1        0.0358
     29 H           1.5818    0.5342    0.4228 H       1  UNL1        0.0575
     30 H           1.5229   -3.1060    0.6541 H       1  UNL1        0.0274
     31 H           3.0410   -2.8551    1.6946 H       1  UNL1        0.0274
     32 H           3.1275   -3.2517   -0.0384 H       1  UNL1        0.0274
     33 H           4.0507   -1.3420   -1.2468 H       1  UNL1        0.0315
     34 H           4.7414   -1.0275    0.3479 H       1  UNL1        0.0315
     35 H           3.0818    0.9710   -1.3109 H       1  UNL1        0.0381
     36 H           4.8756    0.9471   -1.0618 H       1  UNL1        0.0381
     37 H           3.5097    3.5154    1.0813 H       1  UNL1        0.2951
     38 H          -0.4688   -3.1957   -0.7978 H       1  UNL1        0.2922
     39 H          -4.1033    0.6934   -2.7468 H       1  UNL1        0.0749
     40 H          -5.1870    0.5026   -1.3276 H       1  UNL1        0.0749
     41 H          -3.5439    2.5341   -1.2875 H       1  UNL1        0.0279
     42 H          -2.0220    3.1204   -0.4357 H       1  UNL1        0.0279
     43 H          -3.4821    2.7185    0.4839 H       1  UNL1        0.0279
@<TRIPOS>BOND
     1     1     2    1
     2     2     3    1
     3     3     4   ar
     4     4     5    1
     5     5     6    1
     6     6     7    2
     7     7     8    1
     8     7     9    1
     9     9    10    1
    10    10    11    1
    11    11    12    1
    12    11    13    2
    13     4    14   ar
    14    14    15    1
    15    14    16   ar
    16    16    17    1
    17    17    18    2
    18    17    19    1
    19    19    20    1
    20    20    21    1
    21    21    22   ar
    22    22    23    1
    23    22     3   ar
    24    21    16   ar
    25     1    24    1
    26     1    25    1
    27     1    26    1
    28     5    27    1
    29     5    28    1
    30     6    29    1
    31     8    30    1
    32     8    31    1
    33     8    32    1
    34     9    33    1
    35     9    34    1
    36    10    35    1
    37    10    36    1
    38    12    37    1
    39    15    38    1
    40    20    39    1
    41    20    40    1
    42    23    41    1
    43    23    42    1
    44    23    43    1
