@<TRIPOS>MOLECULE
*****
 99 102 0 0 0
SMALL
GASTEIGER

@<TRIPOS>ATOM
      1 O           0.2985   -1.0098   -0.2417 O.2     1  UNL1       -0.2741
      2 C           0.1996   -1.3166    0.9575 C.2     1  UNL1        0.2305
      3 C           1.2004   -0.8927    1.9485 C.3     1  UNL1        0.0881
      4 N           2.3095   -0.1592    1.4393 N.am    1  UNL1       -0.3054
      5 C           2.2381    1.0419    0.7278 C.2     1  UNL1        0.2324
      6 O           1.0898    1.5335    0.4948 O.2     1  UNL1       -0.2740
      7 C           3.4184    1.7923    0.2218 C.3     1  UNL1        0.1097
      8 C           3.3826    2.0945   -1.2423 C.3     1  UNL1       -0.0021
      9 C           3.3379    0.8599   -2.0455 C.ar    1  UNL1       -0.0454
     10 C           4.5389    0.2666   -2.4005 C.ar    1  UNL1       -0.0585
     11 C           4.5756   -0.8739   -3.1537 C.ar    1  UNL1       -0.0615
     12 C           3.4114   -1.4730   -3.5871 C.ar    1  UNL1       -0.0617
     13 C           2.2062   -0.8944   -3.2422 C.ar    1  UNL1       -0.0615
     14 C           2.1837    0.2734   -2.4699 C.ar    1  UNL1       -0.0585
     15 N           4.6445    1.1633    0.5706 N.3     1  UNL1       -0.1675
     16 S           5.6272    1.9931    1.6855 S.O2    1  UNL1        0.0978
     17 O           4.8648    2.1377    2.9982 O.2     1  UNL1       -0.1411
     18 O           6.8369    1.1315    2.0345 O.2     1  UNL1       -0.1411
     19 N           6.1128    3.4873    1.0679 N.3     1  UNL1       -0.1622
     20 C           6.9033    3.4439   -0.1041 C.3     1  UNL1        0.0450
     21 C           6.8919    4.7263   -0.8962 C.3     1  UNL1        0.0621
     22 O           6.6306    5.8290   -0.0861 O.3     1  UNL1       -0.3771
     23 C           7.0821    5.6526    1.2150 C.3     1  UNL1        0.0621
     24 C           6.3054    4.5589    1.9576 C.3     1  UNL1        0.0450
     25 N          -0.9072   -2.0964    1.3791 N.am    1  UNL1       -0.3085
     26 C          -1.9610   -2.5430    0.4504 C.3     1  UNL1        0.0555
     27 C          -1.5621   -3.7665   -0.2737 C.3     1  UNL1       -0.0290
     28 C          -1.1867   -5.0030    0.3698 C.3     1  UNL1       -0.0393
     29 C          -0.0017   -5.0075    1.2919 C.3     1  UNL1       -0.0502
     30 C           0.2212   -6.4941    1.6425 C.3     1  UNL1       -0.0528
     31 C          -0.8290   -6.8347    2.6749 C.3     1  UNL1       -0.0530
     32 C          -1.9799   -5.8807    2.5790 C.3     1  UNL1       -0.0528
     33 C          -2.3100   -5.6701    1.1092 C.3     1  UNL1       -0.0502
     34 C          -3.2498   -2.4434    1.1164 C.3     1  UNL1        0.1453
     35 O          -3.2939   -1.0459    1.5523 O.3     1  UNL1       -0.3835
     36 C          -4.5139   -2.4914    0.2889 C.3     1  UNL1        0.3494
     37 F          -4.6650   -3.6173   -0.4762 F       1  UNL1       -0.1924
     38 F          -5.5129   -2.7152    1.3040 F       1  UNL1       -0.1924
     39 C          -4.9211   -1.2304   -0.3205 C.2     1  UNL1        0.2853
     40 O          -5.9906   -0.6381    0.1077 O.2     1  UNL1       -0.2692
     41 N          -4.2981   -0.5147   -1.3606 N.am    1  UNL1       -0.3091
     42 C          -4.7747    0.7534   -1.8802 C.3     1  UNL1        0.0245
     43 C          -4.7993    1.8334   -0.8575 C.3     1  UNL1        0.0146
     44 N          -5.2778    3.0710   -1.4364 N.3     1  UNL1       -0.2965
     45 C          -6.6483    3.0762   -1.8196 C.3     1  UNL1        0.0225
     46 C          -7.5208    3.9758   -1.0000 C.3     1  UNL1        0.0604
     47 O          -7.0087    5.2148   -0.7236 O.3     1  UNL1       -0.3772
     48 C          -5.7019    5.4037   -1.1072 C.3     1  UNL1        0.0604
     49 C          -4.9149    4.2116   -0.6125 C.3     1  UNL1        0.0225
     50 H           1.5209   -1.7382    2.5996 H       1  UNL1        0.0558
     51 H           0.6427   -0.2091    2.6614 H       1  UNL1        0.0558
     52 H           3.2775   -0.5403    1.6084 H       1  UNL1        0.1492
     53 H           3.3892    2.7696    0.7956 H       1  UNL1        0.0576
     54 H           2.5613    2.8004   -1.5168 H       1  UNL1        0.0334
     55 H           4.3127    2.6376   -1.5110 H       1  UNL1        0.0334
     56 H           5.4676    0.7383   -2.0606 H       1  UNL1        0.0620
     57 H           5.5279   -1.3468   -3.4351 H       1  UNL1        0.0618
     58 H           3.4625   -2.3873   -4.1898 H       1  UNL1        0.0618
     59 H           1.2729   -1.3332   -3.5617 H       1  UNL1        0.0618
     60 H           1.2533    0.7455   -2.1840 H       1  UNL1        0.0620
     61 H           4.7427    0.1676    0.5064 H       1  UNL1        0.1500
     62 H           6.5531    2.6268   -0.7673 H       1  UNL1        0.0467
     63 H           7.9643    3.1899    0.1445 H       1  UNL1        0.0467
     64 H           7.9075    4.8677   -1.3294 H       1  UNL1        0.0573
     65 H           6.2019    4.6777   -1.7617 H       1  UNL1        0.0573
     66 H           6.9639    6.6486    1.7321 H       1  UNL1        0.0573
     67 H           8.1455    5.3713    1.2652 H       1  UNL1        0.0573
     68 H           5.3719    4.9981    2.3724 H       1  UNL1        0.0467
     69 H           6.9566    4.2655    2.8213 H       1  UNL1        0.0467
     70 H          -0.9604   -2.3429    2.3961 H       1  UNL1        0.1491
     71 H          -1.9044   -1.7209   -0.3310 H       1  UNL1        0.0526
     72 H          -0.6965   -3.4670   -0.9577 H       1  UNL1        0.0287
     73 H          -2.3587   -3.9538   -1.0585 H       1  UNL1        0.0287
     74 H          -0.8762   -5.7741   -0.4169 H       1  UNL1        0.0301
     75 H          -0.1326   -4.5389    2.2586 H       1  UNL1        0.0268
     76 H           0.9562   -4.7149    0.8138 H       1  UNL1        0.0268
     77 H           0.0760   -7.1240    0.7462 H       1  UNL1        0.0265
     78 H           1.2530   -6.6551    2.0064 H       1  UNL1        0.0265
     79 H          -0.3462   -6.8767    3.6733 H       1  UNL1        0.0265
     80 H          -1.2073   -7.8719    2.4703 H       1  UNL1        0.0265
     81 H          -2.8782   -6.4020    3.0082 H       1  UNL1        0.0265
     82 H          -1.8895   -4.9589    3.1528 H       1  UNL1        0.0265
     83 H          -2.5558   -6.6885    0.7262 H       1  UNL1        0.0268
     84 H          -3.2639   -5.1231    1.1001 H       1  UNL1        0.0268
     85 H          -3.3975   -2.9658    2.0473 H       1  UNL1        0.0677
     86 H          -3.1263   -0.5613    0.6910 H       1  UNL1        0.2101
     87 H          -3.4493   -0.9223   -1.7988 H       1  UNL1        0.1489
     88 H          -5.8095    0.5615   -2.2460 H       1  UNL1        0.0474
     89 H          -4.1688    1.0650   -2.7346 H       1  UNL1        0.0474
     90 H          -3.7679    2.0877   -0.4790 H       1  UNL1        0.0442
     91 H          -5.4851    1.5780   -0.0441 H       1  UNL1        0.0442
     92 H          -7.1090    2.0690   -1.8164 H       1  UNL1        0.0449
     93 H          -6.7133    3.4173   -2.8849 H       1  UNL1        0.0449
     94 H          -8.4609    4.1609   -1.6006 H       1  UNL1        0.0572
     95 H          -7.8884    3.4738   -0.0666 H       1  UNL1        0.0572
     96 H          -5.6204    5.5367   -2.2150 H       1  UNL1        0.0572
     97 H          -5.3576    6.3519   -0.6354 H       1  UNL1        0.0572
     98 H          -3.8412    4.4268   -0.7510 H       1  UNL1        0.0449
     99 H          -5.1983    4.0702    0.4506 H       1  UNL1        0.0449
@<TRIPOS>BOND
     1     1     2    2
     2     2     3    1
     3     3     4    1
     4     4     5   am
     5     5     6    2
     6     5     7    1
     7     7     8    1
     8     8     9    1
     9     9    10   ar
    10    10    11   ar
    11    11    12   ar
    12    12    13   ar
    13    13    14   ar
    14     7    15    1
    15    15    16    1
    16    16    17    2
    17    16    18    2
    18    16    19    1
    19    19    20    1
    20    20    21    1
    21    21    22    1
    22    22    23    1
    23    23    24    1
    24     2    25   am
    25    25    26    1
    26    26    27    1
    27    27    28    1
    28    28    29    1
    29    29    30    1
    30    30    31    1
    31    31    32    1
    32    32    33    1
    33    26    34    1
    34    34    35    1
    35    34    36    1
    36    36    37    1
    37    36    38    1
    38    36    39    1
    39    39    40    2
    40    39    41   am
    41    41    42    1
    42    42    43    1
    43    43    44    1
    44    44    45    1
    45    45    46    1
    46    46    47    1
    47    47    48    1
    48    48    49    1
    49    14     9   ar
    50    24    19    1
    51    33    28    1
    52    49    44    1
    53     3    50    1
    54     3    51    1
    55     4    52    1
    56     7    53    1
    57     8    54    1
    58     8    55    1
    59    10    56    1
    60    11    57    1
    61    12    58    1
    62    13    59    1
    63    14    60    1
    64    15    61    1
    65    20    62    1
    66    20    63    1
    67    21    64    1
    68    21    65    1
    69    23    66    1
    70    23    67    1
    71    24    68    1
    72    24    69    1
    73    25    70    1
    74    26    71    1
    75    27    72    1
    76    27    73    1
    77    28    74    1
    78    29    75    1
    79    29    76    1
    80    30    77    1
    81    30    78    1
    82    31    79    1
    83    31    80    1
    84    32    81    1
    85    32    82    1
    86    33    83    1
    87    33    84    1
    88    34    85    1
    89    35    86    1
    90    41    87    1
    91    42    88    1
    92    42    89    1
    93    43    90    1
    94    43    91    1
    95    45    92    1
    96    45    93    1
    97    46    94    1
    98    46    95    1
    99    48    96    1
   100    48    97    1
   101    49    98    1
   102    49    99    1
