
     RDKit          3D

 99102  0  0  0  0  0  0  0  0999 V2000
    0.2985   -1.0098   -0.2417 O   0  0  0  0  0  0  0  0  0  0  0  0
    0.1996   -1.3166    0.9575 C   0  0  0  0  0  0  0  0  0  0  0  0
    1.2004   -0.8927    1.9485 C   0  0  0  0  0  0  0  0  0  0  0  0
    2.3095   -0.1592    1.4393 N   0  0  0  0  0  0  0  0  0  0  0  0
    2.2381    1.0419    0.7278 C   0  0  0  0  0  0  0  0  0  0  0  0
    1.0898    1.5335    0.4948 O   0  0  0  0  0  0  0  0  0  0  0  0
    3.4184    1.7923    0.2218 C   0  0  2  0  0  0  0  0  0  0  0  0
    3.3826    2.0945   -1.2423 C   0  0  0  0  0  0  0  0  0  0  0  0
    3.3379    0.8599   -2.0455 C   0  0  0  0  0  0  0  0  0  0  0  0
    4.5389    0.2666   -2.4005 C   0  0  0  0  0  0  0  0  0  0  0  0
    4.5756   -0.8739   -3.1537 C   0  0  0  0  0  0  0  0  0  0  0  0
    3.4114   -1.4730   -3.5871 C   0  0  0  0  0  0  0  0  0  0  0  0
    2.2062   -0.8944   -3.2422 C   0  0  0  0  0  0  0  0  0  0  0  0
    2.1837    0.2734   -2.4699 C   0  0  0  0  0  0  0  0  0  0  0  0
    4.6445    1.1633    0.5706 N   0  0  0  0  0  0  0  0  0  0  0  0
    5.6272    1.9931    1.6855 S   0  0  0  0  0  6  0  0  0  0  0  0
    4.8648    2.1377    2.9982 O   0  0  0  0  0  0  0  0  0  0  0  0
    6.8369    1.1315    2.0345 O   0  0  0  0  0  0  0  0  0  0  0  0
    6.1128    3.4873    1.0679 N   0  0  0  0  0  0  0  0  0  0  0  0
    6.9033    3.4439   -0.1041 C   0  0  0  0  0  0  0  0  0  0  0  0
    6.8919    4.7263   -0.8962 C   0  0  0  0  0  0  0  0  0  0  0  0
    6.6306    5.8290   -0.0861 O   0  0  0  0  0  0  0  0  0  0  0  0
    7.0821    5.6526    1.2150 C   0  0  0  0  0  0  0  0  0  0  0  0
    6.3054    4.5589    1.9576 C   0  0  0  0  0  0  0  0  0  0  0  0
   -0.9072   -2.0964    1.3791 N   0  0  0  0  0  0  0  0  0  0  0  0
   -1.9610   -2.5430    0.4504 C   0  0  1  0  0  0  0  0  0  0  0  0
   -1.5621   -3.7665   -0.2737 C   0  0  0  0  0  0  0  0  0  0  0  0
   -1.1867   -5.0030    0.3698 C   0  0  0  0  0  0  0  0  0  0  0  0
   -0.0017   -5.0075    1.2919 C   0  0  0  0  0  0  0  0  0  0  0  0
    0.2212   -6.4941    1.6425 C   0  0  0  0  0  0  0  0  0  0  0  0
   -0.8290   -6.8347    2.6749 C   0  0  0  0  0  0  0  0  0  0  0  0
   -1.9799   -5.8807    2.5790 C   0  0  0  0  0  0  0  0  0  0  0  0
   -2.3100   -5.6701    1.1092 C   0  0  0  0  0  0  0  0  0  0  0  0
   -3.2498   -2.4434    1.1164 C   0  0  0  0  0  0  0  0  0  0  0  0
   -3.2939   -1.0459    1.5523 O   0  0  0  0  0  0  0  0  0  0  0  0
   -4.5139   -2.4914    0.2889 C   0  0  0  0  0  0  0  0  0  0  0  0
   -4.6650   -3.6173   -0.4762 F   0  0  0  0  0  0  0  0  0  0  0  0
   -5.5129   -2.7152    1.3040 F   0  0  0  0  0  0  0  0  0  0  0  0
   -4.9211   -1.2304   -0.3205 C   0  0  0  0  0  0  0  0  0  0  0  0
   -5.9906   -0.6381    0.1077 O   0  0  0  0  0  0  0  0  0  0  0  0
   -4.2981   -0.5147   -1.3606 N   0  0  0  0  0  0  0  0  0  0  0  0
   -4.7747    0.7534   -1.8802 C   0  0  0  0  0  0  0  0  0  0  0  0
   -4.7993    1.8334   -0.8575 C   0  0  0  0  0  0  0  0  0  0  0  0
   -5.2778    3.0710   -1.4364 N   0  0  0  0  0  0  0  0  0  0  0  0
   -6.6483    3.0762   -1.8196 C   0  0  0  0  0  0  0  0  0  0  0  0
   -7.5208    3.9758   -1.0000 C   0  0  0  0  0  0  0  0  0  0  0  0
   -7.0087    5.2148   -0.7236 O   0  0  0  0  0  0  0  0  0  0  0  0
   -5.7019    5.4037   -1.1072 C   0  0  0  0  0  0  0  0  0  0  0  0
   -4.9149    4.2116   -0.6125 C   0  0  0  0  0  0  0  0  0  0  0  0
    1.5209   -1.7382    2.5996 H   0  0  0  0  0  0  0  0  0  0  0  0
    0.6427   -0.2091    2.6614 H   0  0  0  0  0  0  0  0  0  0  0  0
    3.2775   -0.5403    1.6084 H   0  0  0  0  0  0  0  0  0  0  0  0
    3.3892    2.7696    0.7956 H   0  0  0  0  0  0  0  0  0  0  0  0
    2.5613    2.8004   -1.5168 H   0  0  0  0  0  0  0  0  0  0  0  0
    4.3127    2.6376   -1.5110 H   0  0  0  0  0  0  0  0  0  0  0  0
    5.4676    0.7383   -2.0606 H   0  0  0  0  0  0  0  0  0  0  0  0
    5.5279   -1.3468   -3.4351 H   0  0  0  0  0  0  0  0  0  0  0  0
    3.4625   -2.3873   -4.1898 H   0  0  0  0  0  0  0  0  0  0  0  0
    1.2729   -1.3332   -3.5617 H   0  0  0  0  0  0  0  0  0  0  0  0
    1.2533    0.7455   -2.1840 H   0  0  0  0  0  0  0  0  0  0  0  0
    4.7427    0.1676    0.5064 H   0  0  0  0  0  0  0  0  0  0  0  0
    6.5531    2.6268   -0.7673 H   0  0  0  0  0  0  0  0  0  0  0  0
    7.9643    3.1899    0.1445 H   0  0  0  0  0  0  0  0  0  0  0  0
    7.9075    4.8677   -1.3294 H   0  0  0  0  0  0  0  0  0  0  0  0
    6.2019    4.6777   -1.7617 H   0  0  0  0  0  0  0  0  0  0  0  0
    6.9639    6.6486    1.7321 H   0  0  0  0  0  0  0  0  0  0  0  0
    8.1455    5.3713    1.2652 H   0  0  0  0  0  0  0  0  0  0  0  0
    5.3719    4.9981    2.3724 H   0  0  0  0  0  0  0  0  0  0  0  0
    6.9566    4.2655    2.8213 H   0  0  0  0  0  0  0  0  0  0  0  0
   -0.9604   -2.3429    2.3961 H   0  0  0  0  0  0  0  0  0  0  0  0
   -1.9044   -1.7209   -0.3310 H   0  0  0  0  0  0  0  0  0  0  0  0
   -0.6965   -3.4670   -0.9577 H   0  0  0  0  0  0  0  0  0  0  0  0
   -2.3587   -3.9538   -1.0585 H   0  0  0  0  0  0  0  0  0  0  0  0
   -0.8762   -5.7741   -0.4169 H   0  0  0  0  0  0  0  0  0  0  0  0
   -0.1326   -4.5389    2.2586 H   0  0  0  0  0  0  0  0  0  0  0  0
    0.9562   -4.7149    0.8138 H   0  0  0  0  0  0  0  0  0  0  0  0
    0.0760   -7.1240    0.7462 H   0  0  0  0  0  0  0  0  0  0  0  0
    1.2530   -6.6551    2.0064 H   0  0  0  0  0  0  0  0  0  0  0  0
   -0.3462   -6.8767    3.6733 H   0  0  0  0  0  0  0  0  0  0  0  0
   -1.2073   -7.8719    2.4703 H   0  0  0  0  0  0  0  0  0  0  0  0
   -2.8782   -6.4020    3.0082 H   0  0  0  0  0  0  0  0  0  0  0  0
   -1.8895   -4.9589    3.1528 H   0  0  0  0  0  0  0  0  0  0  0  0
   -2.5558   -6.6885    0.7262 H   0  0  0  0  0  0  0  0  0  0  0  0
   -3.2639   -5.1231    1.1001 H   0  0  0  0  0  0  0  0  0  0  0  0
   -3.3975   -2.9658    2.0473 H   0  0  0  0  0  0  0  0  0  0  0  0
   -3.1263   -0.5613    0.6910 H   0  0  0  0  0  0  0  0  0  0  0  0
   -3.4493   -0.9223   -1.7988 H   0  0  0  0  0  0  0  0  0  0  0  0
   -5.8095    0.5615   -2.2460 H   0  0  0  0  0  0  0  0  0  0  0  0
   -4.1688    1.0650   -2.7346 H   0  0  0  0  0  0  0  0  0  0  0  0
   -3.7679    2.0877   -0.4790 H   0  0  0  0  0  0  0  0  0  0  0  0
   -5.4851    1.5780   -0.0441 H   0  0  0  0  0  0  0  0  0  0  0  0
   -7.1090    2.0690   -1.8164 H   0  0  0  0  0  0  0  0  0  0  0  0
   -6.7133    3.4173   -2.8849 H   0  0  0  0  0  0  0  0  0  0  0  0
   -8.4609    4.1609   -1.6006 H   0  0  0  0  0  0  0  0  0  0  0  0
   -7.8884    3.4738   -0.0666 H   0  0  0  0  0  0  0  0  0  0  0  0
   -5.6204    5.5367   -2.2150 H   0  0  0  0  0  0  0  0  0  0  0  0
   -5.3576    6.3519   -0.6354 H   0  0  0  0  0  0  0  0  0  0  0  0
   -3.8412    4.4268   -0.7510 H   0  0  0  0  0  0  0  0  0  0  0  0
   -5.1983    4.0702    0.4506 H   0  0  0  0  0  0  0  0  0  0  0  0
  1  2  2  0
  2  3  1  0
  3  4  1  0
  4  5  1  0
  5  6  2  0
  5  7  1  0
  7  8  1  0
  8  9  1  0
  9 10  2  0
 10 11  1  0
 11 12  2  0
 12 13  1  0
 13 14  2  0
  7 15  1  0
 15 16  1  0
 16 17  2  0
 16 18  2  0
 16 19  1  0
 19 20  1  0
 20 21  1  0
 21 22  1  0
 22 23  1  0
 23 24  1  0
  2 25  1  0
 25 26  1  0
 26 27  1  0
 27 28  1  0
 28 29  1  0
 29 30  1  0
 30 31  1  0
 31 32  1  0
 32 33  1  0
 26 34  1  0
 34 35  1  0
 34 36  1  0
 36 37  1  0
 36 38  1  0
 36 39  1  0
 39 40  2  0
 39 41  1  0
 41 42  1  0
 42 43  1  0
 43 44  1  0
 44 45  1  0
 45 46  1  0
 46 47  1  0
 47 48  1  0
 48 49  1  0
 14  9  1  0
 24 19  1  0
 33 28  1  0
 49 44  1  0
  3 50  1  0
  3 51  1  0
  4 52  1  0
  7 53  1  1
  8 54  1  0
  8 55  1  0
 10 56  1  0
 11 57  1  0
 12 58  1  0
 13 59  1  0
 14 60  1  0
 15 61  1  0
 20 62  1  0
 20 63  1  0
 21 64  1  0
 21 65  1  0
 23 66  1  0
 23 67  1  0
 24 68  1  0
 24 69  1  0
 25 70  1  0
 26 71  1  6
 27 72  1  0
 27 73  1  0
 28 74  1  0
 29 75  1  0
 29 76  1  0
 30 77  1  0
 30 78  1  0
 31 79  1  0
 31 80  1  0
 32 81  1  0
 32 82  1  0
 33 83  1  0
 33 84  1  0
 34 85  1  0
 35 86  1  0
 41 87  1  0
 42 88  1  0
 42 89  1  0
 43 90  1  0
 43 91  1  0
 45 92  1  0
 45 93  1  0
 46 94  1  0
 46 95  1  0
 48 96  1  0
 48 97  1  0
 49 98  1  0
 49 99  1  0
M  END
$$$$
