
     RDKit          3D

 59 62  0  0  0  0  0  0  0  0999 V2000
    6.4562    3.7457    1.0108 C   0  0  0  0  0  0  0  0  0  0  0  0
    7.0831    2.4565    0.8445 C   0  0  0  0  0  0  0  0  0  0  0  0
    7.6407    1.3570    0.6946 C   0  0  0  0  0  0  0  0  0  0  0  0
    8.2817    0.0735    0.4965 C   0  0  0  0  0  0  0  0  0  0  0  0
    7.6172   -1.0121    1.0764 O   0  0  0  0  0  0  0  0  0  0  0  0
    6.3234   -1.3497    0.7499 C   0  0  0  0  0  0  0  0  0  0  0  0
    5.7932   -2.4658    1.3868 C   0  0  0  0  0  0  0  0  0  0  0  0
    4.5460   -2.8260    1.1009 N   0  0  0  0  0  0  0  0  0  0  0  0
    3.7766   -2.1296    0.2030 C   0  0  0  0  0  0  0  0  0  0  0  0
    2.4372   -2.6442   -0.0306 C   0  0  0  0  0  0  0  0  0  0  0  0
    2.0542   -3.8103    0.5475 F   0  0  0  0  0  0  0  0  0  0  0  0
    1.5256   -2.0554   -0.7874 C   0  0  0  0  0  0  0  0  0  0  0  0
    0.1942   -2.6076   -0.9968 C   0  0  0  0  0  0  0  0  0  0  0  0
   -0.0926   -3.9153   -1.2888 C   0  0  0  0  0  0  0  0  0  0  0  0
   -1.3319   -4.3854   -1.4592 N   0  0  0  0  0  0  0  0  0  0  0  0
   -2.4184   -3.5636   -1.3478 C   0  0  0  0  0  0  0  0  0  0  0  0
   -3.6773   -4.0851   -1.5250 F   0  0  0  0  0  0  0  0  0  0  0  0
   -2.1717   -2.2506   -1.0566 C   0  0  0  0  0  0  0  0  0  0  0  0
   -3.3577   -1.3094   -0.9212 C   0  0  1  0  0  0  0  0  0  0  0  0
   -4.0848   -1.3689   -2.2386 C   0  0  0  0  0  0  0  0  0  0  0  0
   -4.1903   -1.8021    0.1169 N   0  0  0  0  0  0  0  0  0  0  0  0
   -5.1923   -1.1628    0.5851 C   0  0  0  0  0  0  0  0  0  0  0  0
   -6.0496   -1.5962    1.6051 N   0  0  0  0  0  0  0  0  0  0  0  0
   -5.4395    0.4512   -0.2014 S   0  0  0  0  0  0  0  0  0  0  0  0
   -3.7605    1.1284   -0.2836 C   0  0  1  0  0  0  0  0  0  0  0  0
   -3.7300    2.5456   -0.7505 C   0  0  0  0  0  0  0  0  0  0  0  0
   -3.6916    2.7994   -1.9950 O   0  0  0  0  0  0  0  0  0  0  0  0
   -3.7412    3.6300    0.1500 N   0  0  0  0  0  0  0  0  0  0  0  0
   -3.7105    4.9816   -0.3352 C   0  0  0  0  0  0  0  0  0  0  0  0
   -3.7794    3.3641    1.5678 C   0  0  0  0  0  0  0  0  0  0  0  0
   -2.6813    0.6585    0.6172 C   0  0  0  0  0  0  0  0  0  0  0  0
   -2.8497    0.1001   -0.7466 C   0  0  1  0  0  0  0  0  0  0  0  0
   -0.9081   -1.7540   -0.8795 C   0  0  0  0  0  0  0  0  0  0  0  0
    4.3014   -1.0396   -0.4145 C   0  0  0  0  0  0  0  0  0  0  0  0
    5.5600   -0.6639   -0.1372 N   0  0  0  0  0  0  0  0  0  0  0  0
    6.8295    4.2524    1.9237 H   0  0  0  0  0  0  0  0  0  0  0  0
    5.3487    3.6694    1.1308 H   0  0  0  0  0  0  0  0  0  0  0  0
    6.6355    4.3355    0.0957 H   0  0  0  0  0  0  0  0  0  0  0  0
    8.4358   -0.0882   -0.6174 H   0  0  0  0  0  0  0  0  0  0  0  0
    9.3165    0.0654    0.9554 H   0  0  0  0  0  0  0  0  0  0  0  0
    6.3700   -3.0357    2.0995 H   0  0  0  0  0  0  0  0  0  0  0  0
    1.8146   -1.1229   -1.2564 H   0  0  0  0  0  0  0  0  0  0  0  0
    0.7789   -4.5852   -1.3815 H   0  0  0  0  0  0  0  0  0  0  0  0
   -4.7748   -0.5157   -2.4128 H   0  0  0  0  0  0  0  0  0  0  0  0
   -3.3728   -1.4770   -3.0949 H   0  0  0  0  0  0  0  0  0  0  0  0
   -4.7554   -2.2725   -2.3172 H   0  0  0  0  0  0  0  0  0  0  0  0
   -7.0771   -1.7061    1.4681 H   0  0  0  0  0  0  0  0  0  0  0  0
   -5.6492   -1.8206    2.5400 H   0  0  0  0  0  0  0  0  0  0  0  0
   -2.8658    5.5498    0.1124 H   0  0  0  0  0  0  0  0  0  0  0  0
   -3.7204    5.0377   -1.4338 H   0  0  0  0  0  0  0  0  0  0  0  0
   -4.6257    5.4802    0.0693 H   0  0  0  0  0  0  0  0  0  0  0  0
   -4.5969    4.0010    1.9814 H   0  0  0  0  0  0  0  0  0  0  0  0
   -2.8489    3.6877    2.0815 H   0  0  0  0  0  0  0  0  0  0  0  0
   -4.0069    2.3340    1.8378 H   0  0  0  0  0  0  0  0  0  0  0  0
   -3.0208    0.1377    1.5208 H   0  0  0  0  0  0  0  0  0  0  0  0
   -1.8478    1.3666    0.7922 H   0  0  0  0  0  0  0  0  0  0  0  0
   -2.1138    0.4060   -1.5211 H   0  0  0  0  0  0  0  0  0  0  0  0
   -0.6904   -0.7062   -0.6418 H   0  0  0  0  0  0  0  0  0  0  0  0
    3.7046   -0.4870   -1.1209 H   0  0  0  0  0  0  0  0  0  0  0  0
  1  2  1  0
  2  3  3  0
  3  4  1  0
  4  5  1  0
  5  6  1  0
  6  7  2  0
  7  8  1  0
  8  9  2  0
  9 10  1  0
 10 11  1  0
 10 12  2  0
 12 13  1  0
 13 14  2  0
 14 15  1  0
 15 16  2  0
 16 17  1  0
 16 18  1  0
 18 19  1  0
 19 20  1  6
 19 21  1  0
 21 22  2  0
 22 23  1  0
 22 24  1  0
 24 25  1  0
 25 26  1  6
 26 27  2  0
 26 28  1  0
 28 29  1  0
 28 30  1  0
 25 31  1  0
 31 32  1  0
 18 33  2  0
  9 34  1  0
 34 35  2  0
 35  6  1  0
 33 13  1  0
 32 19  1  0
 32 25  1  0
  1 36  1  0
  1 37  1  0
  1 38  1  0
  4 39  1  0
  4 40  1  0
  7 41  1  0
 12 42  1  0
 14 43  1  0
 20 44  1  0
 20 45  1  0
 20 46  1  0
 23 47  1  0
 23 48  1  0
 29 49  1  0
 29 50  1  0
 29 51  1  0
 30 52  1  0
 30 53  1  0
 30 54  1  0
 31 55  1  0
 31 56  1  0
 32 57  1  6
 33 58  1  0
 34 59  1  0
M  END
$$$$
