@<TRIPOS>MOLECULE
*****
 59 62 0 0 0
SMALL
GASTEIGER

@<TRIPOS>ATOM
      1 C           6.4562    3.7457    1.0108 C.3     1  UNL1       -0.0025
      2 C           7.0831    2.4565    0.8445 C.1     1  UNL1       -0.1022
      3 C           7.6407    1.3570    0.6946 C.1     1  UNL1       -0.0617
      4 C           8.2817    0.0735    0.4965 C.3     1  UNL1        0.1516
      5 O           7.6172   -1.0121    1.0764 O.3     1  UNL1       -0.4624
      6 C           6.3234   -1.3497    0.7499 C.ar    1  UNL1        0.2344
      7 C           5.7932   -2.4658    1.3868 C.ar    1  UNL1        0.0899
      8 N           4.5460   -2.8260    1.1009 N.ar    1  UNL1       -0.2459
      9 C           3.7766   -2.1296    0.2030 C.ar    1  UNL1        0.1172
     10 C           2.4372   -2.6442   -0.0306 C.2     1  UNL1        0.1507
     11 F           2.0542   -3.8103    0.5475 F       1  UNL1       -0.2032
     12 C           1.5256   -2.0554   -0.7874 C.2     1  UNL1       -0.0157
     13 C           0.1942   -2.6076   -0.9968 C.ar    1  UNL1       -0.0036
     14 C          -0.0926   -3.9153   -1.2888 C.ar    1  UNL1        0.0379
     15 N          -1.3319   -4.3854   -1.4592 N.ar    1  UNL1       -0.2267
     16 C          -2.4184   -3.5636   -1.3478 C.ar    1  UNL1        0.2187
     17 F          -3.6773   -4.0851   -1.5250 F       1  UNL1       -0.1835
     18 C          -2.1717   -2.2506   -1.0566 C.ar    1  UNL1        0.0349
     19 C          -3.3577   -1.3094   -0.9212 C.3     1  UNL1        0.0950
     20 C          -4.0848   -1.3689   -2.2386 C.3     1  UNL1       -0.0351
     21 N          -4.1903   -1.8021    0.1169 N.2     1  UNL1       -0.2520
     22 C          -5.1923   -1.1628    0.5851 C.2     1  UNL1        0.1485
     23 N          -6.0496   -1.5962    1.6051 N.pl3   1  UNL1       -0.3380
     24 S          -5.4395    0.4512   -0.2014 S.3     1  UNL1       -0.0746
     25 C          -3.7605    1.1284   -0.2836 C.3     1  UNL1        0.1054
     26 C          -3.7300    2.5456   -0.7505 C.2     1  UNL1        0.2319
     27 O          -3.6916    2.7994   -1.9950 O.2     1  UNL1       -0.2741
     28 N          -3.7412    3.6300    0.1500 N.am    1  UNL1       -0.3064
     29 C          -3.7105    4.9816   -0.3352 C.3     1  UNL1        0.0029
     30 C          -3.7794    3.3641    1.5678 C.3     1  UNL1        0.0029
     31 C          -2.6813    0.6585    0.6172 C.3     1  UNL1       -0.0220
     32 C          -2.8497    0.1001   -0.7466 C.3     1  UNL1        0.0135
     33 C          -0.9081   -1.7540   -0.8795 C.ar    1  UNL1       -0.0433
     34 C           4.3014   -1.0396   -0.4145 C.ar    1  UNL1        0.0596
     35 N           5.5600   -0.6639   -0.1372 N.ar    1  UNL1       -0.2178
     36 H           6.8295    4.2524    1.9237 H       1  UNL1        0.0362
     37 H           5.3487    3.6694    1.1308 H       1  UNL1        0.0362
     38 H           6.6355    4.3355    0.0957 H       1  UNL1        0.0362
     39 H           8.4358   -0.0882   -0.6174 H       1  UNL1        0.0837
     40 H           9.3165    0.0654    0.9554 H       1  UNL1        0.0837
     41 H           6.3700   -3.0357    2.0995 H       1  UNL1        0.0884
     42 H           1.8146   -1.1229   -1.2564 H       1  UNL1        0.0653
     43 H           0.7789   -4.5852   -1.3815 H       1  UNL1        0.0836
     44 H          -4.7748   -0.5157   -2.4128 H       1  UNL1        0.0256
     45 H          -3.3728   -1.4770   -3.0949 H       1  UNL1        0.0256
     46 H          -4.7554   -2.2725   -2.3172 H       1  UNL1        0.0256
     47 H          -7.0771   -1.7061    1.4681 H       1  UNL1        0.1442
     48 H          -5.6492   -1.8206    2.5400 H       1  UNL1        0.1442
     49 H          -2.8658    5.5498    0.1124 H       1  UNL1        0.0428
     50 H          -3.7204    5.0377   -1.4338 H       1  UNL1        0.0428
     51 H          -4.6257    5.4802    0.0693 H       1  UNL1        0.0428
     52 H          -4.5969    4.0010    1.9814 H       1  UNL1        0.0428
     53 H          -2.8489    3.6877    2.0815 H       1  UNL1        0.0428
     54 H          -4.0069    2.3340    1.8378 H       1  UNL1        0.0428
     55 H          -3.0208    0.1377    1.5208 H       1  UNL1        0.0287
     56 H          -1.8478    1.3666    0.7922 H       1  UNL1        0.0287
     57 H          -2.1138    0.4060   -1.5211 H       1  UNL1        0.0346
     58 H          -0.6904   -0.7062   -0.6418 H       1  UNL1        0.0629
     59 H           3.7046   -0.4870   -1.1209 H       1  UNL1        0.0853
@<TRIPOS>BOND
     1     1     2    1
     2     2     3    3
     3     3     4    1
     4     4     5    1
     5     5     6    1
     6     6     7   ar
     7     7     8   ar
     8     8     9   ar
     9     9    10    1
    10    10    11    1
    11    10    12    2
    12    12    13    1
    13    13    14   ar
    14    14    15   ar
    15    15    16   ar
    16    16    17    1
    17    16    18   ar
    18    18    19    1
    19    19    20    1
    20    19    21    1
    21    21    22    2
    22    22    23    1
    23    22    24    1
    24    24    25    1
    25    25    26    1
    26    26    27    2
    27    26    28   am
    28    28    29    1
    29    28    30    1
    30    25    31    1
    31    31    32    1
    32    18    33   ar
    33     9    34   ar
    34    34    35   ar
    35    35     6   ar
    36    33    13   ar
    37    32    19    1
    38    32    25    1
    39     1    36    1
    40     1    37    1
    41     1    38    1
    42     4    39    1
    43     4    40    1
    44     7    41    1
    45    12    42    1
    46    14    43    1
    47    20    44    1
    48    20    45    1
    49    20    46    1
    50    23    47    1
    51    23    48    1
    52    29    49    1
    53    29    50    1
    54    29    51    1
    55    30    52    1
    56    30    53    1
    57    30    54    1
    58    31    55    1
    59    31    56    1
    60    32    57    1
    61    33    58    1
    62    34    59    1
