@<TRIPOS>MOLECULE
*****
 75 79 0 0 0
SMALL
GASTEIGER

@<TRIPOS>ATOM
      1 C           1.6098   -2.1701    2.9095 C.3     1  UNL1        0.0789
      2 O           0.7736   -1.3849    2.0847 O.3     1  UNL1       -0.4932
      3 C           1.3580   -0.7046    1.0185 C.ar    1  UNL1        0.1429
      4 C           2.7100   -0.8140    0.7952 C.ar    1  UNL1        0.0029
      5 C           3.3690   -0.1641   -0.2511 C.ar    1  UNL1        0.0334
      6 N           4.7683   -0.3369   -0.4318 N.pl3   1  UNL1       -0.3274
      7 C           5.5137    0.5343   -1.3054 C.3     1  UNL1        0.0250
      8 C           6.6810   -0.1525   -1.9959 C.3     1  UNL1        0.0148
      9 N           7.4596   -0.8713   -1.0414 N.3     1  UNL1       -0.2969
     10 C           8.0000    0.0254   -0.0620 C.3     1  UNL1        0.0248
     11 C           8.8455   -0.7243    0.9607 C.3     1  UNL1        0.0651
     12 C           9.3413    0.2873    1.9655 C.3     1  UNL1       -0.0377
     13 O           9.8834   -1.3468    0.2679 O.3     1  UNL1       -0.3908
     14 C           6.6456   -1.9190   -0.5023 C.3     1  UNL1        0.0148
     15 C           5.4543   -1.4127    0.2774 C.3     1  UNL1        0.0250
     16 C           2.5559    0.5996   -1.0462 C.ar    1  UNL1       -0.0387
     17 C           1.2023    0.7247   -0.8436 C.ar    1  UNL1       -0.0351
     18 C           0.5687    0.0913    0.1727 C.ar    1  UNL1        0.0759
     19 N          -0.8026    0.1521    0.4506 N.pl3   1  UNL1       -0.2795
     20 C          -1.7587    0.9119   -0.2756 C.ar    1  UNL1        0.2377
     21 N          -1.5241    1.7075   -1.3032 N.ar    1  UNL1       -0.2194
     22 C          -2.4986    2.3844   -1.9285 C.ar    1  UNL1        0.0566
     23 C          -3.8054    2.2450   -1.4808 C.ar    1  UNL1        0.0843
     24 C          -5.0058    2.7966   -1.9040 C.ar    1  UNL1       -0.0327
     25 C          -5.9733    2.2800   -1.0635 C.ar    1  UNL1       -0.0336
     26 C          -5.3990    1.4520   -0.1694 C.ar    1  UNL1        0.0752
     27 C          -5.9778    0.6491    0.8975 C.ar    1  UNL1        0.0230
     28 C          -5.4644    0.8500    2.2062 C.ar    1  UNL1       -0.0507
     29 C          -5.8941    0.1485    3.2915 C.ar    1  UNL1       -0.0610
     30 C          -6.8642   -0.7975    3.1358 C.ar    1  UNL1       -0.0599
     31 C          -7.3704   -1.0086    1.8936 C.ar    1  UNL1       -0.0385
     32 C          -6.9343   -0.2902    0.7591 C.ar    1  UNL1        0.0597
     33 N          -7.4963   -0.6269   -0.4909 N.pl3   1  UNL1       -0.2100
     34 C          -6.8304   -1.6994   -1.2470 C.3     1  UNL1        0.0232
     35 S          -8.8630    0.0759   -1.2147 S.O2    1  UNL1        0.0424
     36 C          -8.4544    0.8217   -2.7675 C.3     1  UNL1        0.0738
     37 O          -9.4110    1.1313   -0.2837 O.2     1  UNL1       -0.1553
     38 O          -9.9537   -0.9711   -1.4371 O.2     1  UNL1       -0.1553
     39 N          -4.0599    1.4499   -0.4500 N.ar    1  UNL1       -0.2274
     40 N          -3.0593    0.8102    0.1246 N.ar    1  UNL1       -0.1295
     41 H           1.0360   -2.7391    3.6637 H       1  UNL1        0.0660
     42 H           2.3417   -1.5357    3.4616 H       1  UNL1        0.0660
     43 H           2.2012   -2.8990    2.3190 H       1  UNL1        0.0660
     44 H           3.3356   -1.4246    1.4494 H       1  UNL1        0.0673
     45 H           5.8723    1.4490   -0.7504 H       1  UNL1        0.0476
     46 H           4.9032    0.9465   -2.1311 H       1  UNL1        0.0476
     47 H           6.2375   -0.8012   -2.7812 H       1  UNL1        0.0442
     48 H           7.2378    0.6520   -2.5206 H       1  UNL1        0.0442
     49 H           8.5927    0.7949   -0.5961 H       1  UNL1        0.0452
     50 H           7.2240    0.5642    0.5238 H       1  UNL1        0.0452
     51 H           8.1881   -1.4578    1.4593 H       1  UNL1        0.0603
     52 H           8.5875    0.3246    2.7833 H       1  UNL1        0.0255
     53 H           9.3826    1.2781    1.4828 H       1  UNL1        0.0255
     54 H          10.3512   -0.0024    2.3555 H       1  UNL1        0.0255
     55 H           9.8028   -1.1979   -0.7204 H       1  UNL1        0.2098
     56 H           7.1970   -2.6534    0.1042 H       1  UNL1        0.0442
     57 H           6.2173   -2.4764   -1.3874 H       1  UNL1        0.0442
     58 H           4.7964   -2.3038    0.4118 H       1  UNL1        0.0476
     59 H           5.7779   -1.1065    1.2934 H       1  UNL1        0.0476
     60 H           3.0099    1.1430   -1.8947 H       1  UNL1        0.0637
     61 H           0.6701    1.3455   -1.5280 H       1  UNL1        0.0638
     62 H          -1.1584   -0.4205    1.2788 H       1  UNL1        0.1552
     63 H          -2.2712    3.0252   -2.7643 H       1  UNL1        0.0852
     64 H          -5.1226    3.4866   -2.7281 H       1  UNL1        0.0640
     65 H          -7.0245    2.5693   -1.1636 H       1  UNL1        0.0640
     66 H          -4.6844    1.6173    2.2976 H       1  UNL1        0.0625
     67 H          -5.4835    0.3262    4.2644 H       1  UNL1        0.0618
     68 H          -7.2000   -1.3523    4.0219 H       1  UNL1        0.0618
     69 H          -8.1403   -1.7519    1.7359 H       1  UNL1        0.0637
     70 H          -7.6636   -2.3546   -1.6337 H       1  UNL1        0.0446
     71 H          -6.2552   -1.2601   -2.0949 H       1  UNL1        0.0446
     72 H          -6.2050   -2.3056   -0.5688 H       1  UNL1        0.0446
     73 H          -7.3832    0.6755   -2.9991 H       1  UNL1        0.0482
     74 H          -8.6995    1.9129   -2.7477 H       1  UNL1        0.0482
     75 H          -9.0107    0.3359   -3.6111 H       1  UNL1        0.0482
@<TRIPOS>BOND
     1     1     2    1
     2     2     3    1
     3     3     4   ar
     4     4     5   ar
     5     5     6    1
     6     6     7    1
     7     7     8    1
     8     8     9    1
     9     9    10    1
    10    10    11    1
    11    11    12    1
    12    11    13    1
    13     9    14    1
    14    14    15    1
    15     5    16   ar
    16    16    17   ar
    17    17    18   ar
    18    18    19    1
    19    19    20    1
    20    20    21   ar
    21    21    22   ar
    22    22    23   ar
    23    23    24   ar
    24    24    25   ar
    25    25    26   ar
    26    26    27    1
    27    27    28   ar
    28    28    29   ar
    29    29    30   ar
    30    30    31   ar
    31    31    32   ar
    32    32    33    1
    33    33    34    1
    34    33    35    1
    35    35    36    1
    36    35    37    2
    37    35    38    2
    38    26    39   ar
    39    39    40   ar
    40    18     3   ar
    41    40    20   ar
    42    15     6    1
    43    39    23   ar
    44    32    27   ar
    45     1    41    1
    46     1    42    1
    47     1    43    1
    48     4    44    1
    49     7    45    1
    50     7    46    1
    51     8    47    1
    52     8    48    1
    53    10    49    1
    54    10    50    1
    55    11    51    1
    56    12    52    1
    57    12    53    1
    58    12    54    1
    59    13    55    1
    60    14    56    1
    61    14    57    1
    62    15    58    1
    63    15    59    1
    64    16    60    1
    65    17    61    1
    66    19    62    1
    67    22    63    1
    68    24    64    1
    69    25    65    1
    70    28    66    1
    71    29    67    1
    72    30    68    1
    73    31    69    1
    74    34    70    1
    75    34    71    1
    76    34    72    1
    77    36    73    1
    78    36    74    1
    79    36    75    1
