
     RDKit          3D

 50 54  0  0  0  0  0  0  0  0999 V2000
    7.9300    1.9780   -1.6710 C   0  0  0  0  0  0  0  0  0  0  0  0
    6.5332    1.6152   -1.5582 N   0  0  0  0  0  0  0  0  0  0  0  0
    5.9592    0.7210   -0.6993 C   0  0  0  0  0  0  0  0  0  0  0  0
    4.6147    0.6748   -0.9213 C   0  0  0  0  0  0  0  0  0  0  0  0
    3.6544   -0.1595   -0.2060 C   0  0  0  0  0  0  0  0  0  0  0  0
    2.3098   -0.2182   -0.4144 N   0  0  0  0  0  0  0  0  0  0  0  0
    1.7574   -1.1011    0.4364 C   0  0  0  0  0  0  0  0  0  0  0  0
    0.4489   -1.5345    0.6438 C   0  0  0  0  0  0  0  0  0  0  0  0
   -0.5430   -0.9727   -0.1697 N   0  0  0  0  0  0  0  0  0  0  0  0
   -0.8950   -1.5775   -1.4203 C   0  0  0  0  0  0  0  0  0  0  0  0
   -2.3730   -1.7400   -1.5072 C   0  0  0  0  0  0  0  0  0  0  0  0
   -3.1242   -0.5472   -1.1539 N   0  0  0  0  0  0  0  0  0  0  0  0
   -4.2156   -0.8243   -0.2879 C   0  0  0  0  0  0  0  0  0  0  0  0
   -4.9439    0.4123    0.0467 C   0  0  0  0  0  0  0  0  0  0  0  0
   -4.6685    1.1686    1.1609 C   0  0  0  0  0  0  0  0  0  0  0  0
   -5.3630    2.3016    1.4332 C   0  0  0  0  0  0  0  0  0  0  0  0
   -6.3660    2.7106    0.5822 C   0  0  0  0  0  0  0  0  0  0  0  0
   -6.6534    1.9886   -0.5126 N   0  0  0  0  0  0  0  0  0  0  0  0
   -5.9723    0.8734   -0.7836 C   0  0  0  0  0  0  0  0  0  0  0  0
   -2.2928    0.5576   -0.8321 C   0  0  0  0  0  0  0  0  0  0  0  0
   -1.2481    0.2391    0.2143 C   0  0  0  0  0  0  0  0  0  0  0  0
    0.1779   -2.4636    1.6021 C   0  0  0  0  0  0  0  0  0  0  0  0
   -1.6094   -3.0337    1.8616 Br  0  0  0  0  0  0  0  0  0  0  0  0
    1.2370   -2.9446    2.3412 C   0  0  0  0  0  0  0  0  0  0  0  0
    2.5134   -2.5598    2.1803 N   0  0  0  0  0  0  0  0  0  0  0  0
    2.7670   -1.6273    1.2148 C   0  0  0  0  0  0  0  0  0  0  0  0
    3.8926   -1.0285    0.7900 N   0  0  0  0  0  0  0  0  0  0  0  0
    4.3790    1.5677   -1.9426 C   0  0  0  0  0  0  0  0  0  0  0  0
    5.5507    2.1011   -2.2870 N   0  0  0  0  0  0  0  0  0  0  0  0
    8.1657    2.9060   -1.1053 H   0  0  0  0  0  0  0  0  0  0  0  0
    8.2769    2.0405   -2.7219 H   0  0  0  0  0  0  0  0  0  0  0  0
    8.5283    1.1632   -1.1984 H   0  0  0  0  0  0  0  0  0  0  0  0
    6.5308    0.1612    0.0268 H   0  0  0  0  0  0  0  0  0  0  0  0
   -0.5837   -0.9000   -2.2578 H   0  0  0  0  0  0  0  0  0  0  0  0
   -0.4349   -2.5684   -1.5674 H   0  0  0  0  0  0  0  0  0  0  0  0
   -2.6150   -1.9236   -2.5958 H   0  0  0  0  0  0  0  0  0  0  0  0
   -2.7870   -2.5988   -0.9700 H   0  0  0  0  0  0  0  0  0  0  0  0
   -3.9281   -1.4077    0.6123 H   0  0  0  0  0  0  0  0  0  0  0  0
   -4.9427   -1.4576   -0.8736 H   0  0  0  0  0  0  0  0  0  0  0  0
   -3.8811    0.8414    1.8229 H   0  0  0  0  0  0  0  0  0  0  0  0
   -5.0975    2.8613    2.3356 H   0  0  0  0  0  0  0  0  0  0  0  0
   -6.9136    3.6204    0.8134 H   0  0  0  0  0  0  0  0  0  0  0  0
   -6.1906    0.2758   -1.6649 H   0  0  0  0  0  0  0  0  0  0  0  0
   -1.7710    0.8667   -1.7651 H   0  0  0  0  0  0  0  0  0  0  0  0
   -2.9013    1.3925   -0.4576 H   0  0  0  0  0  0  0  0  0  0  0  0
   -1.6518    0.1814    1.2273 H   0  0  0  0  0  0  0  0  0  0  0  0
   -0.5020    1.0608    0.1926 H   0  0  0  0  0  0  0  0  0  0  0  0
    0.9840   -3.6887    3.1013 H   0  0  0  0  0  0  0  0  0  0  0  0
    4.8255   -1.2154    1.1828 H   0  0  0  0  0  0  0  0  0  0  0  0
    3.4324    1.8118   -2.4004 H   0  0  0  0  0  0  0  0  0  0  0  0
  1  2  1  0
  2  3  1  0
  3  4  2  0
  4  5  1  0
  5  6  2  0
  6  7  1  0
  7  8  2  0
  8  9  1  0
  9 10  1  0
 10 11  1  0
 11 12  1  0
 12 13  1  0
 13 14  1  0
 14 15  2  0
 15 16  1  0
 16 17  2  0
 17 18  1  0
 18 19  2  0
 12 20  1  0
 20 21  1  0
  8 22  1  0
 22 23  1  0
 22 24  2  0
 24 25  1  0
 25 26  2  0
 26 27  1  0
  4 28  1  0
 28 29  2  0
 29  2  1  0
 27  5  1  0
 26  7  1  0
 21  9  1  0
 19 14  1  0
  1 30  1  0
  1 31  1  0
  1 32  1  0
  3 33  1  0
 10 34  1  0
 10 35  1  0
 11 36  1  0
 11 37  1  0
 13 38  1  0
 13 39  1  0
 15 40  1  0
 16 41  1  0
 17 42  1  0
 19 43  1  0
 20 44  1  0
 20 45  1  0
 21 46  1  0
 21 47  1  0
 24 48  1  0
 27 49  1  0
 28 50  1  0
M  END
$$$$
