@<TRIPOS>MOLECULE
*****
 50 54 0 0 0
SMALL
GASTEIGER

@<TRIPOS>ATOM
      1 C           7.9300    1.9780   -1.6710 C.3     1  UNL1        0.0302
      2 N           6.5332    1.6152   -1.5582 N.ar    1  UNL1       -0.2738
      3 C           5.9592    0.7210   -0.6993 C.ar    1  UNL1        0.0358
      4 C           4.6147    0.6748   -0.9213 C.ar    1  UNL1        0.0547
      5 C           3.6544   -0.1595   -0.2060 C.ar    1  UNL1        0.1434
      6 N           2.3098   -0.2182   -0.4144 N.ar    1  UNL1       -0.2241
      7 C           1.7574   -1.1011    0.4364 C.ar    1  UNL1        0.1304
      8 C           0.4489   -1.5345    0.6438 C.ar    1  UNL1        0.0748
      9 N          -0.5430   -0.9727   -0.1697 N.pl3   1  UNL1       -0.3248
     10 C          -0.8950   -1.5775   -1.4203 C.3     1  UNL1        0.0251
     11 C          -2.3730   -1.7400   -1.5072 C.3     1  UNL1        0.0150
     12 N          -3.1242   -0.5472   -1.1539 N.3     1  UNL1       -0.2951
     13 C          -4.2156   -0.8243   -0.2879 C.3     1  UNL1        0.0256
     14 C          -4.9439    0.4123    0.0467 C.ar    1  UNL1       -0.0153
     15 C          -4.6685    1.1686    1.1609 C.ar    1  UNL1       -0.0545
     16 C          -5.3630    2.3016    1.4332 C.ar    1  UNL1       -0.0433
     17 C          -6.3660    2.7106    0.5822 C.ar    1  UNL1        0.0276
     18 N          -6.6534    1.9886   -0.5126 N.ar    1  UNL1       -0.2629
     19 C          -5.9723    0.8734   -0.7836 C.ar    1  UNL1        0.0320
     20 C          -2.2928    0.5576   -0.8321 C.3     1  UNL1        0.0150
     21 C          -1.2481    0.2391    0.2143 C.3     1  UNL1        0.0251
     22 C           0.1779   -2.4636    1.6021 C.ar    1  UNL1        0.0591
     23 BR         -1.6094   -3.0337    1.8616 Br      1  UNL1       -0.0467
     24 C           1.2370   -2.9446    2.3412 C.ar    1  UNL1        0.0458
     25 N           2.5134   -2.5598    2.1803 N.ar    1  UNL1       -0.2347
     26 C           2.7670   -1.6273    1.2148 C.ar    1  UNL1        0.1600
     27 N           3.8926   -1.0285    0.7900 N.ar    1  UNL1       -0.3227
     28 C           4.3790    1.5677   -1.9426 C.ar    1  UNL1        0.0600
     29 N           5.5507    2.1011   -2.2870 N.ar    1  UNL1       -0.1792
     30 H           8.1657    2.9060   -1.1053 H       1  UNL1        0.0473
     31 H           8.2769    2.0405   -2.7219 H       1  UNL1        0.0473
     32 H           8.5283    1.1632   -1.1984 H       1  UNL1        0.0473
     33 H           6.5308    0.1612    0.0268 H       1  UNL1        0.0833
     34 H          -0.5837   -0.9000   -2.2578 H       1  UNL1        0.0476
     35 H          -0.4349   -2.5684   -1.5674 H       1  UNL1        0.0476
     36 H          -2.6150   -1.9236   -2.5958 H       1  UNL1        0.0442
     37 H          -2.7870   -2.5988   -0.9700 H       1  UNL1        0.0442
     38 H          -3.9281   -1.4077    0.6123 H       1  UNL1        0.0476
     39 H          -4.9427   -1.4576   -0.8736 H       1  UNL1        0.0476
     40 H          -3.8811    0.8414    1.8229 H       1  UNL1        0.0622
     41 H          -5.0975    2.8613    2.3356 H       1  UNL1        0.0633
     42 H          -6.9136    3.6204    0.8134 H       1  UNL1        0.0829
     43 H          -6.1906    0.2758   -1.6649 H       1  UNL1        0.0833
     44 H          -1.7710    0.8667   -1.7651 H       1  UNL1        0.0442
     45 H          -2.9013    1.3925   -0.4576 H       1  UNL1        0.0442
     46 H          -1.6518    0.1814    1.2273 H       1  UNL1        0.0476
     47 H          -0.5020    1.0608    0.1926 H       1  UNL1        0.0476
     48 H           0.9840   -3.6887    3.1013 H       1  UNL1        0.0842
     49 H           4.8255   -1.2154    1.1828 H       1  UNL1        0.1688
     50 H           3.4324    1.8118   -2.4004 H       1  UNL1        0.0855
@<TRIPOS>BOND
     1     1     2    1
     2     2     3   ar
     3     3     4   ar
     4     4     5    1
     5     5     6   ar
     6     6     7   ar
     7     7     8   ar
     8     8     9    1
     9     9    10    1
    10    10    11    1
    11    11    12    1
    12    12    13    1
    13    13    14    1
    14    14    15   ar
    15    15    16   ar
    16    16    17   ar
    17    17    18   ar
    18    18    19   ar
    19    12    20    1
    20    20    21    1
    21     8    22   ar
    22    22    23    1
    23    22    24   ar
    24    24    25   ar
    25    25    26   ar
    26    26    27   ar
    27     4    28   ar
    28    28    29   ar
    29    29     2   ar
    30    27     5   ar
    31    26     7   ar
    32    21     9    1
    33    19    14   ar
    34     1    30    1
    35     1    31    1
    36     1    32    1
    37     3    33    1
    38    10    34    1
    39    10    35    1
    40    11    36    1
    41    11    37    1
    42    13    38    1
    43    13    39    1
    44    15    40    1
    45    16    41    1
    46    17    42    1
    47    19    43    1
    48    20    44    1
    49    20    45    1
    50    21    46    1
    51    21    47    1
    52    24    48    1
    53    27    49    1
    54    28    50    1
