@<TRIPOS>MOLECULE
*****
 53 56 0 0 0
SMALL
GASTEIGER

@<TRIPOS>ATOM
      1 N          -3.3433   -4.2630   -1.0572 N.3     1  UNL1       -0.3300
      2 C          -3.1912   -3.7300    0.2881 C.3     1  UNL1       -0.0069
      3 C          -2.6746   -2.2840    0.2343 C.3     1  UNL1       -0.0395
      4 C          -1.3544   -2.2987   -0.4545 C.3     1  UNL1       -0.0390
      5 C          -0.6656   -0.9982   -0.6125 C.3     1  UNL1        0.0000
      6 N          -0.3304   -0.2743    0.5415 N.3     1  UNL1       -0.2868
      7 C           0.6565   -0.7640    1.4201 C.3     1  UNL1        0.0576
      8 C           2.0219   -0.9157    0.8563 C.ar    1  UNL1        0.1223
      9 N           2.6522   -1.9253    0.2331 N.ar    1  UNL1       -0.2312
     10 C           3.9191   -1.5492   -0.0869 C.ar    1  UNL1        0.0891
     11 C           4.9992   -2.1383   -0.7124 C.ar    1  UNL1       -0.0342
     12 C           6.2030   -1.4491   -0.8878 C.ar    1  UNL1       -0.0596
     13 C           6.3585   -0.1677   -0.4482 C.ar    1  UNL1       -0.0597
     14 C           5.2870    0.4525    0.1862 C.ar    1  UNL1       -0.0363
     15 C           4.1172   -0.2519    0.3431 C.ar    1  UNL1        0.0662
     16 N           2.9447    0.0911    0.9073 N.ar    1  UNL1       -0.3408
     17 C          -0.5175    1.1186    0.5031 C.3     1  UNL1        0.0534
     18 C           0.2083    1.8600   -0.5986 C.3     1  UNL1       -0.0314
     19 C           0.2652    3.3107   -0.2611 C.3     1  UNL1       -0.0472
     20 C          -0.6631    3.7411    0.8269 C.3     1  UNL1       -0.0259
     21 C          -1.9456    2.9987    0.6700 C.ar    1  UNL1       -0.0245
     22 C          -1.9092    1.6071    0.4979 C.ar    1  UNL1        0.0615
     23 N          -3.0675    0.9878    0.3649 N.ar    1  UNL1       -0.2580
     24 C          -4.2098    1.6916    0.3976 C.ar    1  UNL1        0.0279
     25 C          -4.3351    3.0456    0.5607 C.ar    1  UNL1       -0.0433
     26 C          -3.1330    3.7045    0.7008 C.ar    1  UNL1       -0.0554
     27 H          -3.9700   -5.1146   -0.9759 H       1  UNL1        0.1182
     28 H          -3.9340   -3.5601   -1.5767 H       1  UNL1        0.1182
     29 H          -4.1550   -3.8022    0.8324 H       1  UNL1        0.0422
     30 H          -2.4696   -4.3798    0.8196 H       1  UNL1        0.0422
     31 H          -2.6836   -1.9143    1.2570 H       1  UNL1        0.0278
     32 H          -3.3944   -1.6787   -0.3696 H       1  UNL1        0.0278
     33 H          -1.5633   -2.6737   -1.4991 H       1  UNL1        0.0278
     34 H          -0.7100   -3.1015   -0.0234 H       1  UNL1        0.0278
     35 H          -1.3577   -0.3478   -1.2242 H       1  UNL1        0.0427
     36 H           0.2013   -1.1605   -1.2894 H       1  UNL1        0.0427
     37 H           0.3006   -1.7014    1.8980 H       1  UNL1        0.0506
     38 H           0.7008   -0.0351    2.2835 H       1  UNL1        0.0506
     39 H           4.8729   -3.1576   -1.0608 H       1  UNL1        0.0639
     40 H           7.0376   -1.9251   -1.3788 H       1  UNL1        0.0618
     41 H           7.2471    0.4406   -0.5390 H       1  UNL1        0.0618
     42 H           5.3777    1.4734    0.5484 H       1  UNL1        0.0639
     43 H           2.7787    1.0490    1.3392 H       1  UNL1        0.1671
     44 H          -0.0518    1.5240    1.4578 H       1  UNL1        0.0528
     45 H          -0.3952    1.7238   -1.5404 H       1  UNL1        0.0284
     46 H           1.2066    1.4322   -0.8022 H       1  UNL1        0.0284
     47 H           0.0241    3.9364   -1.1654 H       1  UNL1        0.0269
     48 H           1.3181    3.6162   -0.0001 H       1  UNL1        0.0269
     49 H          -0.2568    3.5635    1.8459 H       1  UNL1        0.0314
     50 H          -0.8386    4.8171    0.7268 H       1  UNL1        0.0314
     51 H          -5.1025    1.0629    0.2758 H       1  UNL1        0.0829
     52 H          -5.3196    3.5209    0.5724 H       1  UNL1        0.0633
     53 H          -3.1557    4.7926    0.8358 H       1  UNL1        0.0621
@<TRIPOS>BOND
     1     1     2    1
     2     2     3    1
     3     3     4    1
     4     4     5    1
     5     5     6    1
     6     6     7    1
     7     7     8    1
     8     8     9   ar
     9     9    10   ar
    10    10    11   ar
    11    11    12   ar
    12    12    13   ar
    13    13    14   ar
    14    14    15   ar
    15    15    16   ar
    16     6    17    1
    17    17    18    1
    18    18    19    1
    19    19    20    1
    20    20    21    1
    21    21    22   ar
    22    22    23   ar
    23    23    24   ar
    24    24    25   ar
    25    25    26   ar
    26    16     8   ar
    27    22    17    1
    28    15    10   ar
    29    26    21   ar
    30     1    27    1
    31     1    28    1
    32     2    29    1
    33     2    30    1
    34     3    31    1
    35     3    32    1
    36     4    33    1
    37     4    34    1
    38     5    35    1
    39     5    36    1
    40     7    37    1
    41     7    38    1
    42    11    39    1
    43    12    40    1
    44    13    41    1
    45    14    42    1
    46    16    43    1
    47    17    44    1
    48    18    45    1
    49    18    46    1
    50    19    47    1
    51    19    48    1
    52    20    49    1
    53    20    50    1
    54    24    51    1
    55    25    52    1
    56    26    53    1
