@<TRIPOS>MOLECULE
*****
 42 44 0 0 0
SMALL
GASTEIGER

@<TRIPOS>ATOM
      1 C          -4.2687    1.3465   -0.0507 C.3     1  UNL1       -0.0402
      2 C          -3.2179    0.9944    0.9967 C.3     1  UNL1        0.0573
      3 C          -3.8929    0.0692    1.9879 C.3     1  UNL1       -0.0402
      4 C          -2.7656    2.2731    1.6229 C.3     1  UNL1       -0.0402
      5 N          -2.1266    0.2962    0.3303 N.ar    1  UNL1       -0.2444
      6 N          -0.8812    0.7205    0.3065 N.ar    1  UNL1       -0.1682
      7 C          -0.1169   -0.1630   -0.3990 C.ar    1  UNL1        0.1082
      8 C           1.3215   -0.0290   -0.6238 C.ar    1  UNL1        0.0216
      9 C           1.8912   -0.1089   -1.8636 C.ar    1  UNL1        0.0375
     10 N           3.2102   -0.0100   -2.0673 N.ar    1  UNL1       -0.2542
     11 C           4.0166    0.1768   -1.0133 C.ar    1  UNL1        0.0737
     12 C           5.3740    0.2784   -1.2260 C.ar    1  UNL1       -0.0005
     13 C           6.2241    0.4700   -0.1669 C.ar    1  UNL1        0.1254
     14 F           7.5415    0.5691   -0.3698 F       1  UNL1       -0.2054
     15 C           5.7071    0.5582    1.0970 C.ar    1  UNL1       -0.0258
     16 C           4.3532    0.4575    1.3160 C.ar    1  UNL1       -0.0498
     17 C           3.5024    0.2674    0.2709 C.ar    1  UNL1        0.0012
     18 C           2.1478    0.1660    0.4851 C.ar    1  UNL1       -0.0418
     19 C          -0.9158   -1.1872   -0.8359 C.ar    1  UNL1        0.1031
     20 C          -0.6374   -2.3843   -1.6003 C.2     1  UNL1        0.2470
     21 N           0.6372   -2.7930   -2.0579 N.am    1  UNL1       -0.3252
     22 O          -1.5957   -3.1442   -1.8936 O.2     1  UNL1       -0.2702
     23 C          -2.1814   -0.8425   -0.3444 C.ar    1  UNL1        0.1279
     24 N          -3.3855   -1.5902   -0.5256 N.pl3   1  UNL1       -0.3427
     25 H          -3.7037    1.6732   -0.9469 H       1  UNL1        0.0253
     26 H          -4.8041    0.4246   -0.2886 H       1  UNL1        0.0253
     27 H          -4.9233    2.1602    0.3206 H       1  UNL1        0.0253
     28 H          -4.8424   -0.3539    1.5959 H       1  UNL1        0.0253
     29 H          -3.2074   -0.7150    2.3674 H       1  UNL1        0.0253
     30 H          -4.1813    0.6780    2.8808 H       1  UNL1        0.0253
     31 H          -3.0245    3.1808    1.0238 H       1  UNL1        0.0253
     32 H          -3.2631    2.4069    2.5999 H       1  UNL1        0.0253
     33 H          -1.6443    2.3166    1.7238 H       1  UNL1        0.0253
     34 H           1.2313   -0.2409   -2.7196 H       1  UNL1        0.0836
     35 H           5.8066    0.2105   -2.2294 H       1  UNL1        0.0668
     36 H           6.3290    0.7099    1.9794 H       1  UNL1        0.0646
     37 H           3.9504    0.5296    2.3317 H       1  UNL1        0.0625
     38 H           1.7613    0.2373    1.4799 H       1  UNL1        0.0631
     39 H           1.3569   -3.2685   -1.4746 H       1  UNL1        0.1453
     40 H           0.8813   -2.6071   -3.0539 H       1  UNL1        0.1453
     41 H          -3.8622   -1.6110   -1.4633 H       1  UNL1        0.1437
     42 H          -3.8020   -2.1219    0.2706 H       1  UNL1        0.1437
@<TRIPOS>BOND
     1     1     2    1
     2     2     3    1
     3     2     4    1
     4     2     5    1
     5     5     6   ar
     6     6     7   ar
     7     7     8    1
     8     8     9   ar
     9     9    10   ar
    10    10    11   ar
    11    11    12   ar
    12    12    13   ar
    13    13    14    1
    14    13    15   ar
    15    15    16   ar
    16    16    17   ar
    17    17    18   ar
    18     7    19   ar
    19    19    20    1
    20    20    21   am
    21    20    22    2
    22    19    23   ar
    23    23    24    1
    24    23     5   ar
    25    18     8   ar
    26    17    11   ar
    27     1    25    1
    28     1    26    1
    29     1    27    1
    30     3    28    1
    31     3    29    1
    32     3    30    1
    33     4    31    1
    34     4    32    1
    35     4    33    1
    36     9    34    1
    37    12    35    1
    38    15    36    1
    39    16    37    1
    40    18    38    1
    41    21    39    1
    42    21    40    1
    43    24    41    1
    44    24    42    1
