@<TRIPOS>MOLECULE
*****
 111 115 0 0 0
SMALL
GASTEIGER

@<TRIPOS>ATOM
      1 C          -0.0233   -1.7466    0.3741 C.3     1  UNL1        0.1371
      2 O          -0.3937   -0.9533   -0.7369 O.3     1  UNL1       -0.3818
      3 C           1.4423   -1.6426    0.5949 C.2     1  UNL1        0.2127
      4 O           2.2476   -2.0504   -0.4508 O.2     1  UNL1       -0.4939
      5 N           1.9084   -1.1973    1.7001 N.2     1  UNL1       -0.2521
      6 C           3.3318   -1.1088    1.8828 C.3     1  UNL1        0.0515
      7 C           3.8529    0.2536    1.4999 C.3     1  UNL1        0.0426
      8 C           5.3243    0.2980    1.7047 C.2     1  UNL1        0.1842
      9 O           5.6800    0.0335    3.0344 O.2     1  UNL1       -0.4956
     10 N           6.3087    0.5364    0.8711 N.2     1  UNL1       -0.2539
     11 C           6.0198    0.8153   -0.5072 C.3     1  UNL1        0.0520
     12 C           7.0961    1.7022   -1.0769 C.3     1  UNL1        0.0138
     13 S           7.2277    3.2837   -0.2106 S.3     1  UNL1       -0.1495
     14 C           7.8264    3.0907    1.4784 C.3     1  UNL1        0.0693
     15 C           9.2516    2.6123    1.4757 C.2     1  UNL1        0.1926
     16 O           9.8005    2.4063    2.7320 O.2     1  UNL1       -0.4951
     17 N           9.8325    2.4367    0.3585 N.2     1  UNL1       -0.2538
     18 C          11.1646    1.9937    0.1449 C.3     1  UNL1        0.0471
     19 C          11.1623    0.8747   -0.8933 C.3     1  UNL1       -0.0060
     20 C          12.5604    0.4281   -1.1105 C.ar    1  UNL1       -0.0206
     21 C          13.3332    0.7508   -2.2163 C.ar    1  UNL1        0.0060
     22 N          14.5714    0.2040   -2.1459 N.ar    1  UNL1       -0.3604
     23 C          14.6119   -0.4808   -0.9890 C.ar    1  UNL1        0.0467
     24 C          15.6489   -1.2306   -0.4238 C.ar    1  UNL1       -0.0378
     25 C          15.4021   -1.8242    0.7793 C.ar    1  UNL1       -0.0598
     26 C          14.1947   -1.7071    1.4311 C.ar    1  UNL1       -0.0611
     27 C          13.1779   -0.9657    0.8663 C.ar    1  UNL1       -0.0523
     28 C          13.4007   -0.3560   -0.3477 C.ar    1  UNL1        0.0029
     29 C          -0.7880   -1.1714    1.5549 C.3     1  UNL1        0.0236
     30 C          -0.3650    0.2596    1.7141 C.3     1  UNL1       -0.0549
     31 C          -0.5997   -1.9864    2.8107 C.3     1  UNL1       -0.0549
     32 C          -2.2668   -1.1927    1.1969 C.3     1  UNL1        0.0670
     33 O          -2.7255   -2.4680    0.9405 O.3     1  UNL1       -0.2857
     34 P          -4.3725   -2.4524    0.4849 P.3     1  UNL1        0.4834
     35 O          -4.6427   -3.8456   -0.4340 O.3     1  UNL1       -0.3022
     36 O          -5.1777   -2.5611    1.7557 O.2     1  UNL1       -0.2269
     37 O          -4.6921   -1.0360   -0.3426 O.3     1  UNL1       -0.1861
     38 P          -5.2255   -1.2803   -1.9181 P.3     1  UNL1        0.4835
     39 O          -4.4918   -2.6650   -2.5945 O.3     1  UNL1       -0.3022
     40 O          -4.6874   -0.1067   -2.7416 O.2     1  UNL1       -0.2269
     41 O          -6.8922   -1.3582   -2.0632 O.3     1  UNL1       -0.2837
     42 C          -7.5583   -0.8137   -0.9512 C.3     1  UNL1        0.0879
     43 C          -9.0398   -0.9541   -1.2667 C.3     1  UNL1        0.1142
     44 O          -9.7400   -0.4291   -0.1955 O.3     1  UNL1       -0.3456
     45 C         -10.8353    0.2507   -0.7177 C.3     1  UNL1        0.1667
     46 N         -11.4112    1.1309    0.2610 N.ar    1  UNL1       -0.2855
     47 C         -10.9231    2.3288    0.6344 C.ar    1  UNL1        0.1004
     48 N         -11.7518    2.8496    1.5828 N.ar    1  UNL1       -0.2306
     49 C         -12.7455    1.9921    1.8023 C.ar    1  UNL1        0.1473
     50 C         -13.8644    1.9234    2.6047 C.ar    1  UNL1        0.1472
     51 N         -14.0853    3.0506    3.4703 N.pl3   1  UNL1       -0.3413
     52 N         -14.7330    0.9150    2.6360 N.ar    1  UNL1       -0.2188
     53 C         -14.4814   -0.1264    1.8009 C.ar    1  UNL1        0.1205
     54 N         -13.4017   -0.1293    0.9837 N.ar    1  UNL1       -0.2159
     55 C         -12.5319    0.9121    0.9719 C.ar    1  UNL1        0.1674
     56 C         -10.2021    0.9737   -1.8888 C.3     1  UNL1        0.1294
     57 O         -11.1696    1.4350   -2.7762 O.3     1  UNL1       -0.3846
     58 C          -9.3448   -0.1335   -2.4691 C.3     1  UNL1        0.1283
     59 O         -10.1027   -0.7672   -3.4421 O.3     1  UNL1       -0.2780
     60 P          -9.3923   -0.7192   -4.9645 P.3     1  UNL1        0.4728
     61 O          -9.7377   -2.1141   -5.8699 O.3     1  UNL1       -0.3026
     62 O          -7.7316   -0.4213   -4.9032 O.3     1  UNL1       -0.3026
     63 O          -9.9962    0.4471   -5.7149 O.2     1  UNL1       -0.2275
     64 H          -0.2845   -2.8094    0.2050 H       1  UNL1        0.0697
     65 H           0.1501   -1.3072   -1.4917 H       1  UNL1        0.2105
     66 H           3.1896   -1.6446   -0.5418 H       1  UNL1        0.2935
     67 H           3.8657   -1.9096    1.3580 H       1  UNL1        0.0514
     68 H           3.5880   -1.2452    2.9732 H       1  UNL1        0.0514
     69 H           3.5469    0.4953    0.4771 H       1  UNL1        0.0377
     70 H           3.3541    1.0145    2.1591 H       1  UNL1        0.0377
     71 H           6.6471   -0.1313    3.3062 H       1  UNL1        0.2934
     72 H           5.0336    1.3194   -0.6535 H       1  UNL1        0.0517
     73 H           5.9771   -0.1427   -1.0860 H       1  UNL1        0.0517
     74 H           6.9545    1.8523   -2.1636 H       1  UNL1        0.0394
     75 H           8.0731    1.1816   -0.9288 H       1  UNL1        0.0394
     76 H           7.2096    2.4310    2.1111 H       1  UNL1        0.0472
     77 H           7.8047    4.0956    1.9642 H       1  UNL1        0.0472
     78 H          10.6587    1.8522    2.8326 H       1  UNL1        0.2934
     79 H          11.6157    1.6216    1.0796 H       1  UNL1        0.0512
     80 H          11.8142    2.8255   -0.2357 H       1  UNL1        0.0512
     81 H          10.5792    0.0202   -0.5052 H       1  UNL1        0.0332
     82 H          10.7376    1.2227   -1.8429 H       1  UNL1        0.0332
     83 H          12.9812    1.3635   -3.0282 H       1  UNL1        0.0810
     84 H          15.3057    0.3377   -2.8969 H       1  UNL1        0.1653
     85 H          16.5873   -1.2841   -0.9950 H       1  UNL1        0.0638
     86 H          16.2508   -2.3911    1.1609 H       1  UNL1        0.0618
     87 H          14.0810   -2.2139    2.3897 H       1  UNL1        0.0618
     88 H          12.2293   -0.8662    1.3659 H       1  UNL1        0.0624
     89 H          -0.0221    0.4820    2.7663 H       1  UNL1        0.0237
     90 H          -1.2026    0.9629    1.4766 H       1  UNL1        0.0237
     91 H           0.4472    0.5447    0.9883 H       1  UNL1        0.0237
     92 H           0.2049   -1.5292    3.4561 H       1  UNL1        0.0237
     93 H          -1.5067   -2.0165    3.4425 H       1  UNL1        0.0237
     94 H          -0.3541   -3.0331    2.5240 H       1  UNL1        0.0237
     95 H          -2.8077   -0.7973    2.0940 H       1  UNL1        0.0572
     96 H          -2.4783   -0.5306    0.3365 H       1  UNL1        0.0572
     97 H          -3.8293   -4.1681   -0.8761 H       1  UNL1        0.2220
     98 H          -4.6899   -2.7048   -3.5631 H       1  UNL1        0.2220
     99 H          -7.2540   -1.3974   -0.0638 H       1  UNL1        0.0592
    100 H          -7.2406    0.2367   -0.8796 H       1  UNL1        0.0592
    101 H          -9.2293   -2.0364   -1.3967 H       1  UNL1        0.0647
    102 H         -11.5761   -0.4572   -1.1512 H       1  UNL1        0.0866
    103 H         -10.0345    2.8308    0.2747 H       1  UNL1        0.1030
    104 H         -14.9128    3.5904    3.7967 H       1  UNL1        0.1438
    105 H         -13.3791    3.6210    4.0083 H       1  UNL1        0.1438
    106 H         -15.1765   -0.9695    1.8039 H       1  UNL1        0.1048
    107 H          -9.5845    1.7946   -1.4706 H       1  UNL1        0.0666
    108 H         -11.4755    2.3067   -2.4242 H       1  UNL1        0.2101
    109 H          -8.4037    0.2915   -2.9248 H       1  UNL1        0.0656
    110 H         -10.4075   -2.6879   -5.4352 H       1  UNL1        0.2220
    111 H          -7.2930   -0.9753   -5.5678 H       1  UNL1        0.2220
@<TRIPOS>BOND
     1     1     2    1
     2     1     3    1
     3     3     4    1
     4     3     5    2
     5     5     6    1
     6     6     7    1
     7     7     8    1
     8     8     9    1
     9     8    10    2
    10    10    11    1
    11    11    12    1
    12    12    13    1
    13    13    14    1
    14    14    15    1
    15    15    16    1
    16    15    17    2
    17    17    18    1
    18    18    19    1
    19    19    20    1
    20    20    21   ar
    21    21    22   ar
    22    22    23   ar
    23    23    24   ar
    24    24    25   ar
    25    25    26   ar
    26    26    27   ar
    27    27    28   ar
    28     1    29    1
    29    29    30    1
    30    29    31    1
    31    29    32    1
    32    32    33    1
    33    33    34    1
    34    34    35    1
    35    34    36    2
    36    34    37    1
    37    37    38    1
    38    38    39    1
    39    38    40    2
    40    38    41    1
    41    41    42    1
    42    42    43    1
    43    43    44    1
    44    44    45    1
    45    45    46    1
    46    46    47   ar
    47    47    48   ar
    48    48    49   ar
    49    49    50   ar
    50    50    51    1
    51    50    52   ar
    52    52    53   ar
    53    53    54   ar
    54    54    55   ar
    55    45    56    1
    56    56    57    1
    57    56    58    1
    58    58    59    1
    59    59    60    1
    60    60    61    1
    61    60    62    1
    62    60    63    2
    63    28    20   ar
    64    58    43    1
    65    28    23   ar
    66    55    46   ar
    67    55    49   ar
    68     1    64    1
    69     2    65    1
    70     4    66    1
    71     6    67    1
    72     6    68    1
    73     7    69    1
    74     7    70    1
    75     9    71    1
    76    11    72    1
    77    11    73    1
    78    12    74    1
    79    12    75    1
    80    14    76    1
    81    14    77    1
    82    16    78    1
    83    18    79    1
    84    18    80    1
    85    19    81    1
    86    19    82    1
    87    21    83    1
    88    22    84    1
    89    24    85    1
    90    25    86    1
    91    26    87    1
    92    27    88    1
    93    30    89    1
    94    30    90    1
    95    30    91    1
    96    31    92    1
    97    31    93    1
    98    31    94    1
    99    32    95    1
   100    32    96    1
   101    35    97    1
   102    39    98    1
   103    42    99    1
   104    42   100    1
   105    43   101    1
   106    45   102    1
   107    47   103    1
   108    51   104    1
   109    51   105    1
   110    53   106    1
   111    56   107    1
   112    57   108    1
   113    58   109    1
   114    61   110    1
   115    62   111    1
