
     RDKit          3D

 40 42  0  0  0  0  0  0  0  0999 V2000
    3.2371   -0.7865   -1.0674 C   0  0  0  0  0  0  0  0  0  0  0  0
    3.2391    0.3633   -0.1827 N   0  0  0  0  0  0  0  0  0  0  0  0
    3.8310    1.4683   -0.8690 C   0  0  0  0  0  0  0  0  0  0  0  0
    1.8881    0.6529    0.2931 C   0  0  0  0  0  0  0  0  0  0  0  0
    1.4113   -0.4349    1.2118 C   0  0  0  0  0  0  0  0  0  0  0  0
    0.0200   -0.2451    1.7628 C   0  0  0  0  0  0  0  0  0  0  0  0
   -0.9971   -0.1550    0.7392 N   0  0  0  0  0  0  0  0  0  0  0  0
   -1.4037    1.0927    0.2085 C   0  0  0  0  0  0  0  0  0  0  0  0
   -0.8936    2.2842    0.6758 C   0  0  0  0  0  0  0  0  0  0  0  0
   -1.2287    3.5493    0.2415 C   0  0  0  0  0  0  0  0  0  0  0  0
   -2.1670    3.6615   -0.7605 C   0  0  0  0  0  0  0  0  0  0  0  0
   -2.7190    2.5244   -1.2750 C   0  0  0  0  0  0  0  0  0  0  0  0
   -2.3259    1.3144   -0.7830 C   0  0  0  0  0  0  0  0  0  0  0  0
   -3.1412   -0.0798   -1.5389 S   0  0  0  0  0  0  0  0  0  0  0  0
   -2.4888   -1.5232   -0.7202 C   0  0  0  0  0  0  0  0  0  0  0  0
   -1.5426   -1.3578    0.2628 C   0  0  0  0  0  0  0  0  0  0  0  0
   -1.1484   -2.5789    0.7648 C   0  0  0  0  0  0  0  0  0  0  0  0
   -1.6124   -3.8110    0.3670 C   0  0  0  0  0  0  0  0  0  0  0  0
   -1.0873   -5.3427    1.0327 Cl  0  0  0  0  0  0  0  0  0  0  0  0
   -2.5670   -3.8795   -0.6307 C   0  0  0  0  0  0  0  0  0  0  0  0
   -3.0077   -2.6943   -1.1802 C   0  0  0  0  0  0  0  0  0  0  0  0
    2.3786   -0.7698   -1.7632 H   0  0  0  0  0  0  0  0  0  0  0  0
    4.1383   -0.7947   -1.7168 H   0  0  0  0  0  0  0  0  0  0  0  0
    3.2912   -1.6924   -0.4405 H   0  0  0  0  0  0  0  0  0  0  0  0
    3.4366    1.6265   -1.9030 H   0  0  0  0  0  0  0  0  0  0  0  0
    3.8434    2.4046   -0.2703 H   0  0  0  0  0  0  0  0  0  0  0  0
    4.9118    1.2046   -1.0386 H   0  0  0  0  0  0  0  0  0  0  0  0
    2.0001    1.5741    0.9067 H   0  0  0  0  0  0  0  0  0  0  0  0
    1.2290    0.8277   -0.5625 H   0  0  0  0  0  0  0  0  0  0  0  0
    2.1013   -0.3805    2.1089 H   0  0  0  0  0  0  0  0  0  0  0  0
    1.5270   -1.4177    0.7039 H   0  0  0  0  0  0  0  0  0  0  0  0
   -0.2650   -1.0765    2.4565 H   0  0  0  0  0  0  0  0  0  0  0  0
    0.0966    0.6859    2.3857 H   0  0  0  0  0  0  0  0  0  0  0  0
   -0.1548    2.3307    1.4634 H   0  0  0  0  0  0  0  0  0  0  0  0
   -0.8120    4.4644    0.6290 H   0  0  0  0  0  0  0  0  0  0  0  0
   -2.4519    4.6380   -1.1219 H   0  0  0  0  0  0  0  0  0  0  0  0
   -3.4466    2.6594   -2.0565 H   0  0  0  0  0  0  0  0  0  0  0  0
   -0.4072   -2.7086    1.5340 H   0  0  0  0  0  0  0  0  0  0  0  0
   -2.9590   -4.8231   -0.9731 H   0  0  0  0  0  0  0  0  0  0  0  0
   -3.7532   -2.7749   -1.9573 H   0  0  0  0  0  0  0  0  0  0  0  0
  1  2  1  0
  2  3  1  0
  2  4  1  0
  4  5  1  0
  5  6  1  0
  6  7  1  0
  7  8  1  0
  8  9  2  0
  9 10  1  0
 10 11  2  0
 11 12  1  0
 12 13  2  0
 13 14  1  0
 14 15  1  0
 15 16  2  0
 16 17  1  0
 17 18  2  0
 18 19  1  0
 18 20  1  0
 20 21  2  0
 16  7  1  0
 13  8  1  0
 21 15  1  0
  1 22  1  0
  1 23  1  0
  1 24  1  0
  3 25  1  0
  3 26  1  0
  3 27  1  0
  4 28  1  0
  4 29  1  0
  5 30  1  0
  5 31  1  0
  6 32  1  0
  6 33  1  0
  9 34  1  0
 10 35  1  0
 11 36  1  0
 12 37  1  0
 17 38  1  0
 20 39  1  0
 21 40  1  0
M  END
$$$$
