@<TRIPOS>MOLECULE
*****
 53 58 0 0 0
SMALL
GASTEIGER

@<TRIPOS>ATOM
      1 C          -4.6318    0.8613   -1.2101 C.3     1  UNL1       -0.0361
      2 C          -3.6609    0.5407   -0.1337 C.ar    1  UNL1       -0.0041
      3 C          -2.3554    0.2240   -0.4419 C.ar    1  UNL1       -0.0324
      4 C          -1.4578   -0.0709    0.5449 C.ar    1  UNL1        0.0545
      5 N          -0.0774   -0.3999    0.2336 N.am    1  UNL1       -0.2531
      6 C           0.3727   -1.7125   -0.0557 C.2     1  UNL1        0.2700
      7 O          -0.3413   -2.7551   -0.1142 O.2     1  UNL1       -0.2679
      8 C           1.8040   -1.6752   -0.2783 C.ar    1  UNL1        0.1297
      9 C           2.2013   -0.3776   -0.1285 C.ar    1  UNL1        0.0330
     10 C           3.5987   -0.3028   -0.3316 C.ar    1  UNL1        0.0943
     11 C           4.4050    0.9458   -0.2524 C.3     1  UNL1        0.0883
     12 O           4.2238    1.7347   -1.3974 O.3     1  UNL1       -0.3888
     13 N           3.9767   -1.5428   -0.5921 N.ar    1  UNL1       -0.1726
     14 N           2.9319   -2.3894   -0.5689 N.ar    1  UNL1       -0.2555
     15 C           2.9831   -3.7913   -0.8054 C.3     1  UNL1        0.0537
     16 C           1.9667   -4.5826   -1.5068 C.3     1  UNL1       -0.0285
     17 C           2.1971   -4.8028   -0.0805 C.3     1  UNL1       -0.0285
     18 C           1.0410    0.4568    0.1778 C.3     1  UNL1        0.0855
     19 C           0.9138    1.6410   -0.6531 C.ar    1  UNL1       -0.0221
     20 C           1.2934    2.8673   -0.1754 C.ar    1  UNL1       -0.0551
     21 C           1.1873    4.0228   -0.9646 C.ar    1  UNL1       -0.0431
     22 C           0.6917    3.9284   -2.2480 C.ar    1  UNL1        0.0410
     23 CL          0.5659    5.3841   -3.2217 Cl      1  UNL1       -0.0835
     24 C           0.3123    2.6992   -2.7238 C.ar    1  UNL1       -0.0431
     25 C           0.4210    1.5480   -1.9297 C.ar    1  UNL1       -0.0551
     26 C          -1.9064   -0.0392    1.8441 C.ar    1  UNL1        0.0344
     27 N          -3.2038    0.2766    2.1307 N.ar    1  UNL1       -0.2846
     28 C          -3.8621    0.3711    3.2961 C.ar    1  UNL1        0.1347
     29 C          -3.2089    0.1171    4.6214 C.3     1  UNL1       -0.0041
     30 N          -5.1445    0.7160    3.0732 N.ar    1  UNL1       -0.1340
     31 N          -5.2788    0.8352    1.7646 N.ar    1  UNL1       -0.1292
     32 C          -4.1069    0.5710    1.1774 C.ar    1  UNL1        0.1641
     33 H          -4.6851    0.0456   -1.9583 H       1  UNL1        0.0279
     34 H          -5.6564    0.9708   -0.8011 H       1  UNL1        0.0279
     35 H          -4.3852    1.8402   -1.6934 H       1  UNL1        0.0279
     36 H          -2.0746    0.2133   -1.4763 H       1  UNL1        0.0640
     37 H           5.4843    0.6147   -0.3002 H       1  UNL1        0.0623
     38 H           4.2880    1.4940    0.6803 H       1  UNL1        0.0623
     39 H           3.4871    1.3500   -1.9694 H       1  UNL1        0.2099
     40 H           4.0421   -4.1478   -1.0332 H       1  UNL1        0.0545
     41 H           1.1501   -4.0279   -1.9656 H       1  UNL1        0.0286
     42 H           2.2924   -5.4192   -2.2043 H       1  UNL1        0.0286
     43 H           2.6947   -5.7853    0.2007 H       1  UNL1        0.0286
     44 H           1.5293   -4.5001    0.7408 H       1  UNL1        0.0286
     45 H           1.1753    0.8409    1.2563 H       1  UNL1        0.0606
     46 H           1.6924    3.0394    0.8151 H       1  UNL1        0.0621
     47 H           1.4798    4.9977   -0.6101 H       1  UNL1        0.0632
     48 H          -0.0743    2.6318   -3.7273 H       1  UNL1        0.0632
     49 H           0.0951    0.6327   -2.4021 H       1  UNL1        0.0621
     50 H          -1.2325   -0.2644    2.6395 H       1  UNL1        0.0833
     51 H          -2.5007   -0.7089    4.4842 H       1  UNL1        0.0308
     52 H          -2.6642    1.0318    4.9082 H       1  UNL1        0.0308
     53 H          -3.9889   -0.1483    5.3664 H       1  UNL1        0.0308
@<TRIPOS>BOND
     1     1     2    1
     2     2     3   ar
     3     3     4   ar
     4     4     5    1
     5     5     6   am
     6     6     7    2
     7     6     8    1
     8     8     9   ar
     9     9    10   ar
    10    10    11    1
    11    11    12    1
    12    10    13   ar
    13    13    14   ar
    14    14    15    1
    15    15    16    1
    16    16    17    1
    17     9    18    1
    18    18    19    1
    19    19    20   ar
    20    20    21   ar
    21    21    22   ar
    22    22    23    1
    23    22    24   ar
    24    24    25   ar
    25     4    26   ar
    26    26    27   ar
    27    27    28   ar
    28    28    29    1
    29    28    30   ar
    30    30    31   ar
    31    31    32   ar
    32    32     2   ar
    33    18     5    1
    34    25    19   ar
    35    32    27   ar
    36    14     8   ar
    37    17    15    1
    38     1    33    1
    39     1    34    1
    40     1    35    1
    41     3    36    1
    42    11    37    1
    43    11    38    1
    44    12    39    1
    45    15    40    1
    46    16    41    1
    47    16    42    1
    48    17    43    1
    49    17    44    1
    50    18    45    1
    51    20    46    1
    52    21    47    1
    53    24    48    1
    54    25    49    1
    55    26    50    1
    56    29    51    1
    57    29    52    1
    58    29    53    1
