
     RDKit          3D

 75 78  0  0  0  0  0  0  0  0999 V2000
   -6.9225    2.6572    2.1792 C   0  0  0  0  0  0  0  0  0  0  0  0
   -7.4067    1.5179    1.4989 O   0  0  0  0  0  0  0  0  0  0  0  0
   -6.5227    0.5225    1.1081 C   0  0  0  0  0  0  0  0  0  0  0  0
   -5.1695    0.6504    1.3860 C   0  0  0  0  0  0  0  0  0  0  0  0
   -4.2619   -0.3442    0.9990 C   0  0  0  0  0  0  0  0  0  0  0  0
   -4.7005   -1.4618    0.3376 C   0  0  0  0  0  0  0  0  0  0  0  0
   -3.7782   -2.5290   -0.1035 C   0  0  0  0  0  0  0  0  0  0  0  0
   -3.2668   -2.2701   -1.5083 C   0  0  0  0  0  0  0  0  0  0  0  0
   -2.5433   -1.0328   -1.6017 N   0  0  0  0  0  0  0  0  0  0  0  0
   -1.3226   -0.8333   -0.9036 C   0  0  0  0  0  0  0  0  0  0  0  0
   -0.8210   -1.8523   -0.1875 N   0  0  0  0  0  0  0  0  0  0  0  0
    0.3187   -1.7723    0.5041 C   0  0  0  0  0  0  0  0  0  0  0  0
    1.0391   -0.5624    0.4887 C   0  0  0  0  0  0  0  0  0  0  0  0
    2.2779   -0.4529    1.2377 C   0  0  0  0  0  0  0  0  0  0  0  0
    2.9851    0.5910    1.3286 O   0  0  0  0  0  0  0  0  0  0  0  0
    2.8530   -1.5521    1.9783 N   0  0  0  0  0  0  0  0  0  0  0  0
    4.0898   -1.4248    2.7184 C   0  0  0  0  0  0  0  0  0  0  0  0
    5.2527   -1.0467    1.8645 C   0  0  0  0  0  0  0  0  0  0  0  0
    5.5225   -2.0663    0.7699 C   0  0  0  0  0  0  0  0  0  0  0  0
    6.6578   -1.6613   -0.0390 N   0  0  0  0  0  0  0  0  0  0  0  0
    8.0383   -2.0273    0.2404 C   0  0  0  0  0  0  0  0  0  0  0  0
    8.7121   -1.9626   -1.1048 C   0  0  0  0  0  0  0  0  0  0  0  0
    7.8613   -1.0607   -1.9620 C   0  0  0  0  0  0  0  0  0  0  0  0
    6.5997   -0.8589   -1.2069 C   0  0  0  0  0  0  0  0  0  0  0  0
    5.6777   -0.0970   -1.5866 O   0  0  0  0  0  0  0  0  0  0  0  0
    0.5498    0.4826   -0.2291 C   0  0  0  0  0  0  0  0  0  0  0  0
    1.1920    1.7280   -0.3109 N   0  0  0  0  0  0  0  0  0  0  0  0
    0.5447    2.7675   -1.1136 C   0  0  0  0  0  0  0  0  0  0  0  0
    1.3289    4.0523   -1.1246 C   0  0  0  0  0  0  0  0  0  0  0  0
    0.2957    5.0463   -1.6331 C   0  0  0  0  0  0  0  0  0  0  0  0
   -1.0457    4.4983   -1.1838 C   0  0  0  0  0  0  0  0  0  0  0  0
   -0.7600    3.1993   -0.4619 C   0  0  0  0  0  0  0  0  0  0  0  0
   -0.6380    0.2963   -0.9099 N   0  0  0  0  0  0  0  0  0  0  0  0
   -6.0393   -1.6128    0.0501 C   0  0  0  0  0  0  0  0  0  0  0  0
   -6.9269   -0.6123    0.4432 C   0  0  0  0  0  0  0  0  0  0  0  0
   -8.2841   -0.7514    0.1586 O   0  0  0  0  0  0  0  0  0  0  0  0
   -8.7875   -1.8889   -0.5113 C   0  0  0  0  0  0  0  0  0  0  0  0
   -6.2173    3.2514    1.5326 H   0  0  0  0  0  0  0  0  0  0  0  0
   -6.3767    2.3042    3.0889 H   0  0  0  0  0  0  0  0  0  0  0  0
   -7.7591    3.2969    2.5194 H   0  0  0  0  0  0  0  0  0  0  0  0
   -4.8365    1.5228    1.9010 H   0  0  0  0  0  0  0  0  0  0  0  0
   -3.2104   -0.2581    1.2094 H   0  0  0  0  0  0  0  0  0  0  0  0
   -2.9457   -2.5673    0.5966 H   0  0  0  0  0  0  0  0  0  0  0  0
   -4.3095   -3.5059   -0.1357 H   0  0  0  0  0  0  0  0  0  0  0  0
   -4.0553   -2.3783   -2.2577 H   0  0  0  0  0  0  0  0  0  0  0  0
   -2.5312   -3.0945   -1.7273 H   0  0  0  0  0  0  0  0  0  0  0  0
   -2.9163   -0.2620   -2.1907 H   0  0  0  0  0  0  0  0  0  0  0  0
    0.7090   -2.6014    1.0770 H   0  0  0  0  0  0  0  0  0  0  0  0
    2.3741   -2.4581    1.9833 H   0  0  0  0  0  0  0  0  0  0  0  0
    4.3330   -2.3762    3.2294 H   0  0  0  0  0  0  0  0  0  0  0  0
    4.0234   -0.6557    3.5314 H   0  0  0  0  0  0  0  0  0  0  0  0
    6.1623   -1.1011    2.5335 H   0  0  0  0  0  0  0  0  0  0  0  0
    5.2272   -0.0142    1.5036 H   0  0  0  0  0  0  0  0  0  0  0  0
    4.6188   -2.0894    0.1290 H   0  0  0  0  0  0  0  0  0  0  0  0
    5.6661   -3.0505    1.2476 H   0  0  0  0  0  0  0  0  0  0  0  0
    8.4684   -1.2354    0.8664 H   0  0  0  0  0  0  0  0  0  0  0  0
    8.1495   -3.0431    0.6352 H   0  0  0  0  0  0  0  0  0  0  0  0
    8.7743   -2.9420   -1.6151 H   0  0  0  0  0  0  0  0  0  0  0  0
    9.7340   -1.5446   -1.0685 H   0  0  0  0  0  0  0  0  0  0  0  0
    7.6714   -1.5085   -2.9607 H   0  0  0  0  0  0  0  0  0  0  0  0
    8.3240   -0.0741   -2.1497 H   0  0  0  0  0  0  0  0  0  0  0  0
    2.0592    1.9835    0.1269 H   0  0  0  0  0  0  0  0  0  0  0  0
    0.3187    2.4390   -2.1332 H   0  0  0  0  0  0  0  0  0  0  0  0
    2.2448    4.0294   -1.7130 H   0  0  0  0  0  0  0  0  0  0  0  0
    1.4989    4.3441   -0.0504 H   0  0  0  0  0  0  0  0  0  0  0  0
    0.4881    6.0710   -1.2453 H   0  0  0  0  0  0  0  0  0  0  0  0
    0.3298    5.0276   -2.7411 H   0  0  0  0  0  0  0  0  0  0  0  0
   -1.5906    5.2181   -0.5425 H   0  0  0  0  0  0  0  0  0  0  0  0
   -1.7008    4.2602   -2.0480 H   0  0  0  0  0  0  0  0  0  0  0  0
   -1.5616    2.4630   -0.5747 H   0  0  0  0  0  0  0  0  0  0  0  0
   -0.5131    3.4252    0.5947 H   0  0  0  0  0  0  0  0  0  0  0  0
   -6.4095   -2.4918   -0.4736 H   0  0  0  0  0  0  0  0  0  0  0  0
   -8.4737   -1.9791   -1.5509 H   0  0  0  0  0  0  0  0  0  0  0  0
   -9.9029   -1.8997   -0.4440 H   0  0  0  0  0  0  0  0  0  0  0  0
   -8.4645   -2.7804    0.0933 H   0  0  0  0  0  0  0  0  0  0  0  0
  1  2  1  0
  2  3  1  0
  3  4  2  0
  4  5  1  0
  5  6  2  0
  6  7  1  0
  7  8  1  0
  8  9  1  0
  9 10  1  0
 10 11  2  0
 11 12  1  0
 12 13  2  0
 13 14  1  0
 14 15  2  0
 14 16  1  0
 16 17  1  0
 17 18  1  0
 18 19  1  0
 19 20  1  0
 20 21  1  0
 21 22  1  0
 22 23  1  0
 23 24  1  0
 24 25  2  0
 13 26  1  0
 26 27  1  0
 27 28  1  0
 28 29  1  0
 29 30  1  0
 30 31  1  0
 31 32  1  0
 26 33  2  0
  6 34  1  0
 34 35  2  0
 35 36  1  0
 36 37  1  0
 35  3  1  0
 33 10  1  0
 24 20  1  0
 32 28  1  0
  1 38  1  0
  1 39  1  0
  1 40  1  0
  4 41  1  0
  5 42  1  0
  7 43  1  0
  7 44  1  0
  8 45  1  0
  8 46  1  0
  9 47  1  0
 12 48  1  0
 16 49  1  0
 17 50  1  0
 17 51  1  0
 18 52  1  0
 18 53  1  0
 19 54  1  0
 19 55  1  0
 21 56  1  0
 21 57  1  0
 22 58  1  0
 22 59  1  0
 23 60  1  0
 23 61  1  0
 27 62  1  0
 28 63  1  0
 29 64  1  0
 29 65  1  0
 30 66  1  0
 30 67  1  0
 31 68  1  0
 31 69  1  0
 32 70  1  0
 32 71  1  0
 34 72  1  0
 37 73  1  0
 37 74  1  0
 37 75  1  0
M  END
$$$$
