@<TRIPOS>MOLECULE
*****
 75 78 0 0 0
SMALL
GASTEIGER

@<TRIPOS>ATOM
      1 C          -6.9225    2.6572    2.1792 C.3     1  UNL1        0.0790
      2 O          -7.4067    1.5179    1.4989 O.3     1  UNL1       -0.4915
      3 C          -6.5227    0.5225    1.1081 C.ar    1  UNL1        0.1615
      4 C          -5.1695    0.6504    1.3860 C.ar    1  UNL1       -0.0160
      5 C          -4.2619   -0.3442    0.9990 C.ar    1  UNL1       -0.0548
      6 C          -4.7005   -1.4618    0.3376 C.ar    1  UNL1       -0.0422
      7 C          -3.7782   -2.5290   -0.1035 C.3     1  UNL1       -0.0119
      8 C          -3.2668   -2.2701   -1.5083 C.3     1  UNL1        0.0158
      9 N          -2.5433   -1.0328   -1.6017 N.pl3   1  UNL1       -0.3131
     10 C          -1.3226   -0.8333   -0.9036 C.ar    1  UNL1        0.2169
     11 N          -0.8210   -1.8523   -0.1875 N.ar    1  UNL1       -0.2221
     12 C           0.3187   -1.7723    0.5041 C.ar    1  UNL1        0.0466
     13 C           1.0391   -0.5624    0.4887 C.ar    1  UNL1        0.0945
     14 C           2.2779   -0.4529    1.2377 C.2     1  UNL1        0.2489
     15 O           2.9851    0.5910    1.3286 O.2     1  UNL1       -0.2700
     16 N           2.8530   -1.5521    1.9783 N.am    1  UNL1       -0.3112
     17 C           4.0898   -1.4248    2.7184 C.3     1  UNL1        0.0133
     18 C           5.2527   -1.0467    1.8645 C.3     1  UNL1       -0.0215
     19 C           5.5225   -2.0663    0.7699 C.3     1  UNL1        0.0161
     20 N           6.6578   -1.6613   -0.0390 N.am    1  UNL1       -0.3014
     21 C           8.0383   -2.0273    0.2404 C.3     1  UNL1        0.0151
     22 C           8.7121   -1.9626   -1.1048 C.3     1  UNL1       -0.0289
     23 C           7.8613   -1.0607   -1.9620 C.3     1  UNL1        0.0256
     24 C           6.5997   -0.8589   -1.2069 C.2     1  UNL1        0.2156
     25 O           5.6777   -0.0970   -1.5866 O.2     1  UNL1       -0.2756
     26 C           0.5498    0.4826   -0.2291 C.ar    1  UNL1        0.1362
     27 N           1.1920    1.7280   -0.3109 N.pl3   1  UNL1       -0.3255
     28 C           0.5447    2.7675   -1.1136 C.3     1  UNL1        0.0220
     29 C           1.3289    4.0523   -1.1246 C.3     1  UNL1       -0.0345
     30 C           0.2957    5.0463   -1.6331 C.3     1  UNL1       -0.0513
     31 C          -1.0457    4.4983   -1.1838 C.3     1  UNL1       -0.0513
     32 C          -0.7600    3.1993   -0.4619 C.3     1  UNL1       -0.0345
     33 N          -0.6380    0.2963   -0.9099 N.ar    1  UNL1       -0.1990
     34 C          -6.0393   -1.6128    0.0501 C.ar    1  UNL1       -0.0131
     35 C          -6.9269   -0.6123    0.4432 C.ar    1  UNL1        0.1617
     36 O          -8.2841   -0.7514    0.1586 O.3     1  UNL1       -0.4914
     37 C          -8.7875   -1.8889   -0.5113 C.3     1  UNL1        0.0790
     38 H          -6.2173    3.2514    1.5326 H       1  UNL1        0.0660
     39 H          -6.3767    2.3042    3.0889 H       1  UNL1        0.0660
     40 H          -7.7591    3.2969    2.5194 H       1  UNL1        0.0660
     41 H          -4.8365    1.5228    1.9010 H       1  UNL1        0.0655
     42 H          -3.2104   -0.2581    1.2094 H       1  UNL1        0.0621
     43 H          -2.9457   -2.5673    0.5966 H       1  UNL1        0.0328
     44 H          -4.3095   -3.5059   -0.1357 H       1  UNL1        0.0328
     45 H          -4.0553   -2.3783   -2.2577 H       1  UNL1        0.0465
     46 H          -2.5312   -3.0945   -1.7273 H       1  UNL1        0.0465
     47 H          -2.9163   -0.2620   -2.1907 H       1  UNL1        0.1489
     48 H           0.7090   -2.6014    1.0770 H       1  UNL1        0.0839
     49 H           2.3741   -2.4581    1.9833 H       1  UNL1        0.1490
     50 H           4.3330   -2.3762    3.2294 H       1  UNL1        0.0462
     51 H           4.0234   -0.6557    3.5314 H       1  UNL1        0.0462
     52 H           6.1623   -1.1011    2.5335 H       1  UNL1        0.0295
     53 H           5.2272   -0.0142    1.5036 H       1  UNL1        0.0295
     54 H           4.6188   -2.0894    0.1290 H       1  UNL1        0.0465
     55 H           5.6661   -3.0505    1.2476 H       1  UNL1        0.0465
     56 H           8.4684   -1.2354    0.8664 H       1  UNL1        0.0465
     57 H           8.1495   -3.0431    0.6352 H       1  UNL1        0.0465
     58 H           8.7743   -2.9420   -1.6151 H       1  UNL1        0.0285
     59 H           9.7340   -1.5446   -1.0685 H       1  UNL1        0.0285
     60 H           7.6714   -1.5085   -2.9607 H       1  UNL1        0.0359
     61 H           8.3240   -0.0741   -2.1497 H       1  UNL1        0.0359
     62 H           2.0592    1.9835    0.1269 H       1  UNL1        0.1478
     63 H           0.3187    2.4390   -2.1332 H       1  UNL1        0.0498
     64 H           2.2448    4.0294   -1.7130 H       1  UNL1        0.0283
     65 H           1.4989    4.3441   -0.0504 H       1  UNL1        0.0283
     66 H           0.4881    6.0710   -1.2453 H       1  UNL1        0.0266
     67 H           0.3298    5.0276   -2.7411 H       1  UNL1        0.0266
     68 H          -1.5906    5.2181   -0.5425 H       1  UNL1        0.0266
     69 H          -1.7008    4.2602   -2.0480 H       1  UNL1        0.0266
     70 H          -1.5616    2.4630   -0.5747 H       1  UNL1        0.0283
     71 H          -0.5131    3.4252    0.5947 H       1  UNL1        0.0283
     72 H          -6.4095   -2.4918   -0.4736 H       1  UNL1        0.0658
     73 H          -8.4737   -1.9791   -1.5509 H       1  UNL1        0.0660
     74 H          -9.9029   -1.8997   -0.4440 H       1  UNL1        0.0660
     75 H          -8.4645   -2.7804    0.0933 H       1  UNL1        0.0660
@<TRIPOS>BOND
     1     1     2    1
     2     2     3    1
     3     3     4   ar
     4     4     5   ar
     5     5     6   ar
     6     6     7    1
     7     7     8    1
     8     8     9    1
     9     9    10    1
    10    10    11   ar
    11    11    12   ar
    12    12    13   ar
    13    13    14    1
    14    14    15    2
    15    14    16   am
    16    16    17    1
    17    17    18    1
    18    18    19    1
    19    19    20    1
    20    20    21    1
    21    21    22    1
    22    22    23    1
    23    23    24    1
    24    24    25    2
    25    13    26   ar
    26    26    27    1
    27    27    28    1
    28    28    29    1
    29    29    30    1
    30    30    31    1
    31    31    32    1
    32    26    33   ar
    33     6    34   ar
    34    34    35   ar
    35    35    36    1
    36    36    37    1
    37    35     3   ar
    38    33    10   ar
    39    24    20   am
    40    32    28    1
    41     1    38    1
    42     1    39    1
    43     1    40    1
    44     4    41    1
    45     5    42    1
    46     7    43    1
    47     7    44    1
    48     8    45    1
    49     8    46    1
    50     9    47    1
    51    12    48    1
    52    16    49    1
    53    17    50    1
    54    17    51    1
    55    18    52    1
    56    18    53    1
    57    19    54    1
    58    19    55    1
    59    21    56    1
    60    21    57    1
    61    22    58    1
    62    22    59    1
    63    23    60    1
    64    23    61    1
    65    27    62    1
    66    28    63    1
    67    29    64    1
    68    29    65    1
    69    30    66    1
    70    30    67    1
    71    31    68    1
    72    31    69    1
    73    32    70    1
    74    32    71    1
    75    34    72    1
    76    37    73    1
    77    37    74    1
    78    37    75    1
