
     RDKit          3D

 70 74  0  0  0  0  0  0  0  0999 V2000
    9.1079    3.0060    1.8088 C   0  0  0  0  0  0  0  0  0  0  0  0
    8.0767    2.2683    1.2280 O   0  0  0  0  0  0  0  0  0  0  0  0
    8.2648    1.1902    0.3931 C   0  0  0  0  0  0  0  0  0  0  0  0
    9.4699    0.7133    0.0333 N   0  0  0  0  0  0  0  0  0  0  0  0
    9.3364   -0.3177   -0.7677 N   0  0  0  0  0  0  0  0  0  0  0  0
   10.4126   -1.0845   -1.3536 C   0  0  0  0  0  0  0  0  0  0  0  0
    8.0071   -0.5284   -0.9423 C   0  0  0  0  0  0  0  0  0  0  0  0
    7.2921    0.4035   -0.2254 C   0  0  0  0  0  0  0  0  0  0  0  0
    5.9040    0.6060   -0.0779 N   0  0  0  0  0  0  0  0  0  0  0  0
    4.9114   -0.1918   -0.7114 C   0  0  0  0  0  0  0  0  0  0  0  0
    5.2102   -1.2137   -1.5238 N   0  0  0  0  0  0  0  0  0  0  0  0
    4.2961   -1.9928   -2.1398 C   0  0  0  0  0  0  0  0  0  0  0  0
    2.9499   -1.7319   -1.9284 C   0  0  0  0  0  0  0  0  0  0  0  0
    1.8686   -2.5307   -2.5530 C   0  0  0  0  0  0  0  0  0  0  0  0
    2.6162   -0.6880   -1.0984 C   0  0  0  0  0  0  0  0  0  0  0  0
    1.2042   -0.4124   -0.8683 C   0  0  0  0  0  0  0  0  0  0  0  0
    0.2084   -0.1648   -1.8034 C   0  0  0  0  0  0  0  0  0  0  0  0
   -0.9514    0.0443   -1.1448 N   0  0  0  0  0  0  0  0  0  0  0  0
   -0.7833   -0.0502    0.1752 C   0  0  0  0  0  0  0  0  0  0  0  0
   -1.6697    0.0839    1.2470 C   0  0  0  0  0  0  0  0  0  0  0  0
   -3.0104    0.3707    0.9293 N   0  0  0  0  0  0  0  0  0  0  0  0
   -4.0724    0.5591    1.8307 C   0  0  0  0  0  0  0  0  0  0  0  0
   -3.8625    0.4816    3.0560 O   0  0  0  0  0  0  0  0  0  0  0  0
   -5.4735    0.8551    1.4249 C   0  0  1  0  0  0  0  0  0  0  0  0
   -5.8092    2.2384    1.8915 C   0  0  0  0  0  0  0  0  0  0  0  0
   -5.7111    0.6631    0.0064 N   0  0  0  0  0  0  0  0  0  0  0  0
   -7.0507    1.1423   -0.2547 C   0  0  0  0  0  0  0  0  0  0  0  0
   -7.7892    0.3475   -1.3024 C   0  0  0  0  0  0  0  0  0  0  0  0
   -8.0482   -0.9698   -0.7458 N   0  0  0  0  0  0  0  0  0  0  0  0
   -9.0605   -0.7882    0.3075 C   0  0  0  0  0  0  0  0  0  0  0  0
   -6.8846   -1.5151   -0.1000 C   0  0  0  0  0  0  0  0  0  0  0  0
   -5.6186   -0.7470   -0.3441 C   0  0  0  0  0  0  0  0  0  0  0  0
   -1.1451   -0.0807    2.4961 C   0  0  0  0  0  0  0  0  0  0  0  0
    0.2172   -0.3711    2.7081 C   0  0  0  0  0  0  0  0  0  0  0  0
    1.0614   -0.4962    1.6297 C   0  0  0  0  0  0  0  0  0  0  0  0
    0.5533   -0.3337    0.3551 C   0  0  0  0  0  0  0  0  0  0  0  0
    3.5929    0.0433   -0.5207 N   0  0  0  0  0  0  0  0  0  0  0  0
   10.1002    2.5540    1.7489 H   0  0  0  0  0  0  0  0  0  0  0  0
    9.1528    3.9877    1.2918 H   0  0  0  0  0  0  0  0  0  0  0  0
    8.7903    3.2337    2.8626 H   0  0  0  0  0  0  0  0  0  0  0  0
   10.9230   -1.7488   -0.6244 H   0  0  0  0  0  0  0  0  0  0  0  0
   11.1165   -0.4460   -1.9182 H   0  0  0  0  0  0  0  0  0  0  0  0
    9.9892   -1.7870   -2.1305 H   0  0  0  0  0  0  0  0  0  0  0  0
    7.5495   -1.2992   -1.5442 H   0  0  0  0  0  0  0  0  0  0  0  0
    5.5718    1.3993    0.5397 H   0  0  0  0  0  0  0  0  0  0  0  0
    4.5842   -2.8124   -2.7923 H   0  0  0  0  0  0  0  0  0  0  0  0
    2.2239   -3.5932   -2.6925 H   0  0  0  0  0  0  0  0  0  0  0  0
    1.6533   -2.1845   -3.6063 H   0  0  0  0  0  0  0  0  0  0  0  0
    0.9418   -2.4888   -1.9740 H   0  0  0  0  0  0  0  0  0  0  0  0
    0.3682   -0.1478   -2.8901 H   0  0  0  0  0  0  0  0  0  0  0  0
   -1.8770    0.2556   -1.6053 H   0  0  0  0  0  0  0  0  0  0  0  0
   -3.3045    0.4772   -0.0980 H   0  0  0  0  0  0  0  0  0  0  0  0
   -6.1227    0.1388    2.0021 H   0  0  0  0  0  0  0  0  0  0  0  0
   -6.4463    2.8157    1.1829 H   0  0  0  0  0  0  0  0  0  0  0  0
   -6.2512    2.2611    2.9245 H   0  0  0  0  0  0  0  0  0  0  0  0
   -4.8589    2.8266    1.9691 H   0  0  0  0  0  0  0  0  0  0  0  0
   -7.6504    1.0944    0.6766 H   0  0  0  0  0  0  0  0  0  0  0  0
   -7.0119    2.1959   -0.6638 H   0  0  0  0  0  0  0  0  0  0  0  0
   -7.3246    0.3319   -2.2868 H   0  0  0  0  0  0  0  0  0  0  0  0
   -8.7804    0.8393   -1.4202 H   0  0  0  0  0  0  0  0  0  0  0  0
   -9.7818   -1.6055    0.3404 H   0  0  0  0  0  0  0  0  0  0  0  0
   -9.6412    0.1544    0.0927 H   0  0  0  0  0  0  0  0  0  0  0  0
   -8.5950   -0.6350    1.2879 H   0  0  0  0  0  0  0  0  0  0  0  0
   -6.7156   -2.5277   -0.5635 H   0  0  0  0  0  0  0  0  0  0  0  0
   -7.0438   -1.7258    0.9739 H   0  0  0  0  0  0  0  0  0  0  0  0
   -5.2625   -0.9078   -1.3622 H   0  0  0  0  0  0  0  0  0  0  0  0
   -4.8671   -1.1970    0.3739 H   0  0  0  0  0  0  0  0  0  0  0  0
   -1.7686    0.0079    3.3504 H   0  0  0  0  0  0  0  0  0  0  0  0
    0.6023   -0.4965    3.7121 H   0  0  0  0  0  0  0  0  0  0  0  0
    2.1154   -0.7176    1.7281 H   0  0  0  0  0  0  0  0  0  0  0  0
  1  2  1  0
  2  3  1  0
  3  4  2  0
  4  5  1  0
  5  6  1  0
  5  7  1  0
  7  8  2  0
  8  9  1  0
  9 10  1  0
 10 11  2  0
 11 12  1  0
 12 13  2  0
 13 14  1  0
 13 15  1  0
 15 16  1  0
 16 17  2  0
 17 18  1  0
 18 19  1  0
 19 20  2  0
 20 21  1  0
 21 22  1  0
 22 23  2  0
 22 24  1  0
 24 25  1  0
 24 26  1  0
 26 27  1  0
 27 28  1  0
 28 29  1  0
 29 30  1  0
 29 31  1  0
 31 32  1  0
 20 33  1  0
 33 34  2  0
 34 35  1  0
 35 36  2  0
 15 37  2  0
  8  3  1  0
 37 10  1  0
 36 16  1  0
 36 19  1  0
 32 26  1  0
  1 38  1  0
  1 39  1  0
  1 40  1  0
  6 41  1  0
  6 42  1  0
  6 43  1  0
  7 44  1  0
  9 45  1  0
 12 46  1  0
 14 47  1  0
 14 48  1  0
 14 49  1  0
 17 50  1  0
 18 51  1  0
 21 52  1  0
 24 53  1  1
 25 54  1  0
 25 55  1  0
 25 56  1  0
 27 57  1  0
 27 58  1  0
 28 59  1  0
 28 60  1  0
 30 61  1  0
 30 62  1  0
 30 63  1  0
 31 64  1  0
 31 65  1  0
 32 66  1  0
 32 67  1  0
 33 68  1  0
 34 69  1  0
 35 70  1  0
M  END
$$$$
