@<TRIPOS>MOLECULE
*****
 70 74 0 0 0
SMALL
GASTEIGER

@<TRIPOS>ATOM
      1 C           9.1079    3.0060    1.8088 C.3     1  UNL1        0.0805
      2 O           8.0767    2.2683    1.2280 O.3     1  UNL1       -0.4774
      3 C           8.2648    1.1902    0.3931 C.ar    1  UNL1        0.2552
      4 N           9.4699    0.7133    0.0333 N.ar    1  UNL1       -0.1317
      5 N           9.3364   -0.3177   -0.7677 N.ar    1  UNL1       -0.2692
      6 C          10.4126   -1.0845   -1.3536 C.3     1  UNL1        0.0304
      7 C           8.0071   -0.5284   -0.9423 C.ar    1  UNL1        0.0503
      8 C           7.2921    0.4035   -0.2254 C.ar    1  UNL1        0.1152
      9 N           5.9040    0.6060   -0.0779 N.pl3   1  UNL1       -0.2782
     10 C           4.9114   -0.1918   -0.7114 C.ar    1  UNL1        0.2202
     11 N           5.2102   -1.2137   -1.5238 N.ar    1  UNL1       -0.2224
     12 C           4.2961   -1.9928   -2.1398 C.ar    1  UNL1        0.0361
     13 C           2.9499   -1.7319   -1.9284 C.ar    1  UNL1       -0.0062
     14 C           1.8686   -2.5307   -2.5530 C.3     1  UNL1       -0.0362
     15 C           2.6162   -0.6880   -1.0984 C.ar    1  UNL1        0.0809
     16 C           1.2042   -0.4124   -0.8683 C.ar    1  UNL1        0.0258
     17 C           0.2084   -0.1648   -1.8034 C.ar    1  UNL1        0.0120
     18 N          -0.9514    0.0443   -1.1448 N.ar    1  UNL1       -0.3586
     19 C          -0.7833   -0.0502    0.1752 C.ar    1  UNL1        0.0686
     20 C          -1.6697    0.0839    1.2470 C.ar    1  UNL1        0.0576
     21 N          -3.0104    0.3707    0.9293 N.am    1  UNL1       -0.2825
     22 C          -4.0724    0.5591    1.8307 C.2     1  UNL1        0.2342
     23 O          -3.8625    0.4816    3.0560 O.2     1  UNL1       -0.2738
     24 C          -5.4735    0.8551    1.4249 C.3     1  UNL1        0.0848
     25 C          -5.8092    2.2384    1.8915 C.3     1  UNL1       -0.0409
     26 N          -5.7111    0.6631    0.0064 N.3     1  UNL1       -0.2893
     27 C          -7.0507    1.1423   -0.2547 C.3     1  UNL1        0.0124
     28 C          -7.7892    0.3475   -1.3024 C.3     1  UNL1        0.0114
     29 N          -8.0482   -0.9698   -0.7458 N.3     1  UNL1       -0.3029
     30 C          -9.0605   -0.7882    0.3075 C.3     1  UNL1       -0.0127
     31 C          -6.8846   -1.5151   -0.1000 C.3     1  UNL1        0.0114
     32 C          -5.6186   -0.7470   -0.3441 C.3     1  UNL1        0.0124
     33 C          -1.1451   -0.0807    2.4961 C.ar    1  UNL1       -0.0384
     34 C           0.2172   -0.3711    2.7081 C.ar    1  UNL1       -0.0593
     35 C           1.0614   -0.4962    1.6297 C.ar    1  UNL1       -0.0518
     36 C           0.5533   -0.3337    0.3551 C.ar    1  UNL1        0.0107
     37 N           3.5929    0.0433   -0.5207 N.ar    1  UNL1       -0.2139
     38 H          10.1002    2.5540    1.7489 H       1  UNL1        0.0660
     39 H           9.1528    3.9877    1.2918 H       1  UNL1        0.0660
     40 H           8.7903    3.2337    2.8626 H       1  UNL1        0.0660
     41 H          10.9230   -1.7488   -0.6244 H       1  UNL1        0.0473
     42 H          11.1165   -0.4460   -1.9182 H       1  UNL1        0.0473
     43 H           9.9892   -1.7870   -2.1305 H       1  UNL1        0.0473
     44 H           7.5495   -1.2992   -1.5442 H       1  UNL1        0.0846
     45 H           5.5718    1.3993    0.5397 H       1  UNL1        0.1552
     46 H           4.5842   -2.8124   -2.7923 H       1  UNL1        0.0834
     47 H           2.2239   -3.5932   -2.6925 H       1  UNL1        0.0279
     48 H           1.6533   -2.1845   -3.6063 H       1  UNL1        0.0279
     49 H           0.9418   -2.4888   -1.9740 H       1  UNL1        0.0279
     50 H           0.3682   -0.1478   -2.8901 H       1  UNL1        0.0814
     51 H          -1.8770    0.2556   -1.6053 H       1  UNL1        0.1654
     52 H          -3.3045    0.4772   -0.0980 H       1  UNL1        0.1549
     53 H          -6.1227    0.1388    2.0021 H       1  UNL1        0.0556
     54 H          -6.4463    2.8157    1.1829 H       1  UNL1        0.0249
     55 H          -6.2512    2.2611    2.9245 H       1  UNL1        0.0249
     56 H          -4.8589    2.8266    1.9691 H       1  UNL1        0.0249
     57 H          -7.6504    1.0944    0.6766 H       1  UNL1        0.0439
     58 H          -7.0119    2.1959   -0.6638 H       1  UNL1        0.0439
     59 H          -7.3246    0.3319   -2.2868 H       1  UNL1        0.0439
     60 H          -8.7804    0.8393   -1.4202 H       1  UNL1        0.0439
     61 H          -9.7818   -1.6055    0.3404 H       1  UNL1        0.0391
     62 H          -9.6412    0.1544    0.0927 H       1  UNL1        0.0391
     63 H          -8.5950   -0.6350    1.2879 H       1  UNL1        0.0391
     64 H          -6.7156   -2.5277   -0.5635 H       1  UNL1        0.0439
     65 H          -7.0438   -1.7258    0.9739 H       1  UNL1        0.0439
     66 H          -5.2625   -0.9078   -1.3622 H       1  UNL1        0.0439
     67 H          -4.8671   -1.1970    0.3739 H       1  UNL1        0.0439
     68 H          -1.7686    0.0079    3.3504 H       1  UNL1        0.0637
     69 H           0.6023   -0.4965    3.7121 H       1  UNL1        0.0618
     70 H           2.1154   -0.7176    1.7281 H       1  UNL1        0.0624
@<TRIPOS>BOND
     1     1     2    1
     2     2     3    1
     3     3     4   ar
     4     4     5   ar
     5     5     6    1
     6     5     7   ar
     7     7     8   ar
     8     8     9    1
     9     9    10    1
    10    10    11   ar
    11    11    12   ar
    12    12    13   ar
    13    13    14    1
    14    13    15   ar
    15    15    16    1
    16    16    17   ar
    17    17    18   ar
    18    18    19   ar
    19    19    20   ar
    20    20    21    1
    21    21    22   am
    22    22    23    2
    23    22    24    1
    24    24    25    1
    25    24    26    1
    26    26    27    1
    27    27    28    1
    28    28    29    1
    29    29    30    1
    30    29    31    1
    31    31    32    1
    32    20    33   ar
    33    33    34   ar
    34    34    35   ar
    35    35    36   ar
    36    15    37   ar
    37     8     3   ar
    38    37    10   ar
    39    36    16   ar
    40    36    19   ar
    41    32    26    1
    42     1    38    1
    43     1    39    1
    44     1    40    1
    45     6    41    1
    46     6    42    1
    47     6    43    1
    48     7    44    1
    49     9    45    1
    50    12    46    1
    51    14    47    1
    52    14    48    1
    53    14    49    1
    54    17    50    1
    55    18    51    1
    56    21    52    1
    57    24    53    1
    58    25    54    1
    59    25    55    1
    60    25    56    1
    61    27    57    1
    62    27    58    1
    63    28    59    1
    64    28    60    1
    65    30    61    1
    66    30    62    1
    67    30    63    1
    68    31    64    1
    69    31    65    1
    70    32    66    1
    71    32    67    1
    72    33    68    1
    73    34    69    1
    74    35    70    1
