
     RDKit          3D

 57 61  0  0  0  0  0  0  0  0999 V2000
    1.5688    2.0117   -2.6354 C   0  0  0  0  0  0  0  0  0  0  0  0
    0.7557    1.2630   -1.7577 O   0  0  0  0  0  0  0  0  0  0  0  0
    1.2288    0.2613   -0.9397 C   0  0  0  0  0  0  0  0  0  0  0  0
    2.5540   -0.1192   -0.8919 C   0  0  0  0  0  0  0  0  0  0  0  0
    2.9920   -1.1265   -0.0570 C   0  0  0  0  0  0  0  0  0  0  0  0
    4.3266   -1.5233   -0.0163 C   0  0  0  0  0  0  0  0  0  0  0  0
    5.2395   -0.8532   -0.8501 N   0  0  0  0  0  0  0  0  0  0  0  0
    6.1445    0.0757   -0.3151 C   0  0  0  0  0  0  0  0  0  0  0  0
    6.2978    0.2143    1.0462 C   0  0  0  0  0  0  0  0  0  0  0  0
    7.1835    1.1111    1.6035 C   0  0  0  0  0  0  0  0  0  0  0  0
    7.9306    1.8856    0.7469 C   0  0  0  0  0  0  0  0  0  0  0  0
    9.0580    3.0175    1.4334 Cl  0  0  0  0  0  0  0  0  0  0  0  0
    7.8189    1.7906   -0.6286 C   0  0  0  0  0  0  0  0  0  0  0  0
    8.8137    2.8270   -1.6238 Cl  0  0  0  0  0  0  0  0  0  0  0  0
    6.9259    0.8859   -1.1376 C   0  0  0  0  0  0  0  0  0  0  0  0
    4.7220   -2.5265    0.8087 N   0  0  0  0  0  0  0  0  0  0  0  0
    3.8450   -3.1636    1.6064 C   0  0  0  0  0  0  0  0  0  0  0  0
    2.5600   -2.7701    1.5557 N   0  0  0  0  0  0  0  0  0  0  0  0
    2.1154   -1.7932    0.7658 C   0  0  0  0  0  0  0  0  0  0  0  0
    0.7810   -1.4020    0.7091 C   0  0  0  0  0  0  0  0  0  0  0  0
    0.3303   -0.3957   -0.1234 C   0  0  0  0  0  0  0  0  0  0  0  0
   -1.0117   -0.0221   -0.1681 O   0  0  0  0  0  0  0  0  0  0  0  0
   -1.9025   -0.7231    0.7034 C   0  0  0  0  0  0  0  0  0  0  0  0
   -3.2777   -0.1446    0.4176 C   0  0  0  0  0  0  0  0  0  0  0  0
   -4.2800   -0.7606    1.3350 C   0  0  0  0  0  0  0  0  0  0  0  0
   -5.5496   -0.8255    0.6860 N   0  0  0  0  0  0  0  0  0  0  0  0
   -6.6308   -0.7741    1.6389 C   0  0  0  0  0  0  0  0  0  0  0  0
   -7.7375    0.1584    1.2940 C   0  0  0  0  0  0  0  0  0  0  0  0
   -7.3683    1.3987    0.8434 O   0  0  0  0  0  0  0  0  0  0  0  0
   -6.2981    1.4276   -0.0107 C   0  0  0  0  0  0  0  0  0  0  0  0
   -5.7784    0.0540   -0.3981 C   0  0  0  0  0  0  0  0  0  0  0  0
   -4.6338    0.2766   -1.3239 C   0  0  0  0  0  0  0  0  0  0  0  0
   -3.5328   -0.4272   -0.9223 O   0  0  0  0  0  0  0  0  0  0  0  0
    0.9511    2.8070   -3.0955 H   0  0  0  0  0  0  0  0  0  0  0  0
    2.3824    2.5389   -2.0896 H   0  0  0  0  0  0  0  0  0  0  0  0
    1.9173    1.3504   -3.4344 H   0  0  0  0  0  0  0  0  0  0  0  0
    3.2617    0.3839   -1.5218 H   0  0  0  0  0  0  0  0  0  0  0  0
    5.2419   -1.0470   -1.8658 H   0  0  0  0  0  0  0  0  0  0  0  0
    5.6889   -0.4155    1.6947 H   0  0  0  0  0  0  0  0  0  0  0  0
    7.2785    1.1947    2.6702 H   0  0  0  0  0  0  0  0  0  0  0  0
    6.8087    0.7862   -2.2040 H   0  0  0  0  0  0  0  0  0  0  0  0
    4.1926   -3.9749    2.2673 H   0  0  0  0  0  0  0  0  0  0  0  0
    0.0794   -1.9245    1.3534 H   0  0  0  0  0  0  0  0  0  0  0  0
   -1.5417   -0.5088    1.7207 H   0  0  0  0  0  0  0  0  0  0  0  0
   -1.8633   -1.8100    0.5305 H   0  0  0  0  0  0  0  0  0  0  0  0
   -3.2983    0.9462    0.5583 H   0  0  0  0  0  0  0  0  0  0  0  0
   -3.9933   -1.8306    1.5814 H   0  0  0  0  0  0  0  0  0  0  0  0
   -4.2954   -0.2182    2.3103 H   0  0  0  0  0  0  0  0  0  0  0  0
   -6.2460   -0.5676    2.6706 H   0  0  0  0  0  0  0  0  0  0  0  0
   -7.0779   -1.8056    1.7135 H   0  0  0  0  0  0  0  0  0  0  0  0
   -8.4536   -0.3811    0.6089 H   0  0  0  0  0  0  0  0  0  0  0  0
   -8.3369    0.3256    2.2335 H   0  0  0  0  0  0  0  0  0  0  0  0
   -5.4538    2.0214    0.3953 H   0  0  0  0  0  0  0  0  0  0  0  0
   -6.5487    1.9205   -0.9870 H   0  0  0  0  0  0  0  0  0  0  0  0
   -6.6190   -0.4103   -1.0070 H   0  0  0  0  0  0  0  0  0  0  0  0
   -4.3976    1.3750   -1.4633 H   0  0  0  0  0  0  0  0  0  0  0  0
   -4.8677   -0.0642   -2.3712 H   0  0  0  0  0  0  0  0  0  0  0  0
  1  2  1  0
  2  3  1  0
  3  4  2  0
  4  5  1  0
  5  6  2  0
  6  7  1  0
  7  8  1  0
  8  9  2  0
  9 10  1  0
 10 11  2  0
 11 12  1  0
 11 13  1  0
 13 14  1  0
 13 15  2  0
  6 16  1  0
 16 17  2  0
 17 18  1  0
 18 19  2  0
 19 20  1  0
 20 21  2  0
 21 22  1  0
 22 23  1  0
 23 24  1  0
 24 25  1  0
 25 26  1  0
 26 27  1  0
 27 28  1  0
 28 29  1  0
 29 30  1  0
 30 31  1  0
 31 32  1  0
 32 33  1  0
 21  3  1  0
 33 24  1  0
 19  5  1  0
 31 26  1  0
 15  8  1  0
  1 34  1  0
  1 35  1  0
  1 36  1  0
  4 37  1  0
  7 38  1  0
  9 39  1  0
 10 40  1  0
 15 41  1  0
 17 42  1  0
 20 43  1  0
 23 44  1  0
 23 45  1  0
 24 46  1  0
 25 47  1  0
 25 48  1  0
 27 49  1  0
 27 50  1  0
 28 51  1  0
 28 52  1  0
 30 53  1  0
 30 54  1  0
 31 55  1  0
 32 56  1  0
 32 57  1  0
M  END
$$$$
