@<TRIPOS>MOLECULE
*****
 57 61 0 0 0
SMALL
GASTEIGER

@<TRIPOS>ATOM
      1 C           1.5688    2.0117   -2.6354 C.3     1  UNL1        0.0790
      2 O           0.7557    1.2630   -1.7577 O.3     1  UNL1       -0.4914
      3 C           1.2288    0.2613   -0.9397 C.ar    1  UNL1        0.1623
      4 C           2.5540   -0.1192   -0.8919 C.ar    1  UNL1       -0.0038
      5 C           2.9920   -1.1265   -0.0570 C.ar    1  UNL1        0.0441
      6 C           4.3266   -1.5233   -0.0163 C.ar    1  UNL1        0.1340
      7 N           5.2395   -0.8532   -0.8501 N.pl3   1  UNL1       -0.2988
      8 C           6.1445    0.0757   -0.3151 C.ar    1  UNL1        0.0339
      9 C           6.2978    0.2143    1.0462 C.ar    1  UNL1       -0.0390
     10 C           7.1835    1.1111    1.6035 C.ar    1  UNL1       -0.0402
     11 C           7.9306    1.8856    0.7469 C.ar    1  UNL1        0.0594
     12 CL          9.0580    3.0175    1.4334 Cl      1  UNL1       -0.0820
     13 C           7.8189    1.7906   -0.6286 C.ar    1  UNL1        0.0610
     14 CL          8.8137    2.8270   -1.6238 Cl      1  UNL1       -0.0820
     15 C           6.9259    0.8859   -1.1376 C.ar    1  UNL1       -0.0207
     16 N           4.7220   -2.5265    0.8087 N.ar    1  UNL1       -0.2200
     17 C           3.8450   -3.1636    1.6064 C.ar    1  UNL1        0.1187
     18 N           2.5600   -2.7701    1.5557 N.ar    1  UNL1       -0.2352
     19 C           2.1154   -1.7932    0.7658 C.ar    1  UNL1        0.0797
     20 C           0.7810   -1.4020    0.7091 C.ar    1  UNL1        0.0098
     21 C           0.3303   -0.3957   -0.1234 C.ar    1  UNL1        0.1641
     22 O          -1.0117   -0.0221   -0.1681 O.3     1  UNL1       -0.4856
     23 C          -1.9025   -0.7231    0.7034 C.3     1  UNL1        0.1170
     24 C          -3.2777   -0.1446    0.4176 C.3     1  UNL1        0.1053
     25 C          -4.2800   -0.7606    1.3350 C.3     1  UNL1        0.0289
     26 N          -5.5496   -0.8255    0.6860 N.3     1  UNL1       -0.2903
     27 C          -6.6308   -0.7741    1.6389 C.3     1  UNL1        0.0229
     28 C          -7.7375    0.1584    1.2940 C.3     1  UNL1        0.0605
     29 O          -7.3683    1.3987    0.8434 O.3     1  UNL1       -0.3769
     30 C          -6.2981    1.4276   -0.0107 C.3     1  UNL1        0.0654
     31 C          -5.7784    0.0540   -0.3981 C.3     1  UNL1        0.0573
     32 C          -4.6338    0.2766   -1.3239 C.3     1  UNL1        0.0659
     33 O          -3.5328   -0.4272   -0.9223 O.3     1  UNL1       -0.3703
     34 H           0.9511    2.8070   -3.0955 H       1  UNL1        0.0660
     35 H           2.3824    2.5389   -2.0896 H       1  UNL1        0.0660
     36 H           1.9173    1.3504   -3.4344 H       1  UNL1        0.0660
     37 H           3.2617    0.3839   -1.5218 H       1  UNL1        0.0663
     38 H           5.2419   -1.0470   -1.8658 H       1  UNL1        0.1536
     39 H           5.6889   -0.4155    1.6947 H       1  UNL1        0.0636
     40 H           7.2785    1.1947    2.6702 H       1  UNL1        0.0633
     41 H           6.8087    0.7862   -2.2040 H       1  UNL1        0.0651
     42 H           4.1926   -3.9749    2.2673 H       1  UNL1        0.1048
     43 H           0.0794   -1.9245    1.3534 H       1  UNL1        0.0677
     44 H          -1.5417   -0.5088    1.7207 H       1  UNL1        0.0723
     45 H          -1.8633   -1.8100    0.5305 H       1  UNL1        0.0723
     46 H          -3.2983    0.9462    0.5583 H       1  UNL1        0.0643
     47 H          -3.9933   -1.8306    1.5814 H       1  UNL1        0.0453
     48 H          -4.2954   -0.2182    2.3103 H       1  UNL1        0.0453
     49 H          -6.2460   -0.5676    2.6706 H       1  UNL1        0.0449
     50 H          -7.0779   -1.8056    1.7135 H       1  UNL1        0.0449
     51 H          -8.4536   -0.3811    0.6089 H       1  UNL1        0.0572
     52 H          -8.3369    0.3256    2.2335 H       1  UNL1        0.0572
     53 H          -5.4538    2.0214    0.3953 H       1  UNL1        0.0576
     54 H          -6.5487    1.9205   -0.9870 H       1  UNL1        0.0576
     55 H          -6.6190   -0.4103   -1.0070 H       1  UNL1        0.0508
     56 H          -4.3976    1.3750   -1.4633 H       1  UNL1        0.0576
     57 H          -4.8677   -0.0642   -2.3712 H       1  UNL1        0.0576
@<TRIPOS>BOND
     1     1     2    1
     2     2     3    1
     3     3     4   ar
     4     4     5   ar
     5     5     6   ar
     6     6     7    1
     7     7     8    1
     8     8     9   ar
     9     9    10   ar
    10    10    11   ar
    11    11    12    1
    12    11    13   ar
    13    13    14    1
    14    13    15   ar
    15     6    16   ar
    16    16    17   ar
    17    17    18   ar
    18    18    19   ar
    19    19    20   ar
    20    20    21   ar
    21    21    22    1
    22    22    23    1
    23    23    24    1
    24    24    25    1
    25    25    26    1
    26    26    27    1
    27    27    28    1
    28    28    29    1
    29    29    30    1
    30    30    31    1
    31    31    32    1
    32    32    33    1
    33    21     3   ar
    34    33    24    1
    35    19     5   ar
    36    31    26    1
    37    15     8   ar
    38     1    34    1
    39     1    35    1
    40     1    36    1
    41     4    37    1
    42     7    38    1
    43     9    39    1
    44    10    40    1
    45    15    41    1
    46    17    42    1
    47    20    43    1
    48    23    44    1
    49    23    45    1
    50    24    46    1
    51    25    47    1
    52    25    48    1
    53    27    49    1
    54    27    50    1
    55    28    51    1
    56    28    52    1
    57    30    53    1
    58    30    54    1
    59    31    55    1
    60    32    56    1
    61    32    57    1
