
     RDKit          3D

 49 53  0  0  0  0  0  0  0  0999 V2000
    8.6183    1.2658    1.4057 O   0  0  0  0  0  0  0  0  0  0  0  0
    8.3860    0.1077    0.9363 C   0  0  0  0  0  0  0  0  0  0  0  0
    9.3691   -0.8566    0.8887 O   0  0  0  0  0  0  0  0  0  0  0  0
    7.0153   -0.1357    0.4531 C   0  0  0  0  0  0  0  0  0  0  0  0
    6.0554    0.8418    0.5184 C   0  0  0  0  0  0  0  0  0  0  0  0
    4.7575    0.5882    0.0609 C   0  0  0  0  0  0  0  0  0  0  0  0
    4.3841   -0.6152   -0.4612 C   0  0  0  0  0  0  0  0  0  0  0  0
    3.0794   -0.8785   -0.8848 N   0  0  0  0  0  0  0  0  0  0  0  0
    1.9095   -0.1845   -0.4849 C   0  0  0  0  0  0  0  0  0  0  0  0
    2.0072    0.7598    0.4541 N   0  0  0  0  0  0  0  0  0  0  0  0
    0.9416    1.4470    0.8745 C   0  0  0  0  0  0  0  0  0  0  0  0
   -0.3060    1.1916    0.3393 C   0  0  0  0  0  0  0  0  0  0  0  0
   -0.3721    0.2109   -0.6267 C   0  0  0  0  0  0  0  0  0  0  0  0
    0.7078   -0.4954   -1.0620 N   0  0  0  0  0  0  0  0  0  0  0  0
   -1.6053   -0.1984   -1.3071 C   0  0  0  0  0  0  0  0  0  0  0  0
   -1.3537   -0.8368   -2.4946 C   0  0  0  0  0  0  0  0  0  0  0  0
   -2.4618   -1.2542   -3.2048 C   0  0  0  0  0  0  0  0  0  0  0  0
   -3.7641   -1.0661   -2.7915 C   0  0  0  0  0  0  0  0  0  0  0  0
   -5.1248   -1.6250   -3.7504 Cl  0  0  0  0  0  0  0  0  0  0  0  0
   -3.9943   -0.4183   -1.5874 C   0  0  0  0  0  0  0  0  0  0  0  0
   -2.9020    0.0009   -0.8723 C   0  0  0  0  0  0  0  0  0  0  0  0
   -3.3318    0.6560    0.3615 C   0  0  0  0  0  0  0  0  0  0  0  0
   -4.6511    0.3695    0.8689 C   0  0  0  0  0  0  0  0  0  0  0  0
   -5.6771    1.2792    0.7644 C   0  0  0  0  0  0  0  0  0  0  0  0
   -5.4621    2.4691    0.1704 F   0  0  0  0  0  0  0  0  0  0  0  0
   -6.9327    1.0183    1.2494 C   0  0  0  0  0  0  0  0  0  0  0  0
   -7.1643   -0.1899    1.8555 C   0  0  0  0  0  0  0  0  0  0  0  0
   -6.1378   -1.1172    1.9675 C   0  0  0  0  0  0  0  0  0  0  0  0
   -4.8806   -0.8456    1.4776 C   0  0  0  0  0  0  0  0  0  0  0  0
   -3.9086   -1.7974    1.6156 F   0  0  0  0  0  0  0  0  0  0  0  0
   -2.6379    1.4800    1.0455 N   0  0  0  0  0  0  0  0  0  0  0  0
   -1.3355    2.0472    0.9311 C   0  0  0  0  0  0  0  0  0  0  0  0
    5.3829   -1.5945   -0.5167 C   0  0  0  0  0  0  0  0  0  0  0  0
    6.6555   -1.3531   -0.0715 C   0  0  0  0  0  0  0  0  0  0  0  0
    9.9495   -0.9553    1.7392 H   0  0  0  0  0  0  0  0  0  0  0  0
    6.3378    1.8004    0.9295 H   0  0  0  0  0  0  0  0  0  0  0  0
    4.0975    1.4623    0.1607 H   0  0  0  0  0  0  0  0  0  0  0  0
    2.9596   -1.6800   -1.5746 H   0  0  0  0  0  0  0  0  0  0  0  0
    1.0020    2.2221    1.6392 H   0  0  0  0  0  0  0  0  0  0  0  0
   -0.3411   -0.9858   -2.8156 H   0  0  0  0  0  0  0  0  0  0  0  0
   -2.3084   -1.7599   -4.1443 H   0  0  0  0  0  0  0  0  0  0  0  0
   -4.9807   -0.2525   -1.2265 H   0  0  0  0  0  0  0  0  0  0  0  0
   -7.7098    1.7303    1.1603 H   0  0  0  0  0  0  0  0  0  0  0  0
   -8.1343   -0.4386    2.2517 H   0  0  0  0  0  0  0  0  0  0  0  0
   -6.3373   -2.0521    2.4399 H   0  0  0  0  0  0  0  0  0  0  0  0
   -1.3248    3.0175    0.3879 H   0  0  0  0  0  0  0  0  0  0  0  0
   -0.9935    2.2820    1.9814 H   0  0  0  0  0  0  0  0  0  0  0  0
    5.1052   -2.5477   -0.9278 H   0  0  0  0  0  0  0  0  0  0  0  0
    7.4123   -2.1133   -0.1233 H   0  0  0  0  0  0  0  0  0  0  0  0
  1  2  2  0
  2  3  1  0
  2  4  1  0
  4  5  2  0
  5  6  1  0
  6  7  2  0
  7  8  1  0
  8  9  1  0
  9 10  2  0
 10 11  1  0
 11 12  2  0
 12 13  1  0
 13 14  2  0
 13 15  1  0
 15 16  2  0
 16 17  1  0
 17 18  2  0
 18 19  1  0
 18 20  1  0
 20 21  2  0
 21 22  1  0
 22 23  1  0
 23 24  2  0
 24 25  1  0
 24 26  1  0
 26 27  2  0
 27 28  1  0
 28 29  2  0
 29 30  1  0
 22 31  2  0
 31 32  1  0
  7 33  1  0
 33 34  2  0
 34  4  1  0
 14  9  1  0
 21 15  1  0
 29 23  1  0
 32 12  1  0
  3 35  1  0
  5 36  1  0
  6 37  1  0
  8 38  1  0
 11 39  1  0
 16 40  1  0
 17 41  1  0
 20 42  1  0
 26 43  1  0
 27 44  1  0
 28 45  1  0
 32 46  1  0
 32 47  1  0
 33 48  1  0
 34 49  1  0
M  END
$$$$
