@<TRIPOS>MOLECULE
*****
 49 53 0 0 0
SMALL
GASTEIGER

@<TRIPOS>ATOM
      1 O           8.6183    1.2658    1.4057 O.2     1  UNL1       -0.2451
      2 C           8.3860    0.1077    0.9363 C.2     1  UNL1        0.3368
      3 O           9.3691   -0.8566    0.8887 O.3     1  UNL1       -0.4771
      4 C           7.0153   -0.1357    0.4531 C.ar    1  UNL1        0.0589
      5 C           6.0554    0.8418    0.5184 C.ar    1  UNL1       -0.0460
      6 C           4.7575    0.5882    0.0609 C.ar    1  UNL1       -0.0397
      7 C           4.3841   -0.6152   -0.4612 C.ar    1  UNL1        0.0336
      8 N           3.0794   -0.8785   -0.8848 N.pl3   1  UNL1       -0.2836
      9 C           1.9095   -0.1845   -0.4849 C.ar    1  UNL1        0.2200
     10 N           2.0072    0.7598    0.4541 N.ar    1  UNL1       -0.2223
     11 C           0.9416    1.4470    0.8745 C.ar    1  UNL1        0.0382
     12 C          -0.3060    1.1916    0.3393 C.ar    1  UNL1        0.0180
     13 C          -0.3721    0.2109   -0.6267 C.ar    1  UNL1        0.0816
     14 N           0.7078   -0.4954   -1.0620 N.ar    1  UNL1       -0.2139
     15 C          -1.6053   -0.1984   -1.3071 C.ar    1  UNL1        0.0101
     16 C          -1.3537   -0.8368   -2.4946 C.ar    1  UNL1       -0.0505
     17 C          -2.4618   -1.2542   -3.2048 C.ar    1  UNL1       -0.0427
     18 C          -3.7641   -1.0661   -2.7915 C.ar    1  UNL1        0.0416
     19 CL         -5.1248   -1.6250   -3.7504 Cl      1  UNL1       -0.0835
     20 C          -3.9943   -0.4183   -1.5874 C.ar    1  UNL1       -0.0336
     21 C          -2.9020    0.0009   -0.8723 C.ar    1  UNL1        0.0112
     22 C          -3.3318    0.6560    0.3615 C.2     1  UNL1        0.0792
     23 C          -4.6511    0.3695    0.8689 C.ar    1  UNL1        0.0708
     24 C          -5.6771    1.2792    0.7644 C.ar    1  UNL1        0.1353
     25 F          -5.4621    2.4691    0.1704 F       1  UNL1       -0.2047
     26 C          -6.9327    1.0183    1.2494 C.ar    1  UNL1       -0.0256
     27 C          -7.1643   -0.1899    1.8555 C.ar    1  UNL1       -0.0563
     28 C          -6.1378   -1.1172    1.9675 C.ar    1  UNL1       -0.0256
     29 C          -4.8806   -0.8456    1.4776 C.ar    1  UNL1        0.1353
     30 F          -3.9086   -1.7974    1.6156 F       1  UNL1       -0.2047
     31 N          -2.6379    1.4800    1.0455 N.2     1  UNL1       -0.2778
     32 C          -1.3355    2.0472    0.9311 C.3     1  UNL1        0.0688
     33 C           5.3829   -1.5945   -0.5167 C.ar    1  UNL1       -0.0397
     34 C           6.6555   -1.3531   -0.0715 C.ar    1  UNL1       -0.0460
     35 H           9.9495   -0.9553    1.7392 H       1  UNL1        0.2954
     36 H           6.3378    1.8004    0.9295 H       1  UNL1        0.0626
     37 H           4.0975    1.4623    0.1607 H       1  UNL1        0.0636
     38 H           2.9596   -1.6800   -1.5746 H       1  UNL1        0.1550
     39 H           1.0020    2.2221    1.6392 H       1  UNL1        0.0835
     40 H          -0.3411   -0.9858   -2.8156 H       1  UNL1        0.0625
     41 H          -2.3084   -1.7599   -4.1443 H       1  UNL1        0.0632
     42 H          -4.9807   -0.2525   -1.2265 H       1  UNL1        0.0639
     43 H          -7.7098    1.7303    1.1603 H       1  UNL1        0.0646
     44 H          -8.1343   -0.4386    2.2517 H       1  UNL1        0.0619
     45 H          -6.3373   -2.0521    2.4399 H       1  UNL1        0.0646
     46 H          -1.3248    3.0175    0.3879 H       1  UNL1        0.0559
     47 H          -0.9935    2.2820    1.9814 H       1  UNL1        0.0559
     48 H           5.1052   -2.5477   -0.9278 H       1  UNL1        0.0636
     49 H           7.4123   -2.1133   -0.1233 H       1  UNL1        0.0626
@<TRIPOS>BOND
     1     1     2    2
     2     2     3    1
     3     2     4    1
     4     4     5   ar
     5     5     6   ar
     6     6     7   ar
     7     7     8    1
     8     8     9    1
     9     9    10   ar
    10    10    11   ar
    11    11    12   ar
    12    12    13   ar
    13    13    14   ar
    14    13    15    1
    15    15    16   ar
    16    16    17   ar
    17    17    18   ar
    18    18    19    1
    19    18    20   ar
    20    20    21   ar
    21    21    22    1
    22    22    23    1
    23    23    24   ar
    24    24    25    1
    25    24    26   ar
    26    26    27   ar
    27    27    28   ar
    28    28    29   ar
    29    29    30    1
    30    22    31    2
    31    31    32    1
    32     7    33   ar
    33    33    34   ar
    34    34     4   ar
    35    14     9   ar
    36    21    15   ar
    37    29    23   ar
    38    32    12    1
    39     3    35    1
    40     5    36    1
    41     6    37    1
    42     8    38    1
    43    11    39    1
    44    16    40    1
    45    17    41    1
    46    20    42    1
    47    26    43    1
    48    27    44    1
    49    28    45    1
    50    32    46    1
    51    32    47    1
    52    33    48    1
    53    34    49    1
