
     RDKit          3D

 45 47  0  0  0  0  0  0  0  0999 V2000
    3.7511    1.0092    0.0606 C   0  0  0  0  0  0  0  0  0  0  0  0
    3.6675   -0.1583    0.8241 N   0  0  0  0  0  0  0  0  0  0  0  0
    4.8843   -0.3817    1.5523 C   0  0  0  0  0  0  0  0  0  0  0  0
    2.9318   -1.2739    0.4409 C   0  0  0  0  0  0  0  0  0  0  0  0
    1.4151   -1.1496    0.4763 C   0  0  0  0  0  0  0  0  0  0  0  0
    0.8726   -0.0714   -0.4328 C   0  0  0  0  0  0  0  0  0  0  0  0
   -0.5732    0.0562   -0.4372 N   0  0  0  0  0  0  0  0  0  0  0  0
   -1.1476    1.3992   -0.4937 C   0  0  0  0  0  0  0  0  0  0  0  0
   -0.2589    2.2781   -1.0734 C   0  0  0  0  0  0  0  0  0  0  0  0
   -0.6676    3.5671   -1.1686 C   0  0  0  0  0  0  0  0  0  0  0  0
   -1.9202    3.9593   -0.7005 C   0  0  0  0  0  0  0  0  0  0  0  0
   -2.7657    3.0291   -0.1296 C   0  0  0  0  0  0  0  0  0  0  0  0
   -2.4146    1.6799    0.0037 C   0  0  0  0  0  0  0  0  0  0  0  0
   -3.5432    0.9710    0.6368 C   0  0  0  0  0  0  0  0  0  0  0  0
   -3.2611   -0.3782    1.1823 C   0  0  0  0  0  0  0  0  0  0  0  0
   -2.5029   -1.2927    0.3005 C   0  0  0  0  0  0  0  0  0  0  0  0
   -1.3344   -1.1745   -0.4217 C   0  0  0  0  0  0  0  0  0  0  0  0
   -0.6817   -2.1170   -1.2367 C   0  0  0  0  0  0  0  0  0  0  0  0
   -1.3253   -3.3308   -1.3076 C   0  0  0  0  0  0  0  0  0  0  0  0
   -0.5446   -4.5310   -2.3124 Cl  0  0  0  0  0  0  0  0  0  0  0  0
   -2.5031   -3.5526   -0.6217 C   0  0  0  0  0  0  0  0  0  0  0  0
   -3.0886   -2.5592    0.1698 C   0  0  0  0  0  0  0  0  0  0  0  0
    4.8362    1.2967   -0.0536 H   0  0  0  0  0  0  0  0  0  0  0  0
    3.3375    1.0268   -0.9467 H   0  0  0  0  0  0  0  0  0  0  0  0
    3.2812    1.8742    0.6218 H   0  0  0  0  0  0  0  0  0  0  0  0
    5.2671    0.6487    1.8182 H   0  0  0  0  0  0  0  0  0  0  0  0
    5.6741   -0.8723    0.9523 H   0  0  0  0  0  0  0  0  0  0  0  0
    4.7181   -0.8772    2.5284 H   0  0  0  0  0  0  0  0  0  0  0  0
    3.2179   -2.1640    1.0768 H   0  0  0  0  0  0  0  0  0  0  0  0
    3.2334   -1.5351   -0.6226 H   0  0  0  0  0  0  0  0  0  0  0  0
    0.9125   -2.1035    0.4789 H   0  0  0  0  0  0  0  0  0  0  0  0
    1.2579   -0.8351    1.5807 H   0  0  0  0  0  0  0  0  0  0  0  0
    1.3204   -0.0685   -1.4196 H   0  0  0  0  0  0  0  0  0  0  0  0
    1.2242    0.8352    0.1038 H   0  0  0  0  0  0  0  0  0  0  0  0
    0.6914    1.8631   -1.4163 H   0  0  0  0  0  0  0  0  0  0  0  0
    0.0110    4.2825   -1.6202 H   0  0  0  0  0  0  0  0  0  0  0  0
   -2.1888    5.0012   -0.8034 H   0  0  0  0  0  0  0  0  0  0  0  0
   -3.7159    3.4330    0.2031 H   0  0  0  0  0  0  0  0  0  0  0  0
   -4.3502    0.8614   -0.1327 H   0  0  0  0  0  0  0  0  0  0  0  0
   -3.9422    1.6013    1.4623 H   0  0  0  0  0  0  0  0  0  0  0  0
   -4.2621   -0.8585    1.3730 H   0  0  0  0  0  0  0  0  0  0  0  0
   -2.7758   -0.2843    2.1828 H   0  0  0  0  0  0  0  0  0  0  0  0
    0.2403   -1.7878   -1.7090 H   0  0  0  0  0  0  0  0  0  0  0  0
   -2.9705   -4.5370   -0.7150 H   0  0  0  0  0  0  0  0  0  0  0  0
   -4.0077   -2.7789    0.6866 H   0  0  0  0  0  0  0  0  0  0  0  0
  1  2  1  0
  2  3  1  0
  2  4  1  0
  4  5  1  0
  5  6  1  0
  6  7  1  0
  7  8  1  0
  8  9  2  0
  9 10  1  0
 10 11  2  0
 11 12  1  0
 12 13  2  0
 13 14  1  0
 14 15  1  0
 15 16  1  0
 16 17  2  0
 17 18  1  0
 18 19  2  0
 19 20  1  0
 19 21  1  0
 21 22  2  0
 17  7  1  0
 13  8  1  0
 22 16  1  0
  1 23  1  0
  1 24  1  0
  1 25  1  0
  3 26  1  0
  3 27  1  0
  3 28  1  0
  4 29  1  0
  4 30  1  0
  5 31  1  0
  5 32  1  0
  6 33  1  0
  6 34  1  0
  9 35  1  0
 10 36  1  0
 11 37  1  0
 12 38  1  0
 14 39  1  0
 14 40  1  0
 15 41  1  0
 15 42  1  0
 18 43  1  0
 21 44  1  0
 22 45  1  0
M  END
$$$$
