@<TRIPOS>MOLECULE
*****
 43 46 0 0 0
SMALL
GASTEIGER

@<TRIPOS>ATOM
      1 C           5.6049    2.0161   -0.5294 C.3     1  UNL1        0.0302
      2 N           4.7277    0.8631   -0.4713 N.ar    1  UNL1       -0.2741
      3 C           3.4034    0.7869   -0.5640 C.ar    1  UNL1        0.0308
      4 C           2.9918   -0.5276   -0.4528 C.ar    1  UNL1        0.0185
      5 C           1.6310   -1.1007   -0.4939 C.3     1  UNL1        0.0869
      6 C           0.9196   -1.0358    0.8374 C.3     1  UNL1       -0.0161
      7 C          -0.5594   -1.2897    0.4964 C.3     1  UNL1        0.0027
      8 C          -1.2268   -1.7692    1.7137 C.3     1  UNL1        0.0064
      9 S          -2.0007   -0.4770    2.7021 S.3     1  UNL1       -0.0907
     10 C          -1.3035    1.0590    2.1213 C.2     1  UNL1        0.1476
     11 N          -1.1535    2.1774    2.9789 N.pl3   1  UNL1       -0.3380
     12 N          -0.9470    1.0963    0.8912 N.2     1  UNL1       -0.2495
     13 C          -1.0573    0.0115   -0.0647 C.3     1  UNL1        0.1185
     14 C          -2.4497   -0.0430   -0.5744 C.ar    1  UNL1        0.0178
     15 C          -3.4181    0.8627   -0.1242 C.ar    1  UNL1       -0.0507
     16 C          -4.7177    0.8136   -0.5964 C.ar    1  UNL1       -0.0259
     17 C          -5.1138   -0.1094   -1.5134 C.ar    1  UNL1        0.1261
     18 F          -6.3824   -0.1865   -1.9990 F       1  UNL1       -0.2054
     19 C          -4.1956   -1.0108   -1.9769 C.ar    1  UNL1        0.0091
     20 C          -2.8916   -0.9567   -1.4990 C.ar    1  UNL1        0.1317
     21 F          -2.0480   -1.8681   -2.0035 F       1  UNL1       -0.2050
     22 C          -0.0587    0.3646   -1.1775 C.3     1  UNL1        0.0781
     23 O           0.8137   -0.6351   -1.4755 O.3     1  UNL1       -0.3691
     24 C           4.1694   -1.2393   -0.2859 C.ar    1  UNL1        0.0550
     25 N           5.1821   -0.3652   -0.3035 N.ar    1  UNL1       -0.1796
     26 H           6.2778    1.9482   -1.3904 H       1  UNL1        0.0473
     27 H           6.2603    2.0692    0.3803 H       1  UNL1        0.0473
     28 H           5.0631    2.9629   -0.5795 H       1  UNL1        0.0473
     29 H           2.7556    1.6400   -0.7057 H       1  UNL1        0.0830
     30 H           1.7380   -2.2125   -0.6913 H       1  UNL1        0.0647
     31 H           1.0549   -0.0790    1.3463 H       1  UNL1        0.0297
     32 H           1.2964   -1.8374    1.4891 H       1  UNL1        0.0297
     33 H          -0.5765   -2.0468   -0.3022 H       1  UNL1        0.0337
     34 H          -1.9706   -2.5741    1.4450 H       1  UNL1        0.0384
     35 H          -0.4998   -2.3007    2.3951 H       1  UNL1        0.0384
     36 H          -0.2124    2.4272    3.3118 H       1  UNL1        0.1442
     37 H          -1.9641    2.7517    3.2811 H       1  UNL1        0.1442
     38 H          -3.1287    1.6080    0.6028 H       1  UNL1        0.0623
     39 H          -5.4505    1.5289   -0.2301 H       1  UNL1        0.0646
     40 H          -4.4947   -1.7478   -2.7034 H       1  UNL1        0.0675
     41 H          -0.6953    0.5037   -2.1031 H       1  UNL1        0.0588
     42 H           0.4039    1.3502   -1.0152 H       1  UNL1        0.0588
     43 H           4.2232   -2.3049   -0.1663 H       1  UNL1        0.0851
@<TRIPOS>BOND
     1     1     2    1
     2     2     3   ar
     3     3     4   ar
     4     4     5    1
     5     5     6    1
     6     6     7    1
     7     7     8    1
     8     8     9    1
     9     9    10    1
    10    10    11    1
    11    10    12    2
    12    12    13    1
    13    13    14    1
    14    14    15   ar
    15    15    16   ar
    16    16    17   ar
    17    17    18    1
    18    17    19   ar
    19    19    20   ar
    20    20    21    1
    21    13    22    1
    22    22    23    1
    23     4    24   ar
    24    24    25   ar
    25    25     2   ar
    26    23     5    1
    27    13     7    1
    28    20    14   ar
    29     1    26    1
    30     1    27    1
    31     1    28    1
    32     3    29    1
    33     5    30    1
    34     6    31    1
    35     6    32    1
    36     7    33    1
    37     8    34    1
    38     8    35    1
    39    11    36    1
    40    11    37    1
    41    15    38    1
    42    16    39    1
    43    19    40    1
    44    22    41    1
    45    22    42    1
    46    24    43    1
