@<TRIPOS>MOLECULE
*****
 92 96 0 0 0
SMALL
GASTEIGER

@<TRIPOS>ATOM
      1 C           4.3303   -4.3764   -1.7875 C.3     1  UNL1       -0.0442
      2 C           3.2016   -3.6010   -1.1531 C.3     1  UNL1        0.0262
      3 C           2.9365   -4.1612    0.2119 C.3     1  UNL1       -0.0442
      4 C           1.9899   -3.7533   -2.0881 C.3     1  UNL1       -0.0442
      5 N           3.6008   -2.1911   -1.1150 N.am    1  UNL1       -0.3092
      6 C           2.7190   -1.2158   -0.5087 C.2     1  UNL1        0.2319
      7 O           1.6479   -1.6800   -0.0557 O.2     1  UNL1       -0.2740
      8 C           3.0953    0.1883   -0.4507 C.3     1  UNL1        0.1002
      9 C           4.5517    0.3842    0.0401 C.3     1  UNL1        0.0234
     10 N           4.9414    1.7160   -0.3365 N.3     1  UNL1       -0.2950
     11 C           6.2234    2.0935    0.1901 C.3     1  UNL1        0.0256
     12 C           7.3069    1.2163   -0.2852 C.ar    1  UNL1       -0.0153
     13 C           7.9769    1.5110   -1.4624 C.ar    1  UNL1       -0.0545
     14 C           9.0032    0.6666   -1.8790 C.ar    1  UNL1       -0.0433
     15 C           9.3287   -0.4336   -1.1185 C.ar    1  UNL1        0.0276
     16 N           8.6767   -0.7135    0.0206 N.ar    1  UNL1       -0.2629
     17 C           7.6859    0.1012    0.4218 C.ar    1  UNL1        0.0320
     18 C           3.9747    2.7110    0.0692 C.3     1  UNL1        0.0121
     19 C           2.8972    2.1186    0.9850 C.3     1  UNL1        0.0125
     20 N           2.3054    1.0411    0.2859 N.3     1  UNL1       -0.2868
     21 C           0.8808    1.0100    0.2615 C.3     1  UNL1        0.0258
     22 C           0.2658    0.7049    1.5691 C.3     1  UNL1        0.0686
     23 O           0.5815    1.7104    2.5304 O.3     1  UNL1       -0.3905
     24 C          -1.1389    0.3739    1.6799 C.3     1  UNL1       -0.0142
     25 C          -2.2508    1.3012    1.3587 C.3     1  UNL1        0.0419
     26 C          -2.3009    1.8020   -0.0187 C.3     1  UNL1       -0.0165
     27 C          -3.4828    2.7200   -0.2454 C.ar    1  UNL1       -0.0466
     28 C          -3.4379    4.0727   -0.0169 C.ar    1  UNL1       -0.0586
     29 C          -4.5402    4.8892   -0.2489 C.ar    1  UNL1       -0.0615
     30 C          -5.7184    4.3725   -0.7166 C.ar    1  UNL1       -0.0617
     31 C          -5.7695    2.9922   -0.9525 C.ar    1  UNL1       -0.0615
     32 C          -4.6616    2.2098   -0.7128 C.ar    1  UNL1       -0.0586
     33 C          -3.5172    0.6256    1.7888 C.2     1  UNL1        0.2170
     34 O          -4.1253    1.1102    2.7654 O.2     1  UNL1       -0.2755
     35 N          -4.0660   -0.5169    1.1655 N.am    1  UNL1       -0.3057
     36 C          -5.2742   -1.1690    1.6019 C.3     1  UNL1        0.0748
     37 C          -6.4610   -0.7397    0.8048 C.ar    1  UNL1       -0.0215
     38 C          -7.2487    0.3857    0.8680 C.ar    1  UNL1       -0.0565
     39 C          -8.3197    0.5820    0.0113 C.ar    1  UNL1       -0.0614
     40 C          -8.6124   -0.3898   -0.9473 C.ar    1  UNL1       -0.0615
     41 C          -7.8132   -1.5189   -1.0036 C.ar    1  UNL1       -0.0582
     42 C          -6.7328   -1.7048   -0.1309 C.ar    1  UNL1       -0.0398
     43 C          -5.7610   -2.8172   -0.0198 C.3     1  UNL1        0.0008
     44 C          -5.2494   -2.6407    1.4180 C.3     1  UNL1        0.0816
     45 O          -3.9831   -3.2230    1.5288 O.3     1  UNL1       -0.3893
     46 H           4.1871   -4.3378   -2.8909 H       1  UNL1        0.0250
     47 H           4.3117   -5.4580   -1.5097 H       1  UNL1        0.0250
     48 H           5.2947   -3.9135   -1.4687 H       1  UNL1        0.0250
     49 H           3.6405   -4.9816    0.4978 H       1  UNL1        0.0250
     50 H           1.9138   -4.5621    0.3255 H       1  UNL1        0.0250
     51 H           3.1099   -3.3501    0.9696 H       1  UNL1        0.0250
     52 H           1.8804   -2.8144   -2.6878 H       1  UNL1        0.0250
     53 H           2.1873   -4.5551   -2.8287 H       1  UNL1        0.0250
     54 H           1.0887   -4.0249   -1.5298 H       1  UNL1        0.0250
     55 H           4.4921   -1.8452   -1.5121 H       1  UNL1        0.1492
     56 H           3.1520    0.5839   -1.5155 H       1  UNL1        0.0571
     57 H           5.2092   -0.3899   -0.3474 H       1  UNL1        0.0447
     58 H           4.5621    0.3274    1.1514 H       1  UNL1        0.0447
     59 H           6.1956    2.1742    1.2965 H       1  UNL1        0.0476
     60 H           6.4391    3.1411   -0.1728 H       1  UNL1        0.0476
     61 H           7.6757    2.3840   -2.0128 H       1  UNL1        0.0622
     62 H           9.5212    0.8992   -2.7966 H       1  UNL1        0.0633
     63 H          10.1264   -1.0870   -1.4448 H       1  UNL1        0.0829
     64 H           7.1421   -0.1117    1.3468 H       1  UNL1        0.0833
     65 H           3.4301    3.0151   -0.8699 H       1  UNL1        0.0439
     66 H           4.4510    3.5989    0.4779 H       1  UNL1        0.0439
     67 H           2.1791    2.9742    1.1453 H       1  UNL1        0.0439
     68 H           3.3980    1.8737    1.9369 H       1  UNL1        0.0439
     69 H           0.5380    0.3192   -0.5100 H       1  UNL1        0.0452
     70 H           0.6169    2.0467   -0.1369 H       1  UNL1        0.0452
     71 H           0.8456   -0.2036    1.9782 H       1  UNL1        0.0606
     72 H          -0.0468    1.5998    3.3002 H       1  UNL1        0.2098
     73 H          -1.3156   -0.5765    1.0228 H       1  UNL1        0.0298
     74 H          -1.3679   -0.1129    2.7146 H       1  UNL1        0.0298
     75 H          -2.1399    2.2007    2.0399 H       1  UNL1        0.0398
     76 H          -1.4371    2.5202   -0.1669 H       1  UNL1        0.0320
     77 H          -2.2124    1.0694   -0.8341 H       1  UNL1        0.0320
     78 H          -2.5126    4.5046    0.3531 H       1  UNL1        0.0620
     79 H          -4.4861    5.9528   -0.0651 H       1  UNL1        0.0618
     80 H          -6.6075    4.9780   -0.9152 H       1  UNL1        0.0618
     81 H          -6.7095    2.6148   -1.3201 H       1  UNL1        0.0618
     82 H          -4.7568    1.1486   -0.9162 H       1  UNL1        0.0620
     83 H          -3.5771   -0.9081    0.3511 H       1  UNL1        0.1494
     84 H          -5.4181   -0.8379    2.6739 H       1  UNL1        0.0574
     85 H          -7.0624    1.1674    1.5943 H       1  UNL1        0.0621
     86 H          -8.9486    1.4554    0.0443 H       1  UNL1        0.0618
     87 H          -9.4486   -0.2277   -1.6098 H       1  UNL1        0.0618
     88 H          -8.0455   -2.2807   -1.7584 H       1  UNL1        0.0620
     89 H          -4.8960   -2.6921   -0.7233 H       1  UNL1        0.0339
     90 H          -6.1981   -3.8192   -0.1770 H       1  UNL1        0.0339
     91 H          -5.9778   -3.1084    2.1206 H       1  UNL1        0.0618
     92 H          -4.0802   -4.1155    1.0573 H       1  UNL1        0.2099
@<TRIPOS>BOND
     1     1     2    1
     2     2     3    1
     3     2     4    1
     4     2     5    1
     5     5     6   am
     6     6     7    2
     7     6     8    1
     8     8     9    1
     9     9    10    1
    10    10    11    1
    11    11    12    1
    12    12    13   ar
    13    13    14   ar
    14    14    15   ar
    15    15    16   ar
    16    16    17   ar
    17    10    18    1
    18    18    19    1
    19    19    20    1
    20    20    21    1
    21    21    22    1
    22    22    23    1
    23    22    24    1
    24    24    25    1
    25    25    26    1
    26    26    27    1
    27    27    28   ar
    28    28    29   ar
    29    29    30   ar
    30    30    31   ar
    31    31    32   ar
    32    25    33    1
    33    33    34    2
    34    33    35   am
    35    35    36    1
    36    36    37    1
    37    37    38   ar
    38    38    39   ar
    39    39    40   ar
    40    40    41   ar
    41    41    42   ar
    42    42    43    1
    43    43    44    1
    44    44    45    1
    45    20     8    1
    46    32    27   ar
    47    44    36    1
    48    17    12   ar
    49    42    37   ar
    50     1    46    1
    51     1    47    1
    52     1    48    1
    53     3    49    1
    54     3    50    1
    55     3    51    1
    56     4    52    1
    57     4    53    1
    58     4    54    1
    59     5    55    1
    60     8    56    1
    61     9    57    1
    62     9    58    1
    63    11    59    1
    64    11    60    1
    65    13    61    1
    66    14    62    1
    67    15    63    1
    68    17    64    1
    69    18    65    1
    70    18    66    1
    71    19    67    1
    72    19    68    1
    73    21    69    1
    74    21    70    1
    75    22    71    1
    76    23    72    1
    77    24    73    1
    78    24    74    1
    79    25    75    1
    80    26    76    1
    81    26    77    1
    82    28    78    1
    83    29    79    1
    84    30    80    1
    85    31    81    1
    86    32    82    1
    87    35    83    1
    88    36    84    1
    89    38    85    1
    90    39    86    1
    91    40    87    1
    92    41    88    1
    93    43    89    1
    94    43    90    1
    95    44    91    1
    96    45    92    1
