
     RDKit          3D

 92 96  0  0  0  0  0  0  0  0999 V2000
    4.3303   -4.3764   -1.7875 C   0  0  0  0  0  0  0  0  0  0  0  0
    3.2016   -3.6010   -1.1531 C   0  0  0  0  0  0  0  0  0  0  0  0
    2.9365   -4.1612    0.2119 C   0  0  0  0  0  0  0  0  0  0  0  0
    1.9899   -3.7533   -2.0881 C   0  0  0  0  0  0  0  0  0  0  0  0
    3.6008   -2.1911   -1.1150 N   0  0  0  0  0  0  0  0  0  0  0  0
    2.7190   -1.2158   -0.5087 C   0  0  0  0  0  0  0  0  0  0  0  0
    1.6479   -1.6800   -0.0557 O   0  0  0  0  0  0  0  0  0  0  0  0
    3.0953    0.1883   -0.4507 C   0  0  2  0  0  0  0  0  0  0  0  0
    4.5517    0.3842    0.0401 C   0  0  0  0  0  0  0  0  0  0  0  0
    4.9414    1.7160   -0.3365 N   0  0  0  0  0  0  0  0  0  0  0  0
    6.2234    2.0935    0.1901 C   0  0  0  0  0  0  0  0  0  0  0  0
    7.3069    1.2163   -0.2852 C   0  0  0  0  0  0  0  0  0  0  0  0
    7.9769    1.5110   -1.4624 C   0  0  0  0  0  0  0  0  0  0  0  0
    9.0032    0.6666   -1.8790 C   0  0  0  0  0  0  0  0  0  0  0  0
    9.3287   -0.4336   -1.1185 C   0  0  0  0  0  0  0  0  0  0  0  0
    8.6767   -0.7135    0.0206 N   0  0  0  0  0  0  0  0  0  0  0  0
    7.6859    0.1012    0.4218 C   0  0  0  0  0  0  0  0  0  0  0  0
    3.9747    2.7110    0.0692 C   0  0  0  0  0  0  0  0  0  0  0  0
    2.8972    2.1186    0.9850 C   0  0  0  0  0  0  0  0  0  0  0  0
    2.3054    1.0411    0.2859 N   0  0  0  0  0  0  0  0  0  0  0  0
    0.8808    1.0100    0.2615 C   0  0  0  0  0  0  0  0  0  0  0  0
    0.2658    0.7049    1.5691 C   0  0  1  0  0  0  0  0  0  0  0  0
    0.5815    1.7104    2.5304 O   0  0  0  0  0  0  0  0  0  0  0  0
   -1.1389    0.3739    1.6799 C   0  0  0  0  0  0  0  0  0  0  0  0
   -2.2508    1.3012    1.3587 C   0  0  1  0  0  0  0  0  0  0  0  0
   -2.3009    1.8020   -0.0187 C   0  0  0  0  0  0  0  0  0  0  0  0
   -3.4828    2.7200   -0.2454 C   0  0  0  0  0  0  0  0  0  0  0  0
   -3.4379    4.0727   -0.0169 C   0  0  0  0  0  0  0  0  0  0  0  0
   -4.5402    4.8892   -0.2489 C   0  0  0  0  0  0  0  0  0  0  0  0
   -5.7184    4.3725   -0.7166 C   0  0  0  0  0  0  0  0  0  0  0  0
   -5.7695    2.9922   -0.9525 C   0  0  0  0  0  0  0  0  0  0  0  0
   -4.6616    2.2098   -0.7128 C   0  0  0  0  0  0  0  0  0  0  0  0
   -3.5172    0.6256    1.7888 C   0  0  0  0  0  0  0  0  0  0  0  0
   -4.1253    1.1102    2.7654 O   0  0  0  0  0  0  0  0  0  0  0  0
   -4.0660   -0.5169    1.1655 N   0  0  0  0  0  0  0  0  0  0  0  0
   -5.2742   -1.1690    1.6019 C   0  0  1  0  0  0  0  0  0  0  0  0
   -6.4610   -0.7397    0.8048 C   0  0  0  0  0  0  0  0  0  0  0  0
   -7.2487    0.3857    0.8680 C   0  0  0  0  0  0  0  0  0  0  0  0
   -8.3197    0.5820    0.0113 C   0  0  0  0  0  0  0  0  0  0  0  0
   -8.6124   -0.3898   -0.9473 C   0  0  0  0  0  0  0  0  0  0  0  0
   -7.8132   -1.5189   -1.0036 C   0  0  0  0  0  0  0  0  0  0  0  0
   -6.7328   -1.7048   -0.1309 C   0  0  0  0  0  0  0  0  0  0  0  0
   -5.7610   -2.8172   -0.0198 C   0  0  0  0  0  0  0  0  0  0  0  0
   -5.2494   -2.6407    1.4180 C   0  0  1  0  0  0  0  0  0  0  0  0
   -3.9831   -3.2230    1.5288 O   0  0  0  0  0  0  0  0  0  0  0  0
    4.1871   -4.3378   -2.8909 H   0  0  0  0  0  0  0  0  0  0  0  0
    4.3117   -5.4580   -1.5097 H   0  0  0  0  0  0  0  0  0  0  0  0
    5.2947   -3.9135   -1.4687 H   0  0  0  0  0  0  0  0  0  0  0  0
    3.6405   -4.9816    0.4978 H   0  0  0  0  0  0  0  0  0  0  0  0
    1.9138   -4.5621    0.3255 H   0  0  0  0  0  0  0  0  0  0  0  0
    3.1099   -3.3501    0.9696 H   0  0  0  0  0  0  0  0  0  0  0  0
    1.8804   -2.8144   -2.6878 H   0  0  0  0  0  0  0  0  0  0  0  0
    2.1873   -4.5551   -2.8287 H   0  0  0  0  0  0  0  0  0  0  0  0
    1.0887   -4.0249   -1.5298 H   0  0  0  0  0  0  0  0  0  0  0  0
    4.4921   -1.8452   -1.5121 H   0  0  0  0  0  0  0  0  0  0  0  0
    3.1520    0.5839   -1.5155 H   0  0  0  0  0  0  0  0  0  0  0  0
    5.2092   -0.3899   -0.3474 H   0  0  0  0  0  0  0  0  0  0  0  0
    4.5621    0.3274    1.1514 H   0  0  0  0  0  0  0  0  0  0  0  0
    6.1956    2.1742    1.2965 H   0  0  0  0  0  0  0  0  0  0  0  0
    6.4391    3.1411   -0.1728 H   0  0  0  0  0  0  0  0  0  0  0  0
    7.6757    2.3840   -2.0128 H   0  0  0  0  0  0  0  0  0  0  0  0
    9.5212    0.8992   -2.7966 H   0  0  0  0  0  0  0  0  0  0  0  0
   10.1264   -1.0870   -1.4448 H   0  0  0  0  0  0  0  0  0  0  0  0
    7.1421   -0.1117    1.3468 H   0  0  0  0  0  0  0  0  0  0  0  0
    3.4301    3.0151   -0.8699 H   0  0  0  0  0  0  0  0  0  0  0  0
    4.4510    3.5989    0.4779 H   0  0  0  0  0  0  0  0  0  0  0  0
    2.1791    2.9742    1.1453 H   0  0  0  0  0  0  0  0  0  0  0  0
    3.3980    1.8737    1.9369 H   0  0  0  0  0  0  0  0  0  0  0  0
    0.5380    0.3192   -0.5100 H   0  0  0  0  0  0  0  0  0  0  0  0
    0.6169    2.0467   -0.1369 H   0  0  0  0  0  0  0  0  0  0  0  0
    0.8456   -0.2036    1.9782 H   0  0  0  0  0  0  0  0  0  0  0  0
   -0.0468    1.5998    3.3002 H   0  0  0  0  0  0  0  0  0  0  0  0
   -1.3156   -0.5765    1.0228 H   0  0  0  0  0  0  0  0  0  0  0  0
   -1.3679   -0.1129    2.7146 H   0  0  0  0  0  0  0  0  0  0  0  0
   -2.1399    2.2007    2.0399 H   0  0  0  0  0  0  0  0  0  0  0  0
   -1.4371    2.5202   -0.1669 H   0  0  0  0  0  0  0  0  0  0  0  0
   -2.2124    1.0694   -0.8341 H   0  0  0  0  0  0  0  0  0  0  0  0
   -2.5126    4.5046    0.3531 H   0  0  0  0  0  0  0  0  0  0  0  0
   -4.4861    5.9528   -0.0651 H   0  0  0  0  0  0  0  0  0  0  0  0
   -6.6075    4.9780   -0.9152 H   0  0  0  0  0  0  0  0  0  0  0  0
   -6.7095    2.6148   -1.3201 H   0  0  0  0  0  0  0  0  0  0  0  0
   -4.7568    1.1486   -0.9162 H   0  0  0  0  0  0  0  0  0  0  0  0
   -3.5771   -0.9081    0.3511 H   0  0  0  0  0  0  0  0  0  0  0  0
   -5.4181   -0.8379    2.6739 H   0  0  0  0  0  0  0  0  0  0  0  0
   -7.0624    1.1674    1.5943 H   0  0  0  0  0  0  0  0  0  0  0  0
   -8.9486    1.4554    0.0443 H   0  0  0  0  0  0  0  0  0  0  0  0
   -9.4486   -0.2277   -1.6098 H   0  0  0  0  0  0  0  0  0  0  0  0
   -8.0455   -2.2807   -1.7584 H   0  0  0  0  0  0  0  0  0  0  0  0
   -4.8960   -2.6921   -0.7233 H   0  0  0  0  0  0  0  0  0  0  0  0
   -6.1981   -3.8192   -0.1770 H   0  0  0  0  0  0  0  0  0  0  0  0
   -5.9778   -3.1084    2.1206 H   0  0  0  0  0  0  0  0  0  0  0  0
   -4.0802   -4.1155    1.0573 H   0  0  0  0  0  0  0  0  0  0  0  0
  1  2  1  0
  2  3  1  0
  2  4  1  0
  2  5  1  0
  5  6  1  0
  6  7  2  0
  6  8  1  0
  8  9  1  0
  9 10  1  0
 10 11  1  0
 11 12  1  0
 12 13  2  0
 13 14  1  0
 14 15  2  0
 15 16  1  0
 16 17  2  0
 10 18  1  0
 18 19  1  0
 19 20  1  0
 20 21  1  0
 21 22  1  0
 22 23  1  0
 22 24  1  0
 24 25  1  0
 25 26  1  0
 26 27  1  0
 27 28  2  0
 28 29  1  0
 29 30  2  0
 30 31  1  0
 31 32  2  0
 25 33  1  0
 33 34  2  0
 33 35  1  0
 35 36  1  0
 36 37  1  0
 37 38  2  0
 38 39  1  0
 39 40  2  0
 40 41  1  0
 41 42  2  0
 42 43  1  0
 43 44  1  0
 44 45  1  0
 20  8  1  0
 32 27  1  0
 44 36  1  0
 17 12  1  0
 42 37  1  0
  1 46  1  0
  1 47  1  0
  1 48  1  0
  3 49  1  0
  3 50  1  0
  3 51  1  0
  4 52  1  0
  4 53  1  0
  4 54  1  0
  5 55  1  0
  8 56  1  6
  9 57  1  0
  9 58  1  0
 11 59  1  0
 11 60  1  0
 13 61  1  0
 14 62  1  0
 15 63  1  0
 17 64  1  0
 18 65  1  0
 18 66  1  0
 19 67  1  0
 19 68  1  0
 21 69  1  0
 21 70  1  0
 22 71  1  1
 23 72  1  0
 24 73  1  0
 24 74  1  0
 25 75  1  1
 26 76  1  0
 26 77  1  0
 28 78  1  0
 29 79  1  0
 30 80  1  0
 31 81  1  0
 32 82  1  0
 35 83  1  0
 36 84  1  1
 38 85  1  0
 39 86  1  0
 40 87  1  0
 41 88  1  0
 43 89  1  0
 43 90  1  0
 44 91  1  1
 45 92  1  0
M  END
$$$$
