@<TRIPOS>MOLECULE
*****
 37 40 0 0 0
SMALL
GASTEIGER

@<TRIPOS>ATOM
      1 O           2.6485   -1.7269    0.4114 O.2     1  UNL1       -0.2697
      2 C           2.0210   -0.6957    0.1330 C.2     1  UNL1        0.2530
      3 N           2.7053    0.5289    0.0254 N.am    1  UNL1       -0.2663
      4 C           4.1140    0.5537    0.2405 C.ar    1  UNL1        0.1253
      5 C           4.8216    1.7442    0.1433 C.ar    1  UNL1       -0.0188
      6 C           6.1815    1.7520    0.3541 C.ar    1  UNL1       -0.0217
      7 C           6.8137    0.5742    0.6582 C.ar    1  UNL1        0.1415
      8 F           8.1699    0.5384    0.8768 F       1  UNL1       -0.2039
      9 C           6.0921   -0.6015    0.7507 C.ar    1  UNL1        0.0649
     10 N           4.7830   -0.5721    0.5414 N.ar    1  UNL1       -0.2373
     11 C           0.5712   -0.7580   -0.0820 C.ar    1  UNL1        0.0850
     12 C          -0.2729    0.2381    0.3642 C.ar    1  UNL1       -0.0021
     13 C          -1.6329    0.1618    0.1523 C.ar    1  UNL1        0.1458
     14 O          -2.4868    1.1786    0.6089 O.3     1  UNL1       -0.4529
     15 C          -3.8430    1.1248    0.4098 C.ar    1  UNL1        0.1492
     16 C          -4.4327    1.6575   -0.7104 C.ar    1  UNL1        0.0700
     17 N          -5.7832    1.5945   -0.8907 N.ar    1  UNL1       -0.2568
     18 C          -6.5703    1.0183    0.0072 C.ar    1  UNL1        0.0630
     19 C          -6.0161    0.4731    1.1426 C.ar    1  UNL1        0.1449
     20 F          -6.8158   -0.1151    2.0608 F       1  UNL1       -0.2038
     21 C          -4.6406    0.5251    1.3489 C.ar    1  UNL1        0.0189
     22 C          -2.1704   -0.9194   -0.5136 C.ar    1  UNL1        0.0550
     23 N          -1.3332   -1.8983   -0.9511 N.ar    1  UNL1       -0.2848
     24 C          -1.5850   -3.0389   -1.6141 C.ar    1  UNL1        0.1242
     25 N          -0.4106   -3.6555   -1.8086 N.ar    1  UNL1       -0.1372
     26 N           0.5461   -2.9188   -1.2812 N.ar    1  UNL1       -0.1289
     27 C          -0.0056   -1.8223   -0.7432 C.ar    1  UNL1        0.1733
     28 H           2.1912    1.4115   -0.2087 H       1  UNL1        0.1566
     29 H           4.3103    2.6621   -0.0960 H       1  UNL1        0.0653
     30 H           6.7827    2.6461    0.2922 H       1  UNL1        0.0648
     31 H           6.6532   -1.5125    0.9974 H       1  UNL1        0.0859
     32 H           0.1623    1.0781    0.8831 H       1  UNL1        0.0663
     33 H          -3.8510    2.1375   -1.4748 H       1  UNL1        0.0867
     34 H          -7.6633    0.9616   -0.1267 H       1  UNL1        0.0859
     35 H          -4.2506    0.0795    2.2628 H       1  UNL1        0.0684
     36 H          -3.2310   -1.0112   -0.6969 H       1  UNL1        0.0851
     37 H          -2.5728   -3.3933   -1.9340 H       1  UNL1        0.1051
@<TRIPOS>BOND
     1     1     2    2
     2     2     3   am
     3     3     4    1
     4     4     5   ar
     5     5     6   ar
     6     6     7   ar
     7     7     8    1
     8     7     9   ar
     9     9    10   ar
    10     2    11    1
    11    11    12   ar
    12    12    13   ar
    13    13    14    1
    14    14    15    1
    15    15    16   ar
    16    16    17   ar
    17    17    18   ar
    18    18    19   ar
    19    19    20    1
    20    19    21   ar
    21    13    22   ar
    22    22    23   ar
    23    23    24   ar
    24    24    25   ar
    25    25    26   ar
    26    26    27   ar
    27    10     4   ar
    28    27    11   ar
    29    21    15   ar
    30    27    23   ar
    31     3    28    1
    32     5    29    1
    33     6    30    1
    34     9    31    1
    35    12    32    1
    36    16    33    1
    37    18    34    1
    38    21    35    1
    39    22    36    1
    40    24    37    1
