
     RDKit          3D

 37 40  0  0  0  0  0  0  0  0999 V2000
    2.6485   -1.7269    0.4114 O   0  0  0  0  0  0  0  0  0  0  0  0
    2.0210   -0.6957    0.1330 C   0  0  0  0  0  0  0  0  0  0  0  0
    2.7053    0.5289    0.0254 N   0  0  0  0  0  0  0  0  0  0  0  0
    4.1140    0.5537    0.2405 C   0  0  0  0  0  0  0  0  0  0  0  0
    4.8216    1.7442    0.1433 C   0  0  0  0  0  0  0  0  0  0  0  0
    6.1815    1.7520    0.3541 C   0  0  0  0  0  0  0  0  0  0  0  0
    6.8137    0.5742    0.6582 C   0  0  0  0  0  0  0  0  0  0  0  0
    8.1699    0.5384    0.8768 F   0  0  0  0  0  0  0  0  0  0  0  0
    6.0921   -0.6015    0.7507 C   0  0  0  0  0  0  0  0  0  0  0  0
    4.7830   -0.5721    0.5414 N   0  0  0  0  0  0  0  0  0  0  0  0
    0.5712   -0.7580   -0.0820 C   0  0  0  0  0  0  0  0  0  0  0  0
   -0.2729    0.2381    0.3642 C   0  0  0  0  0  0  0  0  0  0  0  0
   -1.6329    0.1618    0.1523 C   0  0  0  0  0  0  0  0  0  0  0  0
   -2.4868    1.1786    0.6089 O   0  0  0  0  0  0  0  0  0  0  0  0
   -3.8430    1.1248    0.4098 C   0  0  0  0  0  0  0  0  0  0  0  0
   -4.4327    1.6575   -0.7104 C   0  0  0  0  0  0  0  0  0  0  0  0
   -5.7832    1.5945   -0.8907 N   0  0  0  0  0  0  0  0  0  0  0  0
   -6.5703    1.0183    0.0072 C   0  0  0  0  0  0  0  0  0  0  0  0
   -6.0161    0.4731    1.1426 C   0  0  0  0  0  0  0  0  0  0  0  0
   -6.8158   -0.1151    2.0608 F   0  0  0  0  0  0  0  0  0  0  0  0
   -4.6406    0.5251    1.3489 C   0  0  0  0  0  0  0  0  0  0  0  0
   -2.1704   -0.9194   -0.5136 C   0  0  0  0  0  0  0  0  0  0  0  0
   -1.3332   -1.8983   -0.9511 N   0  0  0  0  0  0  0  0  0  0  0  0
   -1.5850   -3.0389   -1.6141 C   0  0  0  0  0  0  0  0  0  0  0  0
   -0.4106   -3.6555   -1.8086 N   0  0  0  0  0  0  0  0  0  0  0  0
    0.5461   -2.9188   -1.2812 N   0  0  0  0  0  0  0  0  0  0  0  0
   -0.0056   -1.8223   -0.7432 C   0  0  0  0  0  0  0  0  0  0  0  0
    2.1912    1.4115   -0.2087 H   0  0  0  0  0  0  0  0  0  0  0  0
    4.3103    2.6621   -0.0960 H   0  0  0  0  0  0  0  0  0  0  0  0
    6.7827    2.6461    0.2922 H   0  0  0  0  0  0  0  0  0  0  0  0
    6.6532   -1.5125    0.9974 H   0  0  0  0  0  0  0  0  0  0  0  0
    0.1623    1.0781    0.8831 H   0  0  0  0  0  0  0  0  0  0  0  0
   -3.8510    2.1375   -1.4748 H   0  0  0  0  0  0  0  0  0  0  0  0
   -7.6633    0.9616   -0.1267 H   0  0  0  0  0  0  0  0  0  0  0  0
   -4.2506    0.0795    2.2628 H   0  0  0  0  0  0  0  0  0  0  0  0
   -3.2310   -1.0112   -0.6969 H   0  0  0  0  0  0  0  0  0  0  0  0
   -2.5728   -3.3933   -1.9340 H   0  0  0  0  0  0  0  0  0  0  0  0
  1  2  2  0
  2  3  1  0
  3  4  1  0
  4  5  2  0
  5  6  1  0
  6  7  2  0
  7  8  1  0
  7  9  1  0
  9 10  2  0
  2 11  1  0
 11 12  2  0
 12 13  1  0
 13 14  1  0
 14 15  1  0
 15 16  2  0
 16 17  1  0
 17 18  2  0
 18 19  1  0
 19 20  1  0
 19 21  2  0
 13 22  2  0
 22 23  1  0
 23 24  1  0
 24 25  2  0
 25 26  1  0
 26 27  2  0
 10  4  1  0
 27 11  1  0
 21 15  1  0
 27 23  1  0
  3 28  1  0
  5 29  1  0
  6 30  1  0
  9 31  1  0
 12 32  1  0
 16 33  1  0
 18 34  1  0
 21 35  1  0
 22 36  1  0
 24 37  1  0
M  END
$$$$
