@<TRIPOS>MOLECULE
*****
 55 59 0 0 0
SMALL
GASTEIGER

@<TRIPOS>ATOM
      1 N          -3.7789    2.6221    2.3798 N.pl3   1  UNL1       -0.3565
      2 C          -4.6672    1.8199    1.6206 C.ar    1  UNL1        0.0461
      3 C          -6.0400    1.8165    1.8582 C.ar    1  UNL1       -0.0386
      4 C          -6.9141    1.0350    1.1197 C.ar    1  UNL1       -0.0517
      5 C          -6.4252    0.2294    0.1141 C.ar    1  UNL1       -0.0094
      6 C          -7.3477   -0.6094   -0.6817 C.ar    1  UNL1        0.0194
      7 C          -7.0587   -1.4796   -1.7271 C.ar    1  UNL1       -0.0469
      8 C          -8.0712   -2.1216   -2.2824 C.ar    1  UNL1       -0.0541
      9 C          -9.3513   -1.9624   -1.8750 C.ar    1  UNL1       -0.0237
     10 S          -9.1026   -0.7258   -0.5054 S.2     1  UNL1       -0.0967
     11 C          -5.0827    0.2398   -0.1101 C.ar    1  UNL1       -0.0305
     12 C          -4.2075    1.0177    0.6240 C.ar    1  UNL1        0.0551
     13 N          -2.8252    0.9509    0.3050 N.am    1  UNL1       -0.2799
     14 C          -2.0193   -0.0061    0.9623 C.2     1  UNL1        0.2498
     15 O          -2.5604   -0.7650    1.8081 O.2     1  UNL1       -0.2698
     16 C          -0.6167   -0.1012    0.6639 C.ar    1  UNL1        0.0552
     17 C           0.1501   -1.0600    1.3380 C.ar    1  UNL1       -0.0449
     18 C           1.4913   -1.1420    1.0439 C.ar    1  UNL1       -0.0210
     19 C           2.0941   -0.3152    0.1141 C.ar    1  UNL1        0.1212
     20 N           3.4732   -0.4220   -0.1676 N.pl3   1  UNL1       -0.3149
     21 C           4.3259   -1.3869    0.4876 C.3     1  UNL1        0.0172
     22 C           5.7321   -1.3213   -0.1201 C.3     1  UNL1        0.0046
     23 C           6.2805    0.0637   -0.1787 C.3     1  UNL1        0.1334
     24 C           5.2465    1.1213   -0.4631 C.3     1  UNL1        0.0046
     25 C           4.0687    0.4572   -1.1422 C.3     1  UNL1        0.0172
     26 C           7.3396    0.1578   -1.2619 C.3     1  UNL1        0.0548
     27 N           8.5912    0.2167   -0.5386 N.am    1  UNL1       -0.2773
     28 C           8.3107    0.2817    0.8415 C.2     1  UNL1        0.4010
     29 O           9.1245    0.2218    1.8061 O.2     1  UNL1       -0.2265
     30 O           6.9419    0.4294    1.0314 O.3     1  UNL1       -0.4421
     31 N           1.3415    0.5905   -0.5148 N.ar    1  UNL1       -0.2396
     32 C           0.0321    0.6819   -0.2381 C.ar    1  UNL1        0.0418
     33 H          -3.8865    2.6713    3.3948 H       1  UNL1        0.1424
     34 H          -3.0206    3.1600    1.9153 H       1  UNL1        0.1424
     35 H          -6.3965    2.4562    2.6510 H       1  UNL1        0.0637
     36 H          -7.9776    1.0773    1.3548 H       1  UNL1        0.0624
     37 H          -5.9879   -1.5704   -2.0195 H       1  UNL1        0.0629
     38 H          -7.8986   -2.8469   -3.1416 H       1  UNL1        0.0623
     39 H         -10.2834   -2.3411   -2.1437 H       1  UNL1        0.0693
     40 H          -4.6964   -0.3960   -0.9036 H       1  UNL1        0.0643
     41 H          -2.4762    1.6324   -0.4169 H       1  UNL1        0.1552
     42 H          -0.3153   -1.7148    2.0712 H       1  UNL1        0.0627
     43 H           2.1022   -1.8958    1.5718 H       1  UNL1        0.0652
     44 H           4.4375   -1.2037    1.5571 H       1  UNL1        0.0465
     45 H           3.9707   -2.4243    0.3606 H       1  UNL1        0.0465
     46 H           5.7806   -1.8357   -1.0912 H       1  UNL1        0.0319
     47 H           6.3732   -1.9079    0.5843 H       1  UNL1        0.0319
     48 H           4.8520    1.5778    0.4898 H       1  UNL1        0.0319
     49 H           5.6614    1.9368   -1.0934 H       1  UNL1        0.0319
     50 H           4.4716   -0.1223   -2.0097 H       1  UNL1        0.0465
     51 H           3.3442    1.1683   -1.5657 H       1  UNL1        0.0465
     52 H           7.2905   -0.6894   -1.9502 H       1  UNL1        0.0502
     53 H           7.2012    1.0786   -1.8876 H       1  UNL1        0.0502
     54 H           9.5233    0.2101   -0.9917 H       1  UNL1        0.1521
     55 H          -0.5446    1.4447   -0.7837 H       1  UNL1        0.0838
@<TRIPOS>BOND
     1     1     2    1
     2     2     3   ar
     3     3     4   ar
     4     4     5   ar
     5     5     6    1
     6     6     7   ar
     7     7     8   ar
     8     8     9   ar
     9     9    10   ar
    10     5    11   ar
    11    11    12   ar
    12    12    13    1
    13    13    14   am
    14    14    15    2
    15    14    16    1
    16    16    17   ar
    17    17    18   ar
    18    18    19   ar
    19    19    20    1
    20    20    21    1
    21    21    22    1
    22    22    23    1
    23    23    24    1
    24    24    25    1
    25    23    26    1
    26    26    27    1
    27    27    28   am
    28    28    29    2
    29    28    30    1
    30    19    31   ar
    31    31    32   ar
    32    12     2   ar
    33    32    16   ar
    34    10     6   ar
    35    25    20    1
    36    30    23    1
    37     1    33    1
    38     1    34    1
    39     3    35    1
    40     4    36    1
    41     7    37    1
    42     8    38    1
    43     9    39    1
    44    11    40    1
    45    13    41    1
    46    17    42    1
    47    18    43    1
    48    21    44    1
    49    21    45    1
    50    22    46    1
    51    22    47    1
    52    24    48    1
    53    24    49    1
    54    25    50    1
    55    25    51    1
    56    26    52    1
    57    26    53    1
    58    27    54    1
    59    32    55    1
