
     RDKit          3D

 40 42  0  0  0  0  0  0  0  0999 V2000
    6.2535    1.9210    0.5444 C   0  0  0  0  0  0  0  0  0  0  0  0
    5.6860    0.6135    0.0869 C   0  0  0  0  0  0  0  0  0  0  0  0
    6.5194   -0.4075   -0.3198 C   0  0  0  0  0  0  0  0  0  0  0  0
    6.0057   -1.6288   -0.7477 C   0  0  0  0  0  0  0  0  0  0  0  0
    4.6414   -1.8406   -0.7725 C   0  0  0  0  0  0  0  0  0  0  0  0
    3.8378   -0.8011   -0.3601 C   0  0  0  0  0  0  0  0  0  0  0  0
    2.4247   -0.9460   -0.3583 N   0  0  0  0  0  0  0  0  0  0  0  0
    1.5515    0.0712    0.0485 C   0  0  0  0  0  0  0  0  0  0  0  0
    1.9950    1.1803    0.4379 O   0  0  0  0  0  0  0  0  0  0  0  0
    0.1045   -0.1098    0.0383 C   0  0  0  0  0  0  0  0  0  0  0  0
   -0.7543    0.8936    0.4396 C   0  0  0  0  0  0  0  0  0  0  0  0
   -2.1196    0.7095    0.4251 C   0  0  0  0  0  0  0  0  0  0  0  0
   -2.9909    1.7333    0.8343 O   0  0  0  0  0  0  0  0  0  0  0  0
   -4.3621    1.5214    0.8102 C   0  0  0  0  0  0  0  0  0  0  0  0
   -4.9656    1.0004    1.9471 C   0  0  0  0  0  0  0  0  0  0  0  0
   -6.2881    0.7801    1.9669 N   0  0  0  0  0  0  0  0  0  0  0  0
   -7.0910    1.0398    0.9233 C   0  0  0  0  0  0  0  0  0  0  0  0
   -6.5285    1.5617   -0.2340 C   0  0  0  0  0  0  0  0  0  0  0  0
   -7.2920    1.8391   -1.3080 F   0  0  0  0  0  0  0  0  0  0  0  0
   -5.1627    1.7920   -0.2616 C   0  0  0  0  0  0  0  0  0  0  0  0
   -2.5924   -0.5179   -0.0065 C   0  0  0  0  0  0  0  0  0  0  0  0
   -1.7274   -1.5265   -0.4099 C   0  0  0  0  0  0  0  0  0  0  0  0
   -2.2798   -2.8278   -0.8656 C   0  0  0  0  0  0  0  0  0  0  0  0
   -0.4133   -1.2832   -0.3718 N   0  0  0  0  0  0  0  0  0  0  0  0
    4.3628    0.3793    0.0524 N   0  0  0  0  0  0  0  0  0  0  0  0
    5.4461    2.5269    1.0001 H   0  0  0  0  0  0  0  0  0  0  0  0
    6.7966    2.4458   -0.2626 H   0  0  0  0  0  0  0  0  0  0  0  0
    6.9943    1.6978    1.3398 H   0  0  0  0  0  0  0  0  0  0  0  0
    7.5840   -0.2518   -0.3041 H   0  0  0  0  0  0  0  0  0  0  0  0
    6.6473   -2.4326   -1.0674 H   0  0  0  0  0  0  0  0  0  0  0  0
    4.1990   -2.7828   -1.1008 H   0  0  0  0  0  0  0  0  0  0  0  0
    1.9950   -1.8532   -0.6743 H   0  0  0  0  0  0  0  0  0  0  0  0
   -0.3380    1.8566    0.7765 H   0  0  0  0  0  0  0  0  0  0  0  0
   -4.3590    0.7820    2.7950 H   0  0  0  0  0  0  0  0  0  0  0  0
   -8.1638    0.8448    0.9827 H   0  0  0  0  0  0  0  0  0  0  0  0
   -4.7342    2.1953   -1.1583 H   0  0  0  0  0  0  0  0  0  0  0  0
   -3.6386   -0.7024   -0.0335 H   0  0  0  0  0  0  0  0  0  0  0  0
   -1.7145   -3.2000   -1.7432 H   0  0  0  0  0  0  0  0  0  0  0  0
   -2.1733   -3.5288   -0.0046 H   0  0  0  0  0  0  0  0  0  0  0  0
   -3.3554   -2.7448   -1.0704 H   0  0  0  0  0  0  0  0  0  0  0  0
  1  2  1  0
  2  3  2  0
  3  4  1  0
  4  5  2  0
  5  6  1  0
  6  7  1  0
  7  8  1  0
  8  9  2  0
  8 10  1  0
 10 11  2  0
 11 12  1  0
 12 13  1  0
 13 14  1  0
 14 15  2  0
 15 16  1  0
 16 17  2  0
 17 18  1  0
 18 19  1  0
 18 20  2  0
 12 21  2  0
 21 22  1  0
 22 23  1  0
 22 24  2  0
  6 25  2  0
 25  2  1  0
 24 10  1  0
 20 14  1  0
  1 26  1  0
  1 27  1  0
  1 28  1  0
  3 29  1  0
  4 30  1  0
  5 31  1  0
  7 32  1  0
 11 33  1  0
 15 34  1  0
 17 35  1  0
 20 36  1  0
 21 37  1  0
 23 38  1  0
 23 39  1  0
 23 40  1  0
M  END
$$$$
