@<TRIPOS>MOLECULE
*****
 40 42 0 0 0
SMALL
GASTEIGER

@<TRIPOS>ATOM
      1 C           6.2535    1.9210    0.5444 C.3     1  UNL1       -0.0223
      2 C           5.6860    0.6135    0.0869 C.ar    1  UNL1        0.0403
      3 C           6.5194   -0.4075   -0.3198 C.ar    1  UNL1       -0.0405
      4 C           6.0057   -1.6288   -0.7477 C.ar    1  UNL1       -0.0568
      5 C           4.6414   -1.8406   -0.7725 C.ar    1  UNL1       -0.0215
      6 C           3.8378   -0.8011   -0.3601 C.ar    1  UNL1        0.1254
      7 N           2.4247   -0.9460   -0.3583 N.am    1  UNL1       -0.2651
      8 C           1.5515    0.0712    0.0485 C.2     1  UNL1        0.2678
      9 O           1.9950    1.1803    0.4379 O.2     1  UNL1       -0.2681
     10 C           0.1045   -0.1098    0.0383 C.ar    1  UNL1        0.1295
     11 C          -0.7543    0.8936    0.4396 C.ar    1  UNL1        0.0112
     12 C          -2.1196    0.7095    0.4251 C.ar    1  UNL1        0.1324
     13 O          -2.9909    1.7333    0.8343 O.3     1  UNL1       -0.4543
     14 C          -4.3621    1.5214    0.8102 C.ar    1  UNL1        0.1492
     15 C          -4.9656    1.0004    1.9471 C.ar    1  UNL1        0.0700
     16 N          -6.2881    0.7801    1.9669 N.ar    1  UNL1       -0.2568
     17 C          -7.0910    1.0398    0.9233 C.ar    1  UNL1        0.0630
     18 C          -6.5285    1.5617   -0.2340 C.ar    1  UNL1        0.1449
     19 F          -7.2920    1.8391   -1.3080 F       1  UNL1       -0.2038
     20 C          -5.1627    1.7920   -0.2616 C.ar    1  UNL1        0.0189
     21 C          -2.5924   -0.5179   -0.0065 C.ar    1  UNL1        0.0018
     22 C          -1.7274   -1.5265   -0.4099 C.ar    1  UNL1        0.0426
     23 C          -2.2798   -2.8278   -0.8656 C.3     1  UNL1       -0.0222
     24 N          -0.4133   -1.2832   -0.3718 N.ar    1  UNL1       -0.2470
     25 N           4.3628    0.3793    0.0524 N.ar    1  UNL1       -0.2370
     26 H           5.4461    2.5269    1.0001 H       1  UNL1        0.0292
     27 H           6.7966    2.4458   -0.2626 H       1  UNL1        0.0292
     28 H           6.9943    1.6978    1.3398 H       1  UNL1        0.0292
     29 H           7.5840   -0.2518   -0.3041 H       1  UNL1        0.0635
     30 H           6.6473   -2.4326   -1.0674 H       1  UNL1        0.0619
     31 H           4.1990   -2.7828   -1.1008 H       1  UNL1        0.0652
     32 H           1.9950   -1.8532   -0.6743 H       1  UNL1        0.1566
     33 H          -0.3380    1.8566    0.7765 H       1  UNL1        0.0677
     34 H          -4.3590    0.7820    2.7950 H       1  UNL1        0.0867
     35 H          -8.1638    0.8448    0.9827 H       1  UNL1        0.0859
     36 H          -4.7342    2.1953   -1.1583 H       1  UNL1        0.0684
     37 H          -3.6386   -0.7024   -0.0335 H       1  UNL1        0.0672
     38 H          -1.7145   -3.2000   -1.7432 H       1  UNL1        0.0293
     39 H          -2.1733   -3.5288   -0.0046 H       1  UNL1        0.0293
     40 H          -3.3554   -2.7448   -1.0704 H       1  UNL1        0.0293
@<TRIPOS>BOND
     1     1     2    1
     2     2     3   ar
     3     3     4   ar
     4     4     5   ar
     5     5     6   ar
     6     6     7    1
     7     7     8   am
     8     8     9    2
     9     8    10    1
    10    10    11   ar
    11    11    12   ar
    12    12    13    1
    13    13    14    1
    14    14    15   ar
    15    15    16   ar
    16    16    17   ar
    17    17    18   ar
    18    18    19    1
    19    18    20   ar
    20    12    21   ar
    21    21    22   ar
    22    22    23    1
    23    22    24   ar
    24     6    25   ar
    25    25     2   ar
    26    24    10   ar
    27    20    14   ar
    28     1    26    1
    29     1    27    1
    30     1    28    1
    31     3    29    1
    32     4    30    1
    33     5    31    1
    34     7    32    1
    35    11    33    1
    36    15    34    1
    37    17    35    1
    38    20    36    1
    39    21    37    1
    40    23    38    1
    41    23    39    1
    42    23    40    1
