
     RDKit          3D

 73 78  0  0  0  0  0  0  0  0999 V2000
    3.8721   -1.2547   -0.6164 C   0  0  1  0  0  0  0  0  0  0  0  0
    3.0361   -1.1263    0.6398 C   0  0  0  0  0  0  0  0  0  0  0  0
    1.8500   -0.4938    0.2714 O   0  0  0  0  0  0  0  0  0  0  0  0
    0.8312   -0.2847    1.6065 P   0  0  0  0  0  0  0  0  0  0  0  0
    0.8258   -1.6610    2.5996 O   0  0  0  0  0  1  0  0  0  0  0  0
    1.3788    0.9054    2.3867 O   0  0  0  0  0  0  0  0  0  0  0  0
   -0.7470    0.0216    1.1545 O   0  0  0  0  0  0  0  0  0  0  0  0
   -1.0892   -0.4869   -0.4203 P   0  0  0  0  0  0  0  0  0  0  0  0
   -1.3785    0.9118   -1.3376 O   0  0  0  0  0  0  0  0  0  0  0  0
    0.1519   -1.1926   -0.9239 O   0  0  0  0  0  0  0  0  0  0  0  0
   -2.4367   -1.4774   -0.4908 O   0  0  0  0  0  0  0  0  0  0  0  0
   -3.4619   -0.8487    0.2511 C   0  0  0  0  0  0  0  0  0  0  0  0
   -4.6829   -1.7431    0.2065 C   0  0  1  0  0  0  0  0  0  0  0  0
   -5.6865   -1.1272    0.9335 O   0  0  0  0  0  0  0  0  0  0  0  0
   -6.8560   -1.2340    0.1928 C   0  0  1  0  0  0  0  0  0  0  0  0
   -7.8590   -0.2803    0.5492 N   0  0  0  0  0  4  0  0  0  0  0  0
   -9.0395   -0.7357    1.0066 C   0  0  0  0  0  0  0  0  0  0  0  0
  -10.0041    0.1670    1.3495 C   0  0  0  0  0  0  0  0  0  0  0  0
   -9.7838    1.5207    1.2336 C   0  0  0  0  0  0  0  0  0  0  0  0
   -8.5560    1.9230    0.7596 C   0  0  0  0  0  0  0  0  0  0  0  0
   -7.5645    1.0143    0.4066 C   0  0  0  0  0  0  0  0  0  0  0  0
   -8.2813    3.3474    0.6215 C   0  0  0  0  0  0  0  0  0  0  0  0
   -7.0673    3.8160    0.1511 O   0  0  0  0  0  0  0  0  0  0  0  0
   -9.1272    4.2463    0.9199 N   0  0  0  0  0  0  0  0  0  0  0  0
   -6.4269   -1.1591   -1.2576 C   0  0  2  0  0  0  0  0  0  0  0  0
   -7.3491   -1.7669   -2.1044 O   0  0  0  0  0  0  0  0  0  0  0  0
   -5.1171   -1.9159   -1.2047 C   0  0  2  0  0  0  0  0  0  0  0  0
   -5.3620   -3.2821   -1.4696 O   0  0  0  0  0  0  0  0  0  0  0  0
    4.1755   -0.0537   -1.2016 O   0  0  0  0  0  0  0  0  0  0  0  0
    5.5103   -0.0126   -1.5356 C   0  0  1  0  0  0  0  0  0  0  0  0
    6.1897    0.7896   -0.5310 N   0  0  0  0  0  0  0  0  0  0  0  0
    5.6230    1.5615    0.4411 C   0  0  0  0  0  0  0  0  0  0  0  0
    6.6112    2.1327    1.1539 N   0  0  0  0  0  0  0  0  0  0  0  0
    7.8232    1.7590    0.6792 C   0  0  0  0  0  0  0  0  0  0  0  0
    7.5289    0.9088   -0.3873 C   0  0  0  0  0  0  0  0  0  0  0  0
    8.5915    0.3786   -1.0582 N   0  0  0  0  0  0  0  0  0  0  0  0
    9.8716    0.6609   -0.7098 C   0  0  0  0  0  0  0  0  0  0  0  0
   10.1614    1.4809    0.3189 N   0  0  0  0  0  0  0  0  0  0  0  0
   11.2792    1.9511    0.9041 C   0  0  0  0  0  0  0  0  0  0  0  0
   10.9903    2.7899    1.9589 C   0  0  0  0  0  0  0  0  0  0  0  0
    9.6369    2.8161    1.9981 N   0  0  0  0  0  0  0  0  0  0  0  0
    9.1417    2.0347    1.0193 C   0  0  0  0  0  0  0  0  0  0  0  0
    6.0347   -1.4344   -1.4651 C   0  0  2  0  0  0  0  0  0  0  0  0
    5.7979   -2.1556   -2.6319 O   0  0  0  0  0  0  0  0  0  0  0  0
    5.1833   -1.9784   -0.3345 C   0  0  2  0  0  0  0  0  0  0  0  0
    5.0045   -3.3550   -0.4241 O   0  0  0  0  0  0  0  0  0  0  0  0
    3.3382   -1.8813   -1.3596 H   0  0  0  0  0  0  0  0  0  0  0  0
    3.5463   -0.5481    1.4183 H   0  0  0  0  0  0  0  0  0  0  0  0
    2.7736   -2.1578    0.9663 H   0  0  0  0  0  0  0  0  0  0  0  0
   -0.5214    1.3589   -1.5433 H   0  0  0  0  0  0  0  0  0  0  0  0
   -3.1183   -0.6992    1.2841 H   0  0  0  0  0  0  0  0  0  0  0  0
   -3.6903    0.1183   -0.2107 H   0  0  0  0  0  0  0  0  0  0  0  0
   -4.4250   -2.7455    0.6427 H   0  0  0  0  0  0  0  0  0  0  0  0
   -7.2108   -2.2942    0.3435 H   0  0  0  0  0  0  0  0  0  0  0  0
   -9.2114   -1.8086    1.0974 H   0  0  0  0  0  0  0  0  0  0  0  0
  -10.9475   -0.2215    1.7159 H   0  0  0  0  0  0  0  0  0  0  0  0
  -10.5807    2.1823    1.5187 H   0  0  0  0  0  0  0  0  0  0  0  0
   -6.6020    1.3316    0.0350 H   0  0  0  0  0  0  0  0  0  0  0  0
   -6.6171    4.6653    0.4758 H   0  0  0  0  0  0  0  0  0  0  0  0
  -10.0788    4.1451    1.2823 H   0  0  0  0  0  0  0  0  0  0  0  0
   -6.2217   -0.1074   -1.5716 H   0  0  0  0  0  0  0  0  0  0  0  0
   -7.2023   -1.4166   -3.0251 H   0  0  0  0  0  0  0  0  0  0  0  0
   -4.3916   -1.5102   -1.9484 H   0  0  0  0  0  0  0  0  0  0  0  0
   -5.1575   -3.4999   -2.4130 H   0  0  0  0  0  0  0  0  0  0  0  0
    5.6696    0.4338   -2.5433 H   0  0  0  0  0  0  0  0  0  0  0  0
    4.5633    1.6958    0.6144 H   0  0  0  0  0  0  0  0  0  0  0  0
   10.7001    0.2248   -1.2615 H   0  0  0  0  0  0  0  0  0  0  0  0
   12.2643    1.6654    0.5410 H   0  0  0  0  0  0  0  0  0  0  0  0
   11.6826    3.3068    2.6044 H   0  0  0  0  0  0  0  0  0  0  0  0
    7.1119   -1.4827   -1.2057 H   0  0  0  0  0  0  0  0  0  0  0  0
    5.1824   -1.6712   -3.2264 H   0  0  0  0  0  0  0  0  0  0  0  0
    5.5862   -1.6604    0.6284 H   0  0  0  0  0  0  0  0  0  0  0  0
    4.3336   -3.5009   -1.1374 H   0  0  0  0  0  0  0  0  0  0  0  0
  1  2  1  0
  2  3  1  0
  3  4  1  0
  4  5  1  0
  4  6  2  0
  4  7  1  0
  7  8  1  0
  8  9  1  0
  8 10  2  0
  8 11  1  0
 11 12  1  0
 12 13  1  0
 13 14  1  0
 14 15  1  0
 15 16  1  0
 16 17  2  0
 17 18  1  0
 18 19  2  0
 19 20  1  0
 20 21  2  0
 20 22  1  0
 22 23  1  0
 22 24  2  3
 15 25  1  0
 25 26  1  0
 25 27  1  0
 27 28  1  0
  1 29  1  0
 29 30  1  0
 30 31  1  0
 31 32  1  0
 32 33  2  0
 33 34  1  0
 34 35  2  0
 35 36  1  0
 36 37  2  0
 37 38  1  0
 38 39  1  0
 39 40  2  0
 40 41  1  0
 41 42  2  0
 30 43  1  0
 43 44  1  0
 43 45  1  0
 45 46  1  0
 45  1  1  0
 27 13  1  0
 35 31  1  0
 42 38  1  0
 21 16  1  0
 42 34  1  0
  1 47  1  6
  2 48  1  0
  2 49  1  0
  9 50  1  0
 12 51  1  0
 12 52  1  0
 13 53  1  1
 15 54  1  6
 17 55  1  0
 18 56  1  0
 19 57  1  0
 21 58  1  0
 23 59  1  0
 24 60  1  0
 25 61  1  6
 26 62  1  0
 27 63  1  6
 28 64  1  0
 30 65  1  6
 32 66  1  0
 37 67  1  0
 39 68  1  0
 40 69  1  0
 43 70  1  1
 44 71  1  0
 45 72  1  1
 46 73  1  0
M  CHG  2   5  -1  16   1
M  END
$$$$
