@<TRIPOS>MOLECULE
*****
 73 78 0 0 0
SMALL
GASTEIGER

@<TRIPOS>ATOM
      1 C           3.8721   -1.2547   -0.6164 C.3     1  UNL1        0.1133
      2 C           3.0361   -1.1263    0.6398 C.3     1  UNL1        0.0836
      3 O           1.8500   -0.4938    0.2714 O.3     1  UNL1       -0.3245
      4 P           0.8312   -0.2847    1.6065 P.3     1  UNL1        0.2222
      5 O           0.8258   -1.6610    2.5996 O.co2   1  UNL1       -0.4370
      6 O           1.3788    0.9054    2.3867 O.2     1  UNL1       -0.5170
      7 O          -0.7470    0.0216    1.1545 O.3     1  UNL1       -0.2292
      8 P          -1.0892   -0.4869   -0.4203 P.3     1  UNL1        0.4804
      9 O          -1.3785    0.9118   -1.3376 O.3     1  UNL1       -0.3023
     10 O           0.1519   -1.1926   -0.9239 O.2     1  UNL1       -0.2270
     11 O          -2.4367   -1.4774   -0.4908 O.3     1  UNL1       -0.2838
     12 C          -3.4619   -0.8487    0.2511 C.3     1  UNL1        0.0880
     13 C          -4.6829   -1.7431    0.2065 C.3     1  UNL1        0.1177
     14 O          -5.6865   -1.1272    0.9335 O.3     1  UNL1       -0.3094
     15 C          -6.8560   -1.2340    0.1928 C.3     1  UNL1        0.2949
     16 N          -7.8590   -0.2803    0.5492 N.ar    1  UNL1       -0.1731
     17 C          -9.0395   -0.7357    1.0066 C.ar    1  UNL1        0.1738
     18 C         -10.0041    0.1670    1.3495 C.ar    1  UNL1        0.0029
     19 C          -9.7838    1.5207    1.2336 C.ar    1  UNL1       -0.0382
     20 C          -8.5560    1.9230    0.7596 C.ar    1  UNL1        0.0993
     21 C          -7.5645    1.0143    0.4066 C.ar    1  UNL1        0.1860
     22 C          -8.2813    3.3474    0.6215 C.2     1  UNL1        0.2181
     23 O          -7.0673    3.8160    0.1511 O.2     1  UNL1       -0.4922
     24 N          -9.1272    4.2463    0.9199 N.2     1  UNL1       -0.2666
     25 C          -6.4269   -1.1591   -1.2576 C.3     1  UNL1        0.1727
     26 O          -7.3491   -1.7669   -2.1044 O.3     1  UNL1       -0.3803
     27 C          -5.1171   -1.9159   -1.2047 C.3     1  UNL1        0.1184
     28 O          -5.3620   -3.2821   -1.4696 O.3     1  UNL1       -0.3862
     29 O           4.1755   -0.0537   -1.2016 O.3     1  UNL1       -0.3456
     30 C           5.5103   -0.0126   -1.5356 C.3     1  UNL1        0.1667
     31 N           6.1897    0.7896   -0.5310 N.ar    1  UNL1       -0.2855
     32 C           5.6230    1.5615    0.4411 C.ar    1  UNL1        0.1004
     33 N           6.6112    2.1327    1.1539 N.ar    1  UNL1       -0.2303
     34 C           7.8232    1.7590    0.6792 C.ar    1  UNL1        0.1505
     35 C           7.5289    0.9088   -0.3873 C.ar    1  UNL1        0.1676
     36 N           8.5915    0.3786   -1.0582 N.ar    1  UNL1       -0.2173
     37 C           9.8716    0.6609   -0.7098 C.ar    1  UNL1        0.1039
     38 N          10.1614    1.4809    0.3189 N.ar    1  UNL1       -0.2885
     39 C          11.2792    1.9511    0.9041 C.ar    1  UNL1        0.0307
     40 C          10.9903    2.7899    1.9589 C.ar    1  UNL1        0.0465
     41 N           9.6369    2.8161    1.9981 N.ar    1  UNL1       -0.2339
     42 C           9.1417    2.0347    1.0193 C.ar    1  UNL1        0.1681
     43 C           6.0347   -1.4344   -1.4651 C.3     1  UNL1        0.1285
     44 O           5.7979   -2.1556   -2.6319 O.3     1  UNL1       -0.3847
     45 C           5.1833   -1.9784   -0.3345 C.3     1  UNL1        0.1135
     46 O           5.0045   -3.3550   -0.4241 O.3     1  UNL1       -0.3864
     47 H           3.3382   -1.8813   -1.3596 H       1  UNL1        0.0647
     48 H           3.5463   -0.5481    1.4183 H       1  UNL1        0.0591
     49 H           2.7736   -2.1578    0.9663 H       1  UNL1        0.0591
     50 H          -0.5214    1.3589   -1.5433 H       1  UNL1        0.2220
     51 H          -3.1183   -0.6992    1.2841 H       1  UNL1        0.0592
     52 H          -3.6903    0.1183   -0.2107 H       1  UNL1        0.0592
     53 H          -4.4250   -2.7455    0.6427 H       1  UNL1        0.0648
     54 H          -7.2108   -2.2942    0.3435 H       1  UNL1        0.1444
     55 H          -9.2114   -1.8086    1.0974 H       1  UNL1        0.1377
     56 H         -10.9475   -0.2215    1.7159 H       1  UNL1        0.0677
     57 H         -10.5807    2.1823    1.5187 H       1  UNL1        0.0629
     58 H          -6.6020    1.3316    0.0350 H       1  UNL1        0.1385
     59 H          -6.6171    4.6653    0.4758 H       1  UNL1        0.2937
     60 H         -10.0788    4.1451    1.2823 H       1  UNL1        0.1899
     61 H          -6.2217   -0.1074   -1.5716 H       1  UNL1        0.0716
     62 H          -7.2023   -1.4166   -3.0251 H       1  UNL1        0.2103
     63 H          -4.3916   -1.5102   -1.9484 H       1  UNL1        0.0649
     64 H          -5.1575   -3.4999   -2.4130 H       1  UNL1        0.2100
     65 H           5.6696    0.4338   -2.5433 H       1  UNL1        0.0866
     66 H           4.5633    1.6958    0.6144 H       1  UNL1        0.1030
     67 H          10.7001    0.2248   -1.2615 H       1  UNL1        0.1033
     68 H          12.2643    1.6654    0.5410 H       1  UNL1        0.0829
     69 H          11.6826    3.3068    2.6044 H       1  UNL1        0.0845
     70 H           7.1119   -1.4827   -1.2057 H       1  UNL1        0.0665
     71 H           5.1824   -1.6712   -3.2264 H       1  UNL1        0.2101
     72 H           5.5862   -1.6604    0.6284 H       1  UNL1        0.0647
     73 H           4.3336   -3.5009   -1.1374 H       1  UNL1        0.2100
@<TRIPOS>UNITY_ATOM_ATTR
5 1
charge -1
16 1
charge 1
@<TRIPOS>BOND
     1     1     2    1
     2     2     3    1
     3     3     4    1
     4     4     5    1
     5     4     6    2
     6     4     7    1
     7     7     8    1
     8     8     9    1
     9     8    10    2
    10     8    11    1
    11    11    12    1
    12    12    13    1
    13    13    14    1
    14    14    15    1
    15    15    16    1
    16    16    17   ar
    17    17    18   ar
    18    18    19   ar
    19    19    20   ar
    20    20    21   ar
    21    20    22    1
    22    22    23    1
    23    22    24    2
    24    15    25    1
    25    25    26    1
    26    25    27    1
    27    27    28    1
    28     1    29    1
    29    29    30    1
    30    30    31    1
    31    31    32   ar
    32    32    33   ar
    33    33    34   ar
    34    34    35   ar
    35    35    36   ar
    36    36    37   ar
    37    37    38   ar
    38    38    39   ar
    39    39    40   ar
    40    40    41   ar
    41    41    42   ar
    42    30    43    1
    43    43    44    1
    44    43    45    1
    45    45    46    1
    46    45     1    1
    47    27    13    1
    48    35    31   ar
    49    42    38   ar
    50    21    16   ar
    51    42    34   ar
    52     1    47    1
    53     2    48    1
    54     2    49    1
    55     9    50    1
    56    12    51    1
    57    12    52    1
    58    13    53    1
    59    15    54    1
    60    17    55    1
    61    18    56    1
    62    19    57    1
    63    21    58    1
    64    23    59    1
    65    24    60    1
    66    25    61    1
    67    26    62    1
    68    27    63    1
    69    28    64    1
    70    30    65    1
    71    32    66    1
    72    37    67    1
    73    39    68    1
    74    40    69    1
    75    43    70    1
    76    44    71    1
    77    45    72    1
    78    46    73    1
