
     RDKit          3D

 43 43  0  0  0  0  0  0  0  0999 V2000
   -0.4139    4.5375    0.3534 C   0  0  0  0  0  0  0  0  0  0  0  0
   -0.2556    3.1663   -0.2095 C   0  0  0  0  0  0  0  0  0  0  0  0
    0.0309    3.0832   -1.4268 O   0  0  0  0  0  0  0  0  0  0  0  0
   -0.4140    1.9920    0.5640 N   0  0  0  0  0  0  0  0  0  0  0  0
   -0.2567    0.6470    0.0034 C   0  0  2  0  0  0  0  0  0  0  0  0
   -1.5734   -0.0275    0.0704 C   0  0  1  0  0  0  0  0  0  0  0  0
   -2.3414    0.2070   -1.1365 N   0  0  0  0  0  0  0  0  0  0  0  0
   -3.6243    0.1003   -1.1705 C   0  0  0  0  0  0  0  0  0  0  0  0
   -4.3537    0.3351   -2.3651 N   0  0  0  0  0  0  0  0  0  0  0  0
   -4.3282   -0.2598    0.0103 N   0  0  0  0  0  0  0  0  0  0  0  0
   -1.5292   -1.4729    0.3058 C   0  0  0  0  0  0  0  0  0  0  0  0
   -0.4905   -2.0816    0.8405 C   0  0  0  0  0  0  0  0  0  0  0  0
   -0.4802   -3.5190    1.0601 C   0  0  0  0  0  0  0  0  0  0  0  0
    0.5154   -4.0754    1.5687 O   0  0  0  0  0  0  0  0  0  0  0  0
   -1.5829   -4.2817    0.7034 O   0  0  0  0  0  0  0  0  0  0  0  0
    0.5960   -1.3014    1.1877 O   0  0  0  0  0  0  0  0  0  0  0  0
    0.8694   -0.0414    0.6676 C   0  0  1  0  0  0  0  0  0  0  0  0
    2.0585   -0.2041   -0.2898 C   0  0  2  0  0  0  0  0  0  0  0  0
    1.6844   -1.0919   -1.2804 O   0  0  0  0  0  0  0  0  0  0  0  0
    3.2112   -0.8106    0.5126 C   0  0  2  0  0  0  0  0  0  0  0  0
    3.6217    0.0440    1.5191 O   0  0  0  0  0  0  0  0  0  0  0  0
    4.3708   -1.0935   -0.4080 C   0  0  0  0  0  0  0  0  0  0  0  0
    4.8402    0.0908   -0.9802 O   0  0  0  0  0  0  0  0  0  0  0  0
   -1.0418    4.5308    1.2625 H   0  0  0  0  0  0  0  0  0  0  0  0
   -0.8922    5.1816   -0.4086 H   0  0  0  0  0  0  0  0  0  0  0  0
    0.6087    4.9475    0.5616 H   0  0  0  0  0  0  0  0  0  0  0  0
   -0.6544    2.1151    1.5812 H   0  0  0  0  0  0  0  0  0  0  0  0
   -0.0051    0.7968   -1.0836 H   0  0  0  0  0  0  0  0  0  0  0  0
   -2.1820    0.4205    0.9055 H   0  0  0  0  0  0  0  0  0  0  0  0
   -5.0138   -0.3715   -2.7737 H   0  0  0  0  0  0  0  0  0  0  0  0
   -4.2554    1.2356   -2.8862 H   0  0  0  0  0  0  0  0  0  0  0  0
   -4.6657   -1.2501    0.0729 H   0  0  0  0  0  0  0  0  0  0  0  0
   -4.4904    0.4443    0.7670 H   0  0  0  0  0  0  0  0  0  0  0  0
   -2.3989   -2.0604    0.0223 H   0  0  0  0  0  0  0  0  0  0  0  0
   -1.5556   -5.2913    0.7856 H   0  0  0  0  0  0  0  0  0  0  0  0
    1.2672    0.5855    1.5161 H   0  0  0  0  0  0  0  0  0  0  0  0
    2.3797    0.7531   -0.6985 H   0  0  0  0  0  0  0  0  0  0  0  0
    1.2411   -1.8811   -0.9030 H   0  0  0  0  0  0  0  0  0  0  0  0
    2.8920   -1.7543    0.9918 H   0  0  0  0  0  0  0  0  0  0  0  0
    4.5972    0.1057    1.6208 H   0  0  0  0  0  0  0  0  0  0  0  0
    4.0412   -1.7330   -1.2614 H   0  0  0  0  0  0  0  0  0  0  0  0
    5.1907   -1.5443    0.1637 H   0  0  0  0  0  0  0  0  0  0  0  0
    4.7833    0.8272   -0.3364 H   0  0  0  0  0  0  0  0  0  0  0  0
  1  2  1  0
  2  3  2  0
  2  4  1  0
  4  5  1  0
  5  6  1  0
  6  7  1  0
  7  8  2  3
  8  9  1  0
  8 10  1  0
  6 11  1  0
 11 12  2  0
 12 13  1  0
 13 14  2  0
 13 15  1  0
 12 16  1  0
 16 17  1  0
 17 18  1  0
 18 19  1  0
 18 20  1  0
 20 21  1  0
 20 22  1  0
 22 23  1  0
 17  5  1  0
  1 24  1  0
  1 25  1  0
  1 26  1  0
  4 27  1  0
  5 28  1  6
  6 29  1  1
  9 30  1  0
  9 31  1  0
 10 32  1  0
 10 33  1  0
 11 34  1  0
 15 35  1  0
 17 36  1  1
 18 37  1  6
 19 38  1  0
 20 39  1  1
 21 40  1  0
 22 41  1  0
 22 42  1  0
 23 43  1  0
M  END
$$$$
