@<TRIPOS>MOLECULE
*****
 43 43 0 0 0
SMALL
GASTEIGER

@<TRIPOS>ATOM
      1 C          -0.4139    4.5375    0.3534 C.3     1  UNL1        0.0122
      2 C          -0.2556    3.1663   -0.2095 C.2     1  UNL1        0.2104
      3 O           0.0309    3.0832   -1.4268 O.2     1  UNL1       -0.2761
      4 N          -0.4140    1.9920    0.5640 N.am    1  UNL1       -0.3053
      5 C          -0.2567    0.6470    0.0034 C.3     1  UNL1        0.1030
      6 C          -1.5734   -0.0275    0.0704 C.3     1  UNL1        0.1588
      7 N          -2.3414    0.2070   -1.1365 N.pl3   1  UNL1       -0.1040
      8 C          -3.6243    0.1003   -1.1705 C.cat   1  UNL1        0.3771
      9 N          -4.3537    0.3351   -2.3651 N.pl3   1  UNL1       -0.2892
     10 N          -4.3282   -0.2598    0.0103 N.pl3   1  UNL1       -0.2892
     11 C          -1.5292   -1.4729    0.3058 C.2     1  UNL1        0.0067
     12 C          -0.4905   -2.0816    0.8405 C.2     1  UNL1        0.2042
     13 C          -0.4802   -3.5190    1.0601 C.2     1  UNL1        0.3717
     14 O           0.5154   -4.0754    1.5687 O.2     1  UNL1       -0.2417
     15 O          -1.5829   -4.2817    0.7034 O.3     1  UNL1       -0.4750
     16 O           0.5960   -1.3014    1.1877 O.2     1  UNL1       -0.4775
     17 C           0.8694   -0.0414    0.6676 C.3     1  UNL1        0.1505
     18 C           2.0585   -0.2041   -0.2898 C.3     1  UNL1        0.1217
     19 O           1.6844   -1.0919   -1.2804 O.3     1  UNL1       -0.3854
     20 C           3.2112   -0.8106    0.5126 C.3     1  UNL1        0.1075
     21 O           3.6217    0.0440    1.5191 O.3     1  UNL1       -0.3868
     22 C           4.3708   -1.0935   -0.4080 C.3     1  UNL1        0.0727
     23 O           4.8402    0.0908   -0.9802 O.3     1  UNL1       -0.3924
     24 H          -1.0418    4.5308    1.2625 H       1  UNL1        0.0322
     25 H          -0.8922    5.1816   -0.4086 H       1  UNL1        0.0322
     26 H           0.6087    4.9475    0.5616 H       1  UNL1        0.0322
     27 H          -0.6544    2.1151    1.5812 H       1  UNL1        0.1492
     28 H          -0.0051    0.7968   -1.0836 H       1  UNL1        0.0575
     29 H          -2.1820    0.4205    0.9055 H       1  UNL1        0.0796
     30 H          -5.0138   -0.3715   -2.7737 H       1  UNL1        0.2546
     31 H          -4.2554    1.2356   -2.8862 H       1  UNL1        0.2546
     32 H          -4.6657   -1.2501    0.0729 H       1  UNL1        0.2546
     33 H          -4.4904    0.4443    0.7670 H       1  UNL1        0.2546
     34 H          -2.3989   -2.0604    0.0223 H       1  UNL1        0.0647
     35 H          -1.5556   -5.2913    0.7856 H       1  UNL1        0.2955
     36 H           1.2672    0.5855    1.5161 H       1  UNL1        0.0780
     37 H           2.3797    0.7531   -0.6985 H       1  UNL1        0.0658
     38 H           1.2411   -1.8811   -0.9030 H       1  UNL1        0.2101
     39 H           2.8920   -1.7543    0.9918 H       1  UNL1        0.0643
     40 H           4.5972    0.1057    1.6208 H       1  UNL1        0.2100
     41 H           4.0412   -1.7330   -1.2614 H       1  UNL1        0.0584
     42 H           5.1907   -1.5443    0.1637 H       1  UNL1        0.0584
     43 H           4.7833    0.8272   -0.3364 H       1  UNL1        0.2095
@<TRIPOS>BOND
     1     1     2    1
     2     2     3    2
     3     2     4   am
     4     4     5    1
     5     5     6    1
     6     6     7    1
     7     7     8    2
     8     8     9    1
     9     8    10    1
    10     6    11    1
    11    11    12    2
    12    12    13    1
    13    13    14    2
    14    13    15    1
    15    12    16    1
    16    16    17    1
    17    17    18    1
    18    18    19    1
    19    18    20    1
    20    20    21    1
    21    20    22    1
    22    22    23    1
    23    17     5    1
    24     1    24    1
    25     1    25    1
    26     1    26    1
    27     4    27    1
    28     5    28    1
    29     6    29    1
    30     9    30    1
    31     9    31    1
    32    10    32    1
    33    10    33    1
    34    11    34    1
    35    15    35    1
    36    17    36    1
    37    18    37    1
    38    19    38    1
    39    20    39    1
    40    21    40    1
    41    22    41    1
    42    22    42    1
    43    23    43    1
