@<TRIPOS>MOLECULE
*****
 38 40 0 0 0
SMALL
GASTEIGER

@<TRIPOS>ATOM
      1 O           4.3548   -0.8088   -0.9383 O.2     1  UNL1       -0.2489
      2 C           4.6595    0.1011   -0.1345 C.2     1  UNL1        0.3256
      3 O           6.0042    0.4074    0.0250 O.3     1  UNL1       -0.4793
      4 C           3.6850    0.8751    0.6595 C.3     1  UNL1        0.1256
      5 C           3.4382    2.2256   -0.0244 C.3     1  UNL1       -0.0079
      6 C           2.0223    1.9634    0.4460 C.3     1  UNL1        0.0192
      7 N           2.3095    0.5425    0.4789 N.am    1  UNL1       -0.2718
      8 C           1.4923   -0.6468    0.3683 C.2     1  UNL1        0.3071
      9 O           2.0995   -1.7234    0.4440 O.2     1  UNL1       -0.2523
     10 N           0.0918   -0.5480    0.1857 N.am    1  UNL1       -0.2687
     11 C          -0.7762   -1.6579    0.0688 C.ar    1  UNL1        0.0439
     12 C          -0.4000   -2.9772    0.1135 C.ar    1  UNL1       -0.0215
     13 C          -1.3187   -4.0268   -0.0099 C.ar    1  UNL1        0.0428
     14 CL         -0.7895   -5.6937    0.0537 Cl      1  UNL1       -0.0835
     15 C          -2.6387   -3.6809   -0.1810 C.ar    1  UNL1       -0.0427
     16 C          -3.0200   -2.3581   -0.2264 C.ar    1  UNL1       -0.0508
     17 C          -2.1293   -1.3187   -0.1067 C.ar    1  UNL1        0.0063
     18 C          -2.5470    0.0737   -0.1567 C.ar    1  UNL1        0.0220
     19 C          -2.6265    0.8304   -1.3045 C.ar    1  UNL1       -0.0510
     20 C          -3.0353    2.1606   -1.2780 C.ar    1  UNL1       -0.0583
     21 C          -3.3727    2.7558   -0.0919 C.ar    1  UNL1       -0.0236
     22 C          -3.3001    2.0177    1.0654 C.ar    1  UNL1        0.1590
     23 F          -3.6379    2.6274    2.2213 F       1  UNL1       -0.2025
     24 C          -2.8934    0.7021    1.0210 C.ar    1  UNL1        0.1661
     25 F          -2.8483    0.0360    2.2210 F       1  UNL1       -0.2018
     26 H           6.7475   -0.2851   -0.1244 H       1  UNL1        0.2951
     27 H           4.0205    1.0032    1.7185 H       1  UNL1        0.0617
     28 H           3.5619    2.1695   -1.1318 H       1  UNL1        0.0304
     29 H           3.9559    3.0653    0.4454 H       1  UNL1        0.0304
     30 H           1.2983    2.2369   -0.3321 H       1  UNL1        0.0466
     31 H           1.8410    2.3852    1.4460 H       1  UNL1        0.0466
     32 H          -0.2643    0.4422    0.1425 H       1  UNL1        0.1564
     33 H           0.6305   -3.2620    0.2471 H       1  UNL1        0.0651
     34 H          -3.3707   -4.4757   -0.2792 H       1  UNL1        0.0632
     35 H          -4.0825   -2.1099   -0.3643 H       1  UNL1        0.0625
     36 H          -2.3685    0.3868   -2.2387 H       1  UNL1        0.0625
     37 H          -3.0995    2.7580   -2.1736 H       1  UNL1        0.0619
     38 H          -3.6938    3.8074   -0.0866 H       1  UNL1        0.0647
@<TRIPOS>BOND
     1     1     2    2
     2     2     3    1
     3     2     4    1
     4     4     5    1
     5     5     6    1
     6     6     7    1
     7     7     8   am
     8     8     9    2
     9     8    10   am
    10    10    11    1
    11    11    12   ar
    12    12    13   ar
    13    13    14    1
    14    13    15   ar
    15    15    16   ar
    16    16    17   ar
    17    17    18    1
    18    18    19   ar
    19    19    20   ar
    20    20    21   ar
    21    21    22   ar
    22    22    23    1
    23    22    24   ar
    24    24    25    1
    25     7     4    1
    26    17    11   ar
    27    24    18   ar
    28     3    26    1
    29     4    27    1
    30     5    28    1
    31     5    29    1
    32     6    30    1
    33     6    31    1
    34    10    32    1
    35    12    33    1
    36    15    34    1
    37    16    35    1
    38    19    36    1
    39    20    37    1
    40    21    38    1
