
     RDKit          3D

 38 40  0  0  0  0  0  0  0  0999 V2000
    4.3548   -0.8088   -0.9383 O   0  0  0  0  0  0  0  0  0  0  0  0
    4.6595    0.1011   -0.1345 C   0  0  0  0  0  0  0  0  0  0  0  0
    6.0042    0.4074    0.0250 O   0  0  0  0  0  0  0  0  0  0  0  0
    3.6850    0.8751    0.6595 C   0  0  1  0  0  0  0  0  0  0  0  0
    3.4382    2.2256   -0.0244 C   0  0  0  0  0  0  0  0  0  0  0  0
    2.0223    1.9634    0.4460 C   0  0  0  0  0  0  0  0  0  0  0  0
    2.3095    0.5425    0.4789 N   0  0  0  0  0  0  0  0  0  0  0  0
    1.4923   -0.6468    0.3683 C   0  0  0  0  0  0  0  0  0  0  0  0
    2.0995   -1.7234    0.4440 O   0  0  0  0  0  0  0  0  0  0  0  0
    0.0918   -0.5480    0.1857 N   0  0  0  0  0  0  0  0  0  0  0  0
   -0.7762   -1.6579    0.0688 C   0  0  0  0  0  0  0  0  0  0  0  0
   -0.4000   -2.9772    0.1135 C   0  0  0  0  0  0  0  0  0  0  0  0
   -1.3187   -4.0268   -0.0099 C   0  0  0  0  0  0  0  0  0  0  0  0
   -0.7895   -5.6937    0.0537 Cl  0  0  0  0  0  0  0  0  0  0  0  0
   -2.6387   -3.6809   -0.1810 C   0  0  0  0  0  0  0  0  0  0  0  0
   -3.0200   -2.3581   -0.2264 C   0  0  0  0  0  0  0  0  0  0  0  0
   -2.1293   -1.3187   -0.1067 C   0  0  0  0  0  0  0  0  0  0  0  0
   -2.5470    0.0737   -0.1567 C   0  0  0  0  0  0  0  0  0  0  0  0
   -2.6265    0.8304   -1.3045 C   0  0  0  0  0  0  0  0  0  0  0  0
   -3.0353    2.1606   -1.2780 C   0  0  0  0  0  0  0  0  0  0  0  0
   -3.3727    2.7558   -0.0919 C   0  0  0  0  0  0  0  0  0  0  0  0
   -3.3001    2.0177    1.0654 C   0  0  0  0  0  0  0  0  0  0  0  0
   -3.6379    2.6274    2.2213 F   0  0  0  0  0  0  0  0  0  0  0  0
   -2.8934    0.7021    1.0210 C   0  0  0  0  0  0  0  0  0  0  0  0
   -2.8483    0.0360    2.2210 F   0  0  0  0  0  0  0  0  0  0  0  0
    6.7475   -0.2851   -0.1244 H   0  0  0  0  0  0  0  0  0  0  0  0
    4.0205    1.0032    1.7185 H   0  0  0  0  0  0  0  0  0  0  0  0
    3.5619    2.1695   -1.1318 H   0  0  0  0  0  0  0  0  0  0  0  0
    3.9559    3.0653    0.4454 H   0  0  0  0  0  0  0  0  0  0  0  0
    1.2983    2.2369   -0.3321 H   0  0  0  0  0  0  0  0  0  0  0  0
    1.8410    2.3852    1.4460 H   0  0  0  0  0  0  0  0  0  0  0  0
   -0.2643    0.4422    0.1425 H   0  0  0  0  0  0  0  0  0  0  0  0
    0.6305   -3.2620    0.2471 H   0  0  0  0  0  0  0  0  0  0  0  0
   -3.3707   -4.4757   -0.2792 H   0  0  0  0  0  0  0  0  0  0  0  0
   -4.0825   -2.1099   -0.3643 H   0  0  0  0  0  0  0  0  0  0  0  0
   -2.3685    0.3868   -2.2387 H   0  0  0  0  0  0  0  0  0  0  0  0
   -3.0995    2.7580   -2.1736 H   0  0  0  0  0  0  0  0  0  0  0  0
   -3.6938    3.8074   -0.0866 H   0  0  0  0  0  0  0  0  0  0  0  0
  1  2  2  0
  2  3  1  0
  2  4  1  0
  4  5  1  0
  5  6  1  0
  6  7  1  0
  7  8  1  0
  8  9  2  0
  8 10  1  0
 10 11  1  0
 11 12  2  0
 12 13  1  0
 13 14  1  0
 13 15  2  0
 15 16  1  0
 16 17  2  0
 17 18  1  0
 18 19  2  0
 19 20  1  0
 20 21  2  0
 21 22  1  0
 22 23  1  0
 22 24  2  0
 24 25  1  0
  7  4  1  0
 17 11  1  0
 24 18  1  0
  3 26  1  0
  4 27  1  1
  5 28  1  0
  5 29  1  0
  6 30  1  0
  6 31  1  0
 10 32  1  0
 12 33  1  0
 15 34  1  0
 16 35  1  0
 19 36  1  0
 20 37  1  0
 21 38  1  0
M  END
$$$$
