@<TRIPOS>MOLECULE
*****
 43 44 0 0 0
SMALL
GASTEIGER

@<TRIPOS>ATOM
      1 C          -7.1259    0.7003    0.6210 C.3     1  UNL1       -0.0332
      2 C          -5.9152    0.0599    0.0539 C.ar    1  UNL1        0.0302
      3 C          -4.7734    0.8208   -0.1975 C.ar    1  UNL1        0.0202
      4 N          -3.6688    0.2231   -0.7176 N.ar    1  UNL1       -0.2701
      5 C          -2.5696    1.1232   -0.9249 C.3     1  UNL1        0.1592
      6 O          -1.3881    0.4982   -1.3161 O.3     1  UNL1       -0.3433
      7 C          -0.3701    1.3480   -0.9657 C.3     1  UNL1        0.1036
      8 C           0.9293    0.6047   -0.6771 C.3     1  UNL1        0.0889
      9 O           0.7454   -0.2919    0.3740 O.3     1  UNL1       -0.2835
     10 P           2.1662   -1.1460    0.7349 P.3     1  UNL1        0.4835
     11 O           2.8011   -0.7096    2.2171 O.3     1  UNL1       -0.3022
     12 O           1.8330   -2.6339    0.7699 O.2     1  UNL1       -0.2269
     13 O           3.2748   -0.7880   -0.4692 O.3     1  UNL1       -0.1858
     14 P           4.8048   -0.6535    0.2340 P.3     1  UNL1        0.4918
     15 O           4.9605   -1.7455    1.5237 O.3     1  UNL1       -0.3019
     16 O           5.0011    0.7749    0.7494 O.2     1  UNL1       -0.2265
     17 O           5.9467   -1.0370   -0.9566 O.3     1  UNL1       -0.1859
     18 P           7.4869   -0.7073   -0.3213 P.3     1  UNL1        0.4808
     19 O           8.5780   -1.7522   -1.0632 O.3     1  UNL1       -0.3023
     20 O           7.8715    0.8809   -0.7781 O.3     1  UNL1       -0.3023
     21 O           7.4495   -0.8736    1.1771 O.2     1  UNL1       -0.2271
     22 C          -0.7999    1.8987    0.3661 C.2     1  UNL1       -0.0531
     23 C          -2.1283    1.7552    0.3735 C.2     1  UNL1       -0.0363
     24 C          -3.7243   -1.0863   -0.9697 C.ar    1  UNL1        0.3316
     25 O          -2.6605   -1.5623   -1.4500 O.2     1  UNL1       -0.2464
     26 N          -4.8072   -1.8206   -0.7339 N.ar    1  UNL1       -0.2746
     27 C          -5.9456   -1.3072   -0.2191 C.ar    1  UNL1        0.2568
     28 O          -6.9830   -1.9632    0.0167 O.2     1  UNL1       -0.2674
     29 H          -6.9974    1.8169    0.5549 H       1  UNL1        0.0280
     30 H          -7.2361    0.5014    1.7262 H       1  UNL1        0.0280
     31 H          -8.0604    0.4509    0.0904 H       1  UNL1        0.0280
     32 H          -4.8294    1.8772    0.0420 H       1  UNL1        0.0816
     33 H          -2.8389    1.9742   -1.5834 H       1  UNL1        0.0887
     34 H          -0.1944    2.1389   -1.7152 H       1  UNL1        0.0664
     35 H           1.2019    0.0958   -1.6179 H       1  UNL1        0.0595
     36 H           1.7461    1.3239   -0.4662 H       1  UNL1        0.0595
     37 H           2.6798    0.2521    2.4408 H       1  UNL1        0.2220
     38 H           5.3174   -1.3113    2.3480 H       1  UNL1        0.2220
     39 H           8.2394   -2.6813   -0.9809 H       1  UNL1        0.2220
     40 H           8.0127    1.4491    0.0202 H       1  UNL1        0.2220
     41 H          -0.3381    2.3377    1.2296 H       1  UNL1        0.0597
     42 H          -2.8859    1.9972    1.0986 H       1  UNL1        0.0614
     43 H          -4.8058   -2.8326   -0.9445 H       1  UNL1        0.1734
@<TRIPOS>BOND
     1     1     2    1
     2     2     3   ar
     3     3     4   ar
     4     4     5    1
     5     5     6    1
     6     6     7    1
     7     7     8    1
     8     8     9    1
     9    10     9    1
    10    10    11    1
    11    10    12    2
    12    10    13    1
    13    14    13    1
    14    14    15    1
    15    14    16    2
    16    14    17    1
    17    17    18    1
    18    18    19    1
    19    18    20    1
    20    18    21    2
    21     7    22    1
    22    22    23    2
    23     4    24   ar
    24    24    25    2
    25    24    26   ar
    26    26    27   ar
    27    27    28    2
    28    27     2   ar
    29    23     5    1
    30     1    29    1
    31     1    30    1
    32     1    31    1
    33     3    32    1
    34     5    33    1
    35     7    34    1
    36     8    35    1
    37     8    36    1
    38    11    37    1
    39    15    38    1
    40    19    39    1
    41    20    40    1
    42    22    41    1
    43    23    42    1
    44    26    43    1
