@<TRIPOS>MOLECULE
*****
 73 77 0 0 0
SMALL
GASTEIGER

@<TRIPOS>ATOM
      1 O           5.7718    1.1365   -0.2898 O.2     1  UNL1       -0.2702
      2 C           6.8427    0.4518   -0.2934 C.2     1  UNL1        0.2445
      3 N           6.8084   -0.8896   -0.7528 N.am    1  UNL1       -0.3027
      4 C           5.5263   -1.4268   -1.2034 C.3     1  UNL1        0.0886
      5 C           4.5318   -1.4006   -0.1038 C.2     1  UNL1        0.2328
      6 O           4.8874   -0.9562    1.0146 O.2     1  UNL1       -0.2739
      7 N           3.2267   -1.8601   -0.3057 N.am    1  UNL1       -0.2987
      8 C           2.7127   -2.3956   -1.5725 C.3     1  UNL1        0.0162
      9 C           1.2050   -2.0334   -1.4258 C.3     1  UNL1       -0.0202
     10 C           0.9532   -2.4858   -0.0371 C.3     1  UNL1        0.0250
     11 N          -0.1760   -2.0517    0.6590 N.3     1  UNL1       -0.3090
     12 C          -1.4838   -2.4201    0.2366 C.3     1  UNL1        0.0081
     13 C          -2.4113   -2.0414    1.3936 C.3     1  UNL1       -0.0346
     14 C          -3.8501   -2.1093    1.0230 C.3     1  UNL1       -0.0170
     15 C          -4.1770   -1.4535   -0.2892 C.3     1  UNL1        0.1077
     16 O          -4.4086   -2.4623   -1.2239 O.3     1  UNL1       -0.3824
     17 C          -5.3474   -0.5375   -0.1524 C.ar    1  UNL1        0.0727
     18 C          -5.7747    0.1393   -1.2614 C.ar    1  UNL1       -0.0370
     19 C          -6.8351    0.9954   -1.1920 C.ar    1  UNL1       -0.0507
     20 C          -7.4924    1.1896    0.0031 C.ar    1  UNL1        0.0017
     21 C          -8.6206    2.1090    0.0680 C.ar    1  UNL1        0.0017
     22 C          -9.4753    2.3172   -0.9937 C.ar    1  UNL1       -0.0511
     23 C         -10.5384    3.1988   -0.9028 C.ar    1  UNL1       -0.0430
     24 C         -10.7462    3.8751    0.2586 C.ar    1  UNL1        0.0276
     25 N          -9.9121    3.6789    1.3108 N.ar    1  UNL1       -0.2627
     26 C          -8.8807    2.8223    1.2187 C.ar    1  UNL1        0.0353
     27 C          -7.0384    0.4929    1.1029 C.ar    1  UNL1        0.0357
     28 N          -5.9850   -0.3503    1.0103 N.ar    1  UNL1       -0.2564
     29 C          -2.9663   -0.6510   -0.7172 C.3     1  UNL1       -0.0170
     30 C          -1.8694   -1.6950   -1.0052 C.3     1  UNL1       -0.0346
     31 C           2.1755   -1.8798    0.6919 C.3     1  UNL1        0.0302
     32 C           8.0693    1.0634    0.1728 C.ar    1  UNL1        0.0372
     33 C           9.2893    0.4360    0.2274 C.ar    1  UNL1       -0.0496
     34 C          10.4248    1.0610    0.6770 C.ar    1  UNL1       -0.0605
     35 C          10.3890    2.3662    1.1000 C.ar    1  UNL1       -0.0501
     36 C           9.1826    3.0354    1.0620 C.ar    1  UNL1        0.0555
     37 C           9.1267    4.4499    1.5163 C.3     1  UNL1        0.4174
     38 F          10.2094    4.7523    2.2879 F       1  UNL1       -0.1659
     39 F           7.9566    4.6214    2.2148 F       1  UNL1       -0.1659
     40 F           9.1305    5.2443    0.3888 F       1  UNL1       -0.1659
     41 C           8.0564    2.3911    0.6079 C.ar    1  UNL1       -0.0380
     42 H           7.6781   -1.4705   -0.7662 H       1  UNL1        0.1495
     43 H           5.6758   -2.4706   -1.5894 H       1  UNL1        0.0558
     44 H           5.2070   -0.7568   -2.0406 H       1  UNL1        0.0558
     45 H           3.1662   -1.8631   -2.4181 H       1  UNL1        0.0465
     46 H           2.8354   -3.4949   -1.5940 H       1  UNL1        0.0465
     47 H           1.1948   -0.9259   -1.5675 H       1  UNL1        0.0296
     48 H           0.6827   -2.5967   -2.2129 H       1  UNL1        0.0296
     49 H           1.0794   -3.6122   -0.0303 H       1  UNL1        0.0476
     50 H          -0.0197   -2.0804    1.6777 H       1  UNL1        0.1225
     51 H          -1.5163   -3.5170    0.0936 H       1  UNL1        0.0460
     52 H          -2.2137   -2.7851    2.1917 H       1  UNL1        0.0281
     53 H          -2.0944   -1.0554    1.7848 H       1  UNL1        0.0281
     54 H          -4.2579   -3.1234    1.0315 H       1  UNL1        0.0297
     55 H          -4.4159   -1.5441    1.8174 H       1  UNL1        0.0297
     56 H          -5.3600   -2.7268   -1.1296 H       1  UNL1        0.2107
     57 H          -5.2963    0.0279   -2.2356 H       1  UNL1        0.0637
     58 H          -7.1639    1.5281   -2.0866 H       1  UNL1        0.0625
     59 H          -9.3072    1.7721   -1.9275 H       1  UNL1        0.0625
     60 H         -11.2081    3.3659   -1.7268 H       1  UNL1        0.0633
     61 H         -11.5767    4.5717    0.3477 H       1  UNL1        0.0829
     62 H          -8.2444    2.6981    2.0786 H       1  UNL1        0.0836
     63 H          -7.5658    0.6532    2.0455 H       1  UNL1        0.0836
     64 H          -2.5846   -0.0229    0.0918 H       1  UNL1        0.0297
     65 H          -3.1323   -0.1184   -1.6733 H       1  UNL1        0.0297
     66 H          -2.3645   -2.4272   -1.7082 H       1  UNL1        0.0281
     67 H          -1.0918   -1.2039   -1.5695 H       1  UNL1        0.0281
     68 H           2.4098   -2.4773    1.5751 H       1  UNL1        0.0480
     69 H           1.9158   -0.8300    0.9593 H       1  UNL1        0.0480
     70 H           9.3677   -0.5870   -0.0927 H       1  UNL1        0.0625
     71 H          11.3480    0.5218    0.6970 H       1  UNL1        0.0618
     72 H          11.2699    2.8998    1.4651 H       1  UNL1        0.0623
     73 H           7.0957    2.9233    0.5770 H       1  UNL1        0.0631
@<TRIPOS>BOND
     1     1     2    2
     2     2     3   am
     3     3     4    1
     4     4     5    1
     5     5     6    2
     6     5     7   am
     7     7     8    1
     8     8     9    1
     9     9    10    1
    10    10    11    1
    11    11    12    1
    12    12    13    1
    13    13    14    1
    14    14    15    1
    15    15    16    1
    16    15    17    1
    17    17    18   ar
    18    18    19   ar
    19    19    20   ar
    20    20    21    1
    21    21    22   ar
    22    22    23   ar
    23    23    24   ar
    24    24    25   ar
    25    25    26   ar
    26    20    27   ar
    27    27    28   ar
    28    15    29    1
    29    29    30    1
    30    10    31    1
    31     2    32    1
    32    32    33   ar
    33    33    34   ar
    34    34    35   ar
    35    35    36   ar
    36    36    37    1
    37    37    38    1
    38    37    39    1
    39    37    40    1
    40    36    41   ar
    41    31     7    1
    42    41    32   ar
    43    30    12    1
    44    28    17   ar
    45    26    21   ar
    46     3    42    1
    47     4    43    1
    48     4    44    1
    49     8    45    1
    50     8    46    1
    51     9    47    1
    52     9    48    1
    53    10    49    1
    54    11    50    1
    55    12    51    1
    56    13    52    1
    57    13    53    1
    58    14    54    1
    59    14    55    1
    60    16    56    1
    61    18    57    1
    62    19    58    1
    63    22    59    1
    64    23    60    1
    65    24    61    1
    66    26    62    1
    67    27    63    1
    68    29    64    1
    69    29    65    1
    70    30    66    1
    71    30    67    1
    72    31    68    1
    73    31    69    1
    74    33    70    1
    75    34    71    1
    76    35    72    1
    77    41    73    1
