
     RDKit          3D

 73 77  0  0  0  0  0  0  0  0999 V2000
    5.7718    1.1365   -0.2898 O   0  0  0  0  0  0  0  0  0  0  0  0
    6.8427    0.4518   -0.2934 C   0  0  0  0  0  0  0  0  0  0  0  0
    6.8084   -0.8896   -0.7528 N   0  0  0  0  0  0  0  0  0  0  0  0
    5.5263   -1.4268   -1.2034 C   0  0  0  0  0  0  0  0  0  0  0  0
    4.5318   -1.4006   -0.1038 C   0  0  0  0  0  0  0  0  0  0  0  0
    4.8874   -0.9562    1.0146 O   0  0  0  0  0  0  0  0  0  0  0  0
    3.2267   -1.8601   -0.3057 N   0  0  0  0  0  0  0  0  0  0  0  0
    2.7127   -2.3956   -1.5725 C   0  0  0  0  0  0  0  0  0  0  0  0
    1.2050   -2.0334   -1.4258 C   0  0  0  0  0  0  0  0  0  0  0  0
    0.9532   -2.4858   -0.0371 C   0  0  2  0  0  0  0  0  0  0  0  0
   -0.1760   -2.0517    0.6590 N   0  0  0  0  0  0  0  0  0  0  0  0
   -1.4838   -2.4201    0.2366 C   0  0  1  0  0  0  0  0  0  0  0  0
   -2.4113   -2.0414    1.3936 C   0  0  0  0  0  0  0  0  0  0  0  0
   -3.8501   -2.1093    1.0230 C   0  0  0  0  0  0  0  0  0  0  0  0
   -4.1770   -1.4535   -0.2892 C   0  0  1  0  0  0  0  0  0  0  0  0
   -4.4086   -2.4623   -1.2239 O   0  0  0  0  0  0  0  0  0  0  0  0
   -5.3474   -0.5375   -0.1524 C   0  0  0  0  0  0  0  0  0  0  0  0
   -5.7747    0.1393   -1.2614 C   0  0  0  0  0  0  0  0  0  0  0  0
   -6.8351    0.9954   -1.1920 C   0  0  0  0  0  0  0  0  0  0  0  0
   -7.4924    1.1896    0.0031 C   0  0  0  0  0  0  0  0  0  0  0  0
   -8.6206    2.1090    0.0680 C   0  0  0  0  0  0  0  0  0  0  0  0
   -9.4753    2.3172   -0.9937 C   0  0  0  0  0  0  0  0  0  0  0  0
  -10.5384    3.1988   -0.9028 C   0  0  0  0  0  0  0  0  0  0  0  0
  -10.7462    3.8751    0.2586 C   0  0  0  0  0  0  0  0  0  0  0  0
   -9.9121    3.6789    1.3108 N   0  0  0  0  0  0  0  0  0  0  0  0
   -8.8807    2.8223    1.2187 C   0  0  0  0  0  0  0  0  0  0  0  0
   -7.0384    0.4929    1.1029 C   0  0  0  0  0  0  0  0  0  0  0  0
   -5.9850   -0.3503    1.0103 N   0  0  0  0  0  0  0  0  0  0  0  0
   -2.9663   -0.6510   -0.7172 C   0  0  0  0  0  0  0  0  0  0  0  0
   -1.8694   -1.6950   -1.0052 C   0  0  0  0  0  0  0  0  0  0  0  0
    2.1755   -1.8798    0.6919 C   0  0  0  0  0  0  0  0  0  0  0  0
    8.0693    1.0634    0.1728 C   0  0  0  0  0  0  0  0  0  0  0  0
    9.2893    0.4360    0.2274 C   0  0  0  0  0  0  0  0  0  0  0  0
   10.4248    1.0610    0.6770 C   0  0  0  0  0  0  0  0  0  0  0  0
   10.3890    2.3662    1.1000 C   0  0  0  0  0  0  0  0  0  0  0  0
    9.1826    3.0354    1.0620 C   0  0  0  0  0  0  0  0  0  0  0  0
    9.1267    4.4499    1.5163 C   0  0  0  0  0  0  0  0  0  0  0  0
   10.2094    4.7523    2.2879 F   0  0  0  0  0  0  0  0  0  0  0  0
    7.9566    4.6214    2.2148 F   0  0  0  0  0  0  0  0  0  0  0  0
    9.1305    5.2443    0.3888 F   0  0  0  0  0  0  0  0  0  0  0  0
    8.0564    2.3911    0.6079 C   0  0  0  0  0  0  0  0  0  0  0  0
    7.6781   -1.4705   -0.7662 H   0  0  0  0  0  0  0  0  0  0  0  0
    5.6758   -2.4706   -1.5894 H   0  0  0  0  0  0  0  0  0  0  0  0
    5.2070   -0.7568   -2.0406 H   0  0  0  0  0  0  0  0  0  0  0  0
    3.1662   -1.8631   -2.4181 H   0  0  0  0  0  0  0  0  0  0  0  0
    2.8354   -3.4949   -1.5940 H   0  0  0  0  0  0  0  0  0  0  0  0
    1.1948   -0.9259   -1.5675 H   0  0  0  0  0  0  0  0  0  0  0  0
    0.6827   -2.5967   -2.2129 H   0  0  0  0  0  0  0  0  0  0  0  0
    1.0794   -3.6122   -0.0303 H   0  0  0  0  0  0  0  0  0  0  0  0
   -0.0197   -2.0804    1.6777 H   0  0  0  0  0  0  0  0  0  0  0  0
   -1.5163   -3.5170    0.0936 H   0  0  0  0  0  0  0  0  0  0  0  0
   -2.2137   -2.7851    2.1917 H   0  0  0  0  0  0  0  0  0  0  0  0
   -2.0944   -1.0554    1.7848 H   0  0  0  0  0  0  0  0  0  0  0  0
   -4.2579   -3.1234    1.0315 H   0  0  0  0  0  0  0  0  0  0  0  0
   -4.4159   -1.5441    1.8174 H   0  0  0  0  0  0  0  0  0  0  0  0
   -5.3600   -2.7268   -1.1296 H   0  0  0  0  0  0  0  0  0  0  0  0
   -5.2963    0.0279   -2.2356 H   0  0  0  0  0  0  0  0  0  0  0  0
   -7.1639    1.5281   -2.0866 H   0  0  0  0  0  0  0  0  0  0  0  0
   -9.3072    1.7721   -1.9275 H   0  0  0  0  0  0  0  0  0  0  0  0
  -11.2081    3.3659   -1.7268 H   0  0  0  0  0  0  0  0  0  0  0  0
  -11.5767    4.5717    0.3477 H   0  0  0  0  0  0  0  0  0  0  0  0
   -8.2444    2.6981    2.0786 H   0  0  0  0  0  0  0  0  0  0  0  0
   -7.5658    0.6532    2.0455 H   0  0  0  0  0  0  0  0  0  0  0  0
   -2.5846   -0.0229    0.0918 H   0  0  0  0  0  0  0  0  0  0  0  0
   -3.1323   -0.1184   -1.6733 H   0  0  0  0  0  0  0  0  0  0  0  0
   -2.3645   -2.4272   -1.7082 H   0  0  0  0  0  0  0  0  0  0  0  0
   -1.0918   -1.2039   -1.5695 H   0  0  0  0  0  0  0  0  0  0  0  0
    2.4098   -2.4773    1.5751 H   0  0  0  0  0  0  0  0  0  0  0  0
    1.9158   -0.8300    0.9593 H   0  0  0  0  0  0  0  0  0  0  0  0
    9.3677   -0.5870   -0.0927 H   0  0  0  0  0  0  0  0  0  0  0  0
   11.3480    0.5218    0.6970 H   0  0  0  0  0  0  0  0  0  0  0  0
   11.2699    2.8998    1.4651 H   0  0  0  0  0  0  0  0  0  0  0  0
    7.0957    2.9233    0.5770 H   0  0  0  0  0  0  0  0  0  0  0  0
  1  2  2  0
  2  3  1  0
  3  4  1  0
  4  5  1  0
  5  6  2  0
  5  7  1  0
  7  8  1  0
  8  9  1  0
  9 10  1  0
 10 11  1  0
 11 12  1  0
 12 13  1  0
 13 14  1  0
 14 15  1  0
 15 16  1  6
 15 17  1  0
 17 18  2  0
 18 19  1  0
 19 20  2  0
 20 21  1  0
 21 22  2  0
 22 23  1  0
 23 24  2  0
 24 25  1  0
 25 26  2  0
 20 27  1  0
 27 28  2  0
 15 29  1  0
 29 30  1  0
 10 31  1  0
  2 32  1  0
 32 33  2  0
 33 34  1  0
 34 35  2  0
 35 36  1  0
 36 37  1  0
 37 38  1  0
 37 39  1  0
 37 40  1  0
 36 41  2  0
 31  7  1  0
 41 32  1  0
 30 12  1  0
 28 17  1  0
 26 21  1  0
  3 42  1  0
  4 43  1  0
  4 44  1  0
  8 45  1  0
  8 46  1  0
  9 47  1  0
  9 48  1  0
 10 49  1  6
 11 50  1  0
 12 51  1  6
 13 52  1  0
 13 53  1  0
 14 54  1  0
 14 55  1  0
 16 56  1  0
 18 57  1  0
 19 58  1  0
 22 59  1  0
 23 60  1  0
 24 61  1  0
 26 62  1  0
 27 63  1  0
 29 64  1  0
 29 65  1  0
 30 66  1  0
 30 67  1  0
 31 68  1  0
 31 69  1  0
 33 70  1  0
 34 71  1  0
 35 72  1  0
 41 73  1  0
M  END
$$$$
