@<TRIPOS>MOLECULE
*****
 37 39 0 0 0
SMALL
GASTEIGER

@<TRIPOS>ATOM
      1 C          -2.8331    2.4158   -0.4976 C.3     1  UNL1       -0.0390
      2 C          -3.1426    1.1139    0.0941 C.ar    1  UNL1       -0.0398
      3 C          -4.3231    0.8592    0.7521 C.ar    1  UNL1       -0.0401
      4 C          -4.5969   -0.3738    1.3031 C.ar    1  UNL1        0.0286
      5 N          -3.6769   -1.3413    1.1861 N.ar    1  UNL1       -0.2531
      6 C          -2.5039   -1.1708    0.5603 C.ar    1  UNL1        0.0918
      7 C          -1.5939   -2.2091    0.4721 C.ar    1  UNL1        0.0511
      8 N          -1.9152   -3.4643    1.0537 N.pl3   1  UNL1       -0.3563
      9 C          -0.4147   -1.9482   -0.1873 C.ar    1  UNL1       -0.0354
     10 C          -0.1271   -0.7205   -0.7433 C.ar    1  UNL1       -0.0405
     11 C           1.1393   -0.4700   -1.4415 C.3     1  UNL1        0.0023
     12 C           2.2031    0.0261   -0.5440 C.ar    1  UNL1        0.0146
     13 C           2.0382    0.2340    0.7923 C.ar    1  UNL1        0.0379
     14 N           3.0454    0.6880    1.5606 N.ar    1  UNL1       -0.2227
     15 C           4.2647    0.9549    1.0254 C.ar    1  UNL1        0.2142
     16 N           5.3120    1.4363    1.8726 N.pl3   1  UNL1       -0.3274
     17 N           4.4393    0.7551   -0.2841 N.ar    1  UNL1       -0.1999
     18 C           3.4399    0.2961   -1.0904 C.ar    1  UNL1        0.1247
     19 N           3.7006    0.1070   -2.4797 N.pl3   1  UNL1       -0.3428
     20 C          -1.0429    0.2905   -0.6430 C.ar    1  UNL1       -0.0487
     21 C          -2.2296    0.0844    0.0015 C.ar    1  UNL1        0.0054
     22 H          -3.7656    3.0233   -0.4760 H       1  UNL1        0.0278
     23 H          -2.0991    3.0072    0.1255 H       1  UNL1        0.0278
     24 H          -2.5241    2.3742   -1.5603 H       1  UNL1        0.0278
     25 H          -5.0437    1.6417    0.8354 H       1  UNL1        0.0635
     26 H          -5.5533   -0.5575    1.8285 H       1  UNL1        0.0830
     27 H          -2.3028   -4.2245    0.4266 H       1  UNL1        0.1424
     28 H          -1.8005   -3.6980    2.0469 H       1  UNL1        0.1424
     29 H           0.3114   -2.7599   -0.2634 H       1  UNL1        0.0639
     30 H           0.9663    0.2998   -2.2177 H       1  UNL1        0.0363
     31 H           1.4637   -1.3959   -1.9681 H       1  UNL1        0.0363
     32 H           1.0840    0.0347    1.2604 H       1  UNL1        0.0834
     33 H           5.5784    0.9637    2.7417 H       1  UNL1        0.1452
     34 H           5.8018    2.3036    1.5632 H       1  UNL1        0.1452
     35 H           4.1474   -0.7286   -2.8829 H       1  UNL1        0.1437
     36 H           3.4234    0.8652   -3.1578 H       1  UNL1        0.1437
     37 H          -0.8702    1.2878   -1.0651 H       1  UNL1        0.0627
@<TRIPOS>BOND
     1     1     2    1
     2     2     3   ar
     3     3     4   ar
     4     4     5   ar
     5     5     6   ar
     6     6     7   ar
     7     7     8    1
     8     7     9   ar
     9     9    10   ar
    10    10    11    1
    11    11    12    1
    12    12    13   ar
    13    13    14   ar
    14    14    15   ar
    15    15    16    1
    16    15    17   ar
    17    17    18   ar
    18    18    19    1
    19    10    20   ar
    20    20    21   ar
    21    21     2   ar
    22    21     6   ar
    23    18    12   ar
    24     1    22    1
    25     1    23    1
    26     1    24    1
    27     3    25    1
    28     4    26    1
    29     8    27    1
    30     8    28    1
    31     9    29    1
    32    11    30    1
    33    11    31    1
    34    13    32    1
    35    16    33    1
    36    16    34    1
    37    19    35    1
    38    19    36    1
    39    20    37    1
