
     RDKit          3D

 48 51  0  0  0  0  0  0  0  0999 V2000
   -1.0054    3.3827   -1.4536 C   0  0  0  0  0  0  0  0  0  0  0  0
    0.1764    2.8813   -0.9049 O   0  0  0  0  0  0  0  0  0  0  0  0
    0.2858    1.6336   -0.3115 C   0  0  0  0  0  0  0  0  0  0  0  0
   -0.8348    0.8356   -0.2570 C   0  0  0  0  0  0  0  0  0  0  0  0
   -0.7723   -0.4068    0.3214 C   0  0  0  0  0  0  0  0  0  0  0  0
   -1.9553   -1.2484    0.3771 C   0  0  0  0  0  0  0  0  0  0  0  0
   -3.1173   -0.5744   -0.2268 C   0  0  0  0  0  0  0  0  0  0  0  0
   -3.5311   -0.9526   -1.4807 C   0  0  0  0  0  0  0  0  0  0  0  0
   -4.5834   -0.3742   -2.0821 N   0  0  0  0  0  0  0  0  0  0  0  0
   -5.2572    0.5949   -1.4612 C   0  0  0  0  0  0  0  0  0  0  0  0
   -6.3802    1.2581   -2.0265 N   0  0  0  0  0  0  0  0  0  0  0  0
   -4.8631    0.9700   -0.2420 N   0  0  0  0  0  0  0  0  0  0  0  0
   -3.8249    0.4413    0.4216 C   0  0  0  0  0  0  0  0  0  0  0  0
   -3.4282    0.8549    1.7109 N   0  0  0  0  0  0  0  0  0  0  0  0
    0.4530   -0.8274    0.8461 C   0  0  0  0  0  0  0  0  0  0  0  0
    1.5885   -0.0343    0.7979 C   0  0  0  0  0  0  0  0  0  0  0  0
    1.4981    1.2075    0.2121 C   0  0  0  0  0  0  0  0  0  0  0  0
    2.5799    2.0309    0.1356 O   0  0  0  0  0  0  0  0  0  0  0  0
    3.5142    2.0904   -0.8974 C   0  0  0  0  0  0  0  0  0  0  0  0
    2.7648   -0.5230    1.3399 O   0  0  0  0  0  0  0  0  0  0  0  0
    2.8878   -1.7731    1.9385 C   0  0  0  0  0  0  0  0  0  0  0  0
    4.0064   -2.5173    1.2222 C   0  0  0  0  0  0  0  0  0  0  0  0
    5.3468   -1.8218    1.2939 C   0  0  0  0  0  0  0  0  0  0  0  0
    4.5909   -1.8900   -0.0063 C   0  0  0  0  0  0  0  0  0  0  0  0
    1.6402   -2.5726    1.9592 C   0  0  0  0  0  0  0  0  0  0  0  0
    0.5202   -2.1447    1.4598 C   0  0  0  0  0  0  0  0  0  0  0  0
   -1.8248    3.2306   -0.7136 H   0  0  0  0  0  0  0  0  0  0  0  0
   -1.2465    2.7863   -2.3554 H   0  0  0  0  0  0  0  0  0  0  0  0
   -0.9692    4.4703   -1.6378 H   0  0  0  0  0  0  0  0  0  0  0  0
   -1.7528    1.1956   -0.6709 H   0  0  0  0  0  0  0  0  0  0  0  0
   -2.1765   -1.4389    1.4708 H   0  0  0  0  0  0  0  0  0  0  0  0
   -1.8548   -2.2494   -0.0656 H   0  0  0  0  0  0  0  0  0  0  0  0
   -3.0025   -1.7364   -2.0072 H   0  0  0  0  0  0  0  0  0  0  0  0
   -7.2532    1.3317   -1.4777 H   0  0  0  0  0  0  0  0  0  0  0  0
   -6.3334    1.6695   -2.9844 H   0  0  0  0  0  0  0  0  0  0  0  0
   -3.5637    1.8582    1.9624 H   0  0  0  0  0  0  0  0  0  0  0  0
   -3.0093    0.2437    2.4392 H   0  0  0  0  0  0  0  0  0  0  0  0
    3.2049    1.5327   -1.8082 H   0  0  0  0  0  0  0  0  0  0  0  0
    3.6395    3.1666   -1.2044 H   0  0  0  0  0  0  0  0  0  0  0  0
    4.5191    1.7433   -0.5935 H   0  0  0  0  0  0  0  0  0  0  0  0
    3.2061   -1.6883    3.0189 H   0  0  0  0  0  0  0  0  0  0  0  0
    4.0561   -3.6056    1.2937 H   0  0  0  0  0  0  0  0  0  0  0  0
    5.4145   -0.8262    1.7867 H   0  0  0  0  0  0  0  0  0  0  0  0
    6.2574   -2.4223    1.3658 H   0  0  0  0  0  0  0  0  0  0  0  0
    4.9341   -2.5653   -0.8109 H   0  0  0  0  0  0  0  0  0  0  0  0
    4.1807   -0.9355   -0.3977 H   0  0  0  0  0  0  0  0  0  0  0  0
    1.6868   -3.5507    2.4137 H   0  0  0  0  0  0  0  0  0  0  0  0
   -0.4122   -2.7303    1.4698 H   0  0  0  0  0  0  0  0  0  0  0  0
  1  2  1  0
  2  3  1  0
  3  4  2  0
  4  5  1  0
  5  6  1  0
  6  7  1  0
  7  8  2  0
  8  9  1  0
  9 10  2  0
 10 11  1  0
 10 12  1  0
 12 13  2  0
 13 14  1  0
  5 15  2  0
 15 16  1  0
 16 17  2  0
 17 18  1  0
 18 19  1  0
 16 20  1  0
 20 21  1  0
 21 22  1  0
 22 23  1  0
 23 24  1  0
 21 25  1  0
 25 26  2  0
 17  3  1  0
 24 22  1  0
 13  7  1  0
 26 15  1  0
  1 27  1  0
  1 28  1  0
  1 29  1  0
  4 30  1  0
  6 31  1  0
  6 32  1  0
  8 33  1  0
 11 34  1  0
 11 35  1  0
 14 36  1  0
 14 37  1  0
 19 38  1  0
 19 39  1  0
 19 40  1  0
 21 41  1  0
 22 42  1  0
 23 43  1  0
 23 44  1  0
 24 45  1  0
 24 46  1  0
 25 47  1  0
 26 48  1  0
M  END
$$$$
