@<TRIPOS>MOLECULE
*****
 48 51 0 0 0
SMALL
GASTEIGER

@<TRIPOS>ATOM
      1 C          -1.0054    3.3827   -1.4536 C.3     1  UNL1        0.0790
      2 O           0.1764    2.8813   -0.9049 O.3     1  UNL1       -0.4913
      3 C           0.2858    1.6336   -0.3115 C.ar    1  UNL1        0.1655
      4 C          -0.8348    0.8356   -0.2570 C.ar    1  UNL1       -0.0120
      5 C          -0.7723   -0.4068    0.3214 C.ar    1  UNL1       -0.0286
      6 C          -1.9553   -1.2484    0.3771 C.3     1  UNL1        0.0031
      7 C          -3.1173   -0.5744   -0.2268 C.ar    1  UNL1        0.0147
      8 C          -3.5311   -0.9526   -1.4807 C.ar    1  UNL1        0.0379
      9 N          -4.5834   -0.3742   -2.0821 N.ar    1  UNL1       -0.2227
     10 C          -5.2572    0.5949   -1.4612 C.ar    1  UNL1        0.2142
     11 N          -6.3802    1.2581   -2.0265 N.pl3   1  UNL1       -0.3274
     12 N          -4.8631    0.9700   -0.2420 N.ar    1  UNL1       -0.1999
     13 C          -3.8249    0.4413    0.4216 C.ar    1  UNL1        0.1247
     14 N          -3.4282    0.8549    1.7109 N.pl3   1  UNL1       -0.3428
     15 C           0.4530   -0.8274    0.8461 C.ar    1  UNL1        0.0239
     16 C           1.5885   -0.0343    0.7979 C.ar    1  UNL1        0.1738
     17 C           1.4981    1.2075    0.2121 C.ar    1  UNL1        0.2042
     18 O           2.5799    2.0309    0.1356 O.3     1  UNL1       -0.4885
     19 C           3.5142    2.0904   -0.8974 C.3     1  UNL1        0.0791
     20 O           2.7648   -0.5230    1.3399 O.3     1  UNL1       -0.4801
     21 C           2.8878   -1.7731    1.9385 C.3     1  UNL1        0.1217
     22 C           4.0064   -2.5173    1.2222 C.3     1  UNL1       -0.0002
     23 C           5.3468   -1.8218    1.2939 C.3     1  UNL1       -0.0462
     24 C           4.5909   -1.8900   -0.0063 C.3     1  UNL1       -0.0462
     25 C           1.6402   -2.5726    1.9592 C.2     1  UNL1       -0.0431
     26 C           0.5202   -2.1447    1.4598 C.2     1  UNL1       -0.0512
     27 H          -1.8248    3.2306   -0.7136 H       1  UNL1        0.0660
     28 H          -1.2465    2.7863   -2.3554 H       1  UNL1        0.0660
     29 H          -0.9692    4.4703   -1.6378 H       1  UNL1        0.0660
     30 H          -1.7528    1.1956   -0.6709 H       1  UNL1        0.0658
     31 H          -2.1765   -1.4389    1.4708 H       1  UNL1        0.0363
     32 H          -1.8548   -2.2494   -0.0656 H       1  UNL1        0.0363
     33 H          -3.0025   -1.7364   -2.0072 H       1  UNL1        0.0834
     34 H          -7.2532    1.3317   -1.4777 H       1  UNL1        0.1452
     35 H          -6.3334    1.6695   -2.9844 H       1  UNL1        0.1452
     36 H          -3.5637    1.8582    1.9624 H       1  UNL1        0.1437
     37 H          -3.0093    0.2437    2.4392 H       1  UNL1        0.1437
     38 H           3.2049    1.5327   -1.8082 H       1  UNL1        0.0660
     39 H           3.6395    3.1666   -1.2044 H       1  UNL1        0.0660
     40 H           4.5191    1.7433   -0.5935 H       1  UNL1        0.0660
     41 H           3.2061   -1.6883    3.0189 H       1  UNL1        0.0781
     42 H           4.0561   -3.6056    1.2937 H       1  UNL1        0.0340
     43 H           5.4145   -0.8262    1.7867 H       1  UNL1        0.0269
     44 H           6.2574   -2.4223    1.3658 H       1  UNL1        0.0269
     45 H           4.9341   -2.5653   -0.8109 H       1  UNL1        0.0269
     46 H           4.1807   -0.9355   -0.3977 H       1  UNL1        0.0269
     47 H           1.6868   -3.5507    2.4137 H       1  UNL1        0.0609
     48 H          -0.4122   -2.7303    1.4698 H       1  UNL1        0.0623
@<TRIPOS>BOND
     1     1     2    1
     2     2     3    1
     3     3     4   ar
     4     4     5   ar
     5     5     6    1
     6     6     7    1
     7     7     8   ar
     8     8     9   ar
     9     9    10   ar
    10    10    11    1
    11    10    12   ar
    12    12    13   ar
    13    13    14    1
    14     5    15   ar
    15    15    16   ar
    16    16    17   ar
    17    17    18    1
    18    18    19    1
    19    16    20    1
    20    20    21    1
    21    21    22    1
    22    22    23    1
    23    23    24    1
    24    21    25    1
    25    25    26    2
    26    17     3   ar
    27    24    22    1
    28    13     7   ar
    29    26    15    1
    30     1    27    1
    31     1    28    1
    32     1    29    1
    33     4    30    1
    34     6    31    1
    35     6    32    1
    36     8    33    1
    37    11    34    1
    38    11    35    1
    39    14    36    1
    40    14    37    1
    41    19    38    1
    42    19    39    1
    43    19    40    1
    44    21    41    1
    45    22    42    1
    46    23    43    1
    47    23    44    1
    48    24    45    1
    49    24    46    1
    50    25    47    1
    51    26    48    1
