@<TRIPOS>MOLECULE
*****
 100 104 0 0 0
SMALL
GASTEIGER

@<TRIPOS>ATOM
      1 C           3.5020   -3.0260   -1.5773 C.3     1  UNL1       -0.0653
      2 C           2.8117   -1.7136   -1.8522 C.3     1  UNL1       -0.0559
      3 C           1.3367   -1.7271   -1.5873 C.3     1  UNL1       -0.0526
      4 C           0.8530   -1.9408   -0.2167 C.3     1  UNL1       -0.0414
      5 C           1.1196   -0.9918    0.8685 C.3     1  UNL1        0.0415
      6 C           2.5724   -0.8537    1.1085 C.2     1  UNL1        0.2192
      7 O           3.2126   -1.9271    1.2767 O.2     1  UNL1       -0.2753
      8 N           3.2610    0.3886    1.1640 N.am    1  UNL1       -0.3010
      9 C           4.5559    0.5123    1.6773 C.3     1  UNL1        0.0175
     10 C           5.7560    0.4283    0.8465 C.3     1  UNL1       -0.0250
     11 C           6.0480   -0.8088    0.0848 C.3     1  UNL1       -0.0464
     12 C           7.5778   -0.8428   -0.1340 C.3     1  UNL1       -0.0263
     13 C           8.1096    0.5201   -0.4919 C.3     1  UNL1        0.0587
     14 O           8.8583    1.0904    0.5062 O.3     1  UNL1       -0.3768
     15 C          10.1747    1.3148    0.2158 C.3     1  UNL1        0.0452
     16 C          10.3704    2.2608   -0.9605 C.3     1  UNL1       -0.0416
     17 C           7.0446    1.4511   -1.0329 C.3     1  UNL1       -0.0263
     18 C           5.9258    1.6793   -0.0525 C.3     1  UNL1       -0.0464
     19 C           2.4218    1.4811    0.6537 C.3     1  UNL1        0.0152
     20 C           1.1950    1.3646    1.5399 C.3     1  UNL1       -0.0307
     21 C           0.3075    0.2244    1.0025 C.3     1  UNL1       -0.0144
     22 C          -0.4478    0.7928   -0.1184 C.3     1  UNL1       -0.0337
     23 C          -1.7326    0.1057   -0.4766 C.3     1  UNL1       -0.0001
     24 N          -2.5477   -0.1832    0.6708 N.3     1  UNL1       -0.2968
     25 C          -3.7976   -0.8130    0.3303 C.3     1  UNL1        0.0220
     26 C          -3.6133   -2.1347   -0.3712 C.3     1  UNL1       -0.0465
     27 C          -4.5375    0.0954   -0.6058 C.3     1  UNL1       -0.0188
     28 C          -5.9851   -0.2610   -0.8157 C.3     1  UNL1        0.0166
     29 N          -6.6707   -0.5111    0.4098 N.am    1  UNL1       -0.2973
     30 C          -7.9358    0.0583    0.6519 C.2     1  UNL1        0.2501
     31 O          -8.5866   -0.1326    1.7164 O.2     1  UNL1       -0.2699
     32 C          -8.5767    0.9244   -0.3466 C.ar    1  UNL1        0.0788
     33 C          -9.3238    0.3718   -1.3603 C.ar    1  UNL1        0.0538
     34 C          -9.4601   -1.1006   -1.4106 C.3     1  UNL1       -0.0215
     35 N          -9.9042    1.1909   -2.2704 N.ar    1  UNL1       -0.2398
     36 C          -9.7501    2.5197   -2.1808 C.ar    1  UNL1        0.1165
     37 N          -9.0158    3.0836   -1.1867 N.ar    1  UNL1       -0.2398
     38 C          -8.4312    2.2847   -0.2724 C.ar    1  UNL1        0.0538
     39 C          -7.6137    2.8424    0.8401 C.3     1  UNL1       -0.0215
     40 C          -6.0379   -1.3475    1.3837 C.3     1  UNL1        0.0166
     41 C          -4.5844   -1.0373    1.5760 C.3     1  UNL1       -0.0188
     42 C          -1.8822   -0.7617    1.7836 C.3     1  UNL1       -0.0001
     43 C          -0.7157    0.0916    2.1583 C.3     1  UNL1       -0.0337
     44 H           2.8767   -3.7340   -1.0072 H       1  UNL1        0.0230
     45 H           4.5184   -2.9123   -1.1577 H       1  UNL1        0.0230
     46 H           3.6683   -3.5198   -2.5803 H       1  UNL1        0.0230
     47 H           3.3374   -0.9239   -1.2774 H       1  UNL1        0.0263
     48 H           2.9885   -1.4146   -2.9312 H       1  UNL1        0.0263
     49 H           0.9644   -2.5914   -2.2398 H       1  UNL1        0.0265
     50 H           0.9659   -0.7676   -2.0712 H       1  UNL1        0.0265
     51 H          -0.2000   -2.3593   -0.1906 H       1  UNL1        0.0273
     52 H           1.4125   -2.9022    0.1180 H       1  UNL1        0.0273
     53 H           0.8287   -1.6090    1.8198 H       1  UNL1        0.0400
     54 H           4.6662   -0.2894    2.4903 H       1  UNL1        0.0467
     55 H           4.6850    1.4567    2.3182 H       1  UNL1        0.0467
     56 H           6.6416    0.5589    1.5553 H       1  UNL1        0.0316
     57 H           5.8365   -1.6867    0.6897 H       1  UNL1        0.0269
     58 H           5.6486   -0.8187   -0.9475 H       1  UNL1        0.0269
     59 H           7.7388   -1.6112   -0.9157 H       1  UNL1        0.0290
     60 H           8.0354   -1.2484    0.7913 H       1  UNL1        0.0290
     61 H           8.8089    0.3596   -1.3547 H       1  UNL1        0.0596
     62 H          10.5981    0.3293   -0.1471 H       1  UNL1        0.0557
     63 H          10.7985    1.6010    1.0588 H       1  UNL1        0.0557
     64 H          10.0598    1.8534   -1.9196 H       1  UNL1        0.0252
     65 H          11.3979    2.6705   -0.9736 H       1  UNL1        0.0252
     66 H           9.7104    3.1510   -0.7436 H       1  UNL1        0.0252
     67 H           7.4945    2.4111   -1.2814 H       1  UNL1        0.0290
     68 H           6.6076    1.0117   -1.9514 H       1  UNL1        0.0290
     69 H           5.0032    1.8740   -0.6351 H       1  UNL1        0.0269
     70 H           6.0853    2.5903    0.5581 H       1  UNL1        0.0269
     71 H           2.9003    2.4421    0.6537 H       1  UNL1        0.0465
     72 H           2.1249    1.2074   -0.3769 H       1  UNL1        0.0465
     73 H           0.6566    2.3274    1.4930 H       1  UNL1        0.0286
     74 H           1.4699    1.0975    2.5669 H       1  UNL1        0.0286
     75 H          -0.7999    1.8244    0.2533 H       1  UNL1        0.0283
     76 H           0.0831    1.0660   -1.0359 H       1  UNL1        0.0283
     77 H          -2.3225    0.8683   -1.0753 H       1  UNL1        0.0427
     78 H          -1.6264   -0.7384   -1.1858 H       1  UNL1        0.0427
     79 H          -3.2253   -2.0383   -1.4023 H       1  UNL1        0.0247
     80 H          -3.0437   -2.8687    0.2443 H       1  UNL1        0.0247
     81 H          -4.6409   -2.5806   -0.4778 H       1  UNL1        0.0247
     82 H          -4.0908    0.0758   -1.6445 H       1  UNL1        0.0298
     83 H          -4.4058    1.1508   -0.2667 H       1  UNL1        0.0298
     84 H          -6.4569    0.6070   -1.3192 H       1  UNL1        0.0465
     85 H          -6.0641   -1.1040   -1.5383 H       1  UNL1        0.0465
     86 H          -8.4849   -1.6205   -1.5090 H       1  UNL1        0.0293
     87 H          -9.9073   -1.4463   -0.4563 H       1  UNL1        0.0293
     88 H         -10.0851   -1.3920   -2.2859 H       1  UNL1        0.0293
     89 H         -10.1968    3.1926   -2.8866 H       1  UNL1        0.1047
     90 H          -6.8527    2.0948    1.1777 H       1  UNL1        0.0293
     91 H          -8.2386    3.0926    1.7368 H       1  UNL1        0.0293
     92 H          -7.0689    3.7424    0.4913 H       1  UNL1        0.0293
     93 H          -6.1751   -2.4336    1.1637 H       1  UNL1        0.0465
     94 H          -6.5425   -1.1863    2.3584 H       1  UNL1        0.0465
     95 H          -4.5341   -0.1077    2.2091 H       1  UNL1        0.0298
     96 H          -4.1509   -1.9094    2.1498 H       1  UNL1        0.0298
     97 H          -2.5762   -0.7188    2.6565 H       1  UNL1        0.0427
     98 H          -1.5907   -1.8256    1.6674 H       1  UNL1        0.0427
     99 H          -1.0460    1.1050    2.4262 H       1  UNL1        0.0283
    100 H          -0.1492   -0.3654    2.9989 H       1  UNL1        0.0283
@<TRIPOS>BOND
     1     1     2    1
     2     2     3    1
     3     3     4    1
     4     4     5    1
     5     5     6    1
     6     6     7    2
     7     6     8   am
     8     8     9    1
     9     9    10    1
    10    10    11    1
    11    11    12    1
    12    12    13    1
    13    13    14    1
    14    14    15    1
    15    15    16    1
    16    13    17    1
    17    17    18    1
    18     8    19    1
    19    19    20    1
    20    20    21    1
    21    21    22    1
    22    22    23    1
    23    23    24    1
    24    24    25    1
    25    25    26    1
    26    25    27    1
    27    27    28    1
    28    28    29    1
    29    29    30   am
    30    30    31    2
    31    30    32    1
    32    32    33   ar
    33    33    34    1
    34    33    35   ar
    35    35    36   ar
    36    36    37   ar
    37    37    38   ar
    38    38    39    1
    39    29    40    1
    40    40    41    1
    41    24    42    1
    42    42    43    1
    43    21     5    1
    44    41    25    1
    45    18    10    1
    46    43    21    1
    47    38    32   ar
    48     1    44    1
    49     1    45    1
    50     1    46    1
    51     2    47    1
    52     2    48    1
    53     3    49    1
    54     3    50    1
    55     4    51    1
    56     4    52    1
    57     5    53    1
    58     9    54    1
    59     9    55    1
    60    10    56    1
    61    11    57    1
    62    11    58    1
    63    12    59    1
    64    12    60    1
    65    13    61    1
    66    15    62    1
    67    15    63    1
    68    16    64    1
    69    16    65    1
    70    16    66    1
    71    17    67    1
    72    17    68    1
    73    18    69    1
    74    18    70    1
    75    19    71    1
    76    19    72    1
    77    20    73    1
    78    20    74    1
    79    22    75    1
    80    22    76    1
    81    23    77    1
    82    23    78    1
    83    26    79    1
    84    26    80    1
    85    26    81    1
    86    27    82    1
    87    27    83    1
    88    28    84    1
    89    28    85    1
    90    34    86    1
    91    34    87    1
    92    34    88    1
    93    36    89    1
    94    39    90    1
    95    39    91    1
    96    39    92    1
    97    40    93    1
    98    40    94    1
    99    41    95    1
   100    41    96    1
   101    42    97    1
   102    42    98    1
   103    43    99    1
   104    43   100    1
