
     RDKit          3D

100104  0  0  0  0  0  0  0  0999 V2000
    3.5020   -3.0260   -1.5773 C   0  0  0  0  0  0  0  0  0  0  0  0
    2.8117   -1.7136   -1.8522 C   0  0  0  0  0  0  0  0  0  0  0  0
    1.3367   -1.7271   -1.5873 C   0  0  0  0  0  0  0  0  0  0  0  0
    0.8530   -1.9408   -0.2167 C   0  0  0  0  0  0  0  0  0  0  0  0
    1.1196   -0.9918    0.8685 C   0  0  0  0  0  0  0  0  0  0  0  0
    2.5724   -0.8537    1.1085 C   0  0  0  0  0  0  0  0  0  0  0  0
    3.2126   -1.9271    1.2767 O   0  0  0  0  0  0  0  0  0  0  0  0
    3.2610    0.3886    1.1640 N   0  0  0  0  0  0  0  0  0  0  0  0
    4.5559    0.5123    1.6773 C   0  0  0  0  0  0  0  0  0  0  0  0
    5.7560    0.4283    0.8465 C   0  0  1  0  0  0  0  0  0  0  0  0
    6.0480   -0.8088    0.0848 C   0  0  0  0  0  0  0  0  0  0  0  0
    7.5778   -0.8428   -0.1340 C   0  0  0  0  0  0  0  0  0  0  0  0
    8.1096    0.5201   -0.4919 C   0  0  2  0  0  0  0  0  0  0  0  0
    8.8583    1.0904    0.5062 O   0  0  0  0  0  0  0  0  0  0  0  0
   10.1747    1.3148    0.2158 C   0  0  0  0  0  0  0  0  0  0  0  0
   10.3704    2.2608   -0.9605 C   0  0  0  0  0  0  0  0  0  0  0  0
    7.0446    1.4511   -1.0329 C   0  0  0  0  0  0  0  0  0  0  0  0
    5.9258    1.6793   -0.0525 C   0  0  0  0  0  0  0  0  0  0  0  0
    2.4218    1.4811    0.6537 C   0  0  0  0  0  0  0  0  0  0  0  0
    1.1950    1.3646    1.5399 C   0  0  0  0  0  0  0  0  0  0  0  0
    0.3075    0.2244    1.0025 C   0  0  0  0  0  0  0  0  0  0  0  0
   -0.4478    0.7928   -0.1184 C   0  0  0  0  0  0  0  0  0  0  0  0
   -1.7326    0.1057   -0.4766 C   0  0  0  0  0  0  0  0  0  0  0  0
   -2.5477   -0.1832    0.6708 N   0  0  0  0  0  0  0  0  0  0  0  0
   -3.7976   -0.8130    0.3303 C   0  0  0  0  0  0  0  0  0  0  0  0
   -3.6133   -2.1347   -0.3712 C   0  0  0  0  0  0  0  0  0  0  0  0
   -4.5375    0.0954   -0.6058 C   0  0  0  0  0  0  0  0  0  0  0  0
   -5.9851   -0.2610   -0.8157 C   0  0  0  0  0  0  0  0  0  0  0  0
   -6.6707   -0.5111    0.4098 N   0  0  0  0  0  0  0  0  0  0  0  0
   -7.9358    0.0583    0.6519 C   0  0  0  0  0  0  0  0  0  0  0  0
   -8.5866   -0.1326    1.7164 O   0  0  0  0  0  0  0  0  0  0  0  0
   -8.5767    0.9244   -0.3466 C   0  0  0  0  0  0  0  0  0  0  0  0
   -9.3238    0.3718   -1.3603 C   0  0  0  0  0  0  0  0  0  0  0  0
   -9.4601   -1.1006   -1.4106 C   0  0  0  0  0  0  0  0  0  0  0  0
   -9.9042    1.1909   -2.2704 N   0  0  0  0  0  0  0  0  0  0  0  0
   -9.7501    2.5197   -2.1808 C   0  0  0  0  0  0  0  0  0  0  0  0
   -9.0158    3.0836   -1.1867 N   0  0  0  0  0  0  0  0  0  0  0  0
   -8.4312    2.2847   -0.2724 C   0  0  0  0  0  0  0  0  0  0  0  0
   -7.6137    2.8424    0.8401 C   0  0  0  0  0  0  0  0  0  0  0  0
   -6.0379   -1.3475    1.3837 C   0  0  0  0  0  0  0  0  0  0  0  0
   -4.5844   -1.0373    1.5760 C   0  0  0  0  0  0  0  0  0  0  0  0
   -1.8822   -0.7617    1.7836 C   0  0  0  0  0  0  0  0  0  0  0  0
   -0.7157    0.0916    2.1583 C   0  0  0  0  0  0  0  0  0  0  0  0
    2.8767   -3.7340   -1.0072 H   0  0  0  0  0  0  0  0  0  0  0  0
    4.5184   -2.9123   -1.1577 H   0  0  0  0  0  0  0  0  0  0  0  0
    3.6683   -3.5198   -2.5803 H   0  0  0  0  0  0  0  0  0  0  0  0
    3.3374   -0.9239   -1.2774 H   0  0  0  0  0  0  0  0  0  0  0  0
    2.9885   -1.4146   -2.9312 H   0  0  0  0  0  0  0  0  0  0  0  0
    0.9644   -2.5914   -2.2398 H   0  0  0  0  0  0  0  0  0  0  0  0
    0.9659   -0.7676   -2.0712 H   0  0  0  0  0  0  0  0  0  0  0  0
   -0.2000   -2.3593   -0.1906 H   0  0  0  0  0  0  0  0  0  0  0  0
    1.4125   -2.9022    0.1180 H   0  0  0  0  0  0  0  0  0  0  0  0
    0.8287   -1.6090    1.8198 H   0  0  0  0  0  0  0  0  0  0  0  0
    4.6662   -0.2894    2.4903 H   0  0  0  0  0  0  0  0  0  0  0  0
    4.6850    1.4567    2.3182 H   0  0  0  0  0  0  0  0  0  0  0  0
    6.6416    0.5589    1.5553 H   0  0  0  0  0  0  0  0  0  0  0  0
    5.8365   -1.6867    0.6897 H   0  0  0  0  0  0  0  0  0  0  0  0
    5.6486   -0.8187   -0.9475 H   0  0  0  0  0  0  0  0  0  0  0  0
    7.7388   -1.6112   -0.9157 H   0  0  0  0  0  0  0  0  0  0  0  0
    8.0354   -1.2484    0.7913 H   0  0  0  0  0  0  0  0  0  0  0  0
    8.8089    0.3596   -1.3547 H   0  0  0  0  0  0  0  0  0  0  0  0
   10.5981    0.3293   -0.1471 H   0  0  0  0  0  0  0  0  0  0  0  0
   10.7985    1.6010    1.0588 H   0  0  0  0  0  0  0  0  0  0  0  0
   10.0598    1.8534   -1.9196 H   0  0  0  0  0  0  0  0  0  0  0  0
   11.3979    2.6705   -0.9736 H   0  0  0  0  0  0  0  0  0  0  0  0
    9.7104    3.1510   -0.7436 H   0  0  0  0  0  0  0  0  0  0  0  0
    7.4945    2.4111   -1.2814 H   0  0  0  0  0  0  0  0  0  0  0  0
    6.6076    1.0117   -1.9514 H   0  0  0  0  0  0  0  0  0  0  0  0
    5.0032    1.8740   -0.6351 H   0  0  0  0  0  0  0  0  0  0  0  0
    6.0853    2.5903    0.5581 H   0  0  0  0  0  0  0  0  0  0  0  0
    2.9003    2.4421    0.6537 H   0  0  0  0  0  0  0  0  0  0  0  0
    2.1249    1.2074   -0.3769 H   0  0  0  0  0  0  0  0  0  0  0  0
    0.6566    2.3274    1.4930 H   0  0  0  0  0  0  0  0  0  0  0  0
    1.4699    1.0975    2.5669 H   0  0  0  0  0  0  0  0  0  0  0  0
   -0.7999    1.8244    0.2533 H   0  0  0  0  0  0  0  0  0  0  0  0
    0.0831    1.0660   -1.0359 H   0  0  0  0  0  0  0  0  0  0  0  0
   -2.3225    0.8683   -1.0753 H   0  0  0  0  0  0  0  0  0  0  0  0
   -1.6264   -0.7384   -1.1858 H   0  0  0  0  0  0  0  0  0  0  0  0
   -3.2253   -2.0383   -1.4023 H   0  0  0  0  0  0  0  0  0  0  0  0
   -3.0437   -2.8687    0.2443 H   0  0  0  0  0  0  0  0  0  0  0  0
   -4.6409   -2.5806   -0.4778 H   0  0  0  0  0  0  0  0  0  0  0  0
   -4.0908    0.0758   -1.6445 H   0  0  0  0  0  0  0  0  0  0  0  0
   -4.4058    1.1508   -0.2667 H   0  0  0  0  0  0  0  0  0  0  0  0
   -6.4569    0.6070   -1.3192 H   0  0  0  0  0  0  0  0  0  0  0  0
   -6.0641   -1.1040   -1.5383 H   0  0  0  0  0  0  0  0  0  0  0  0
   -8.4849   -1.6205   -1.5090 H   0  0  0  0  0  0  0  0  0  0  0  0
   -9.9073   -1.4463   -0.4563 H   0  0  0  0  0  0  0  0  0  0  0  0
  -10.0851   -1.3920   -2.2859 H   0  0  0  0  0  0  0  0  0  0  0  0
  -10.1968    3.1926   -2.8866 H   0  0  0  0  0  0  0  0  0  0  0  0
   -6.8527    2.0948    1.1777 H   0  0  0  0  0  0  0  0  0  0  0  0
   -8.2386    3.0926    1.7368 H   0  0  0  0  0  0  0  0  0  0  0  0
   -7.0689    3.7424    0.4913 H   0  0  0  0  0  0  0  0  0  0  0  0
   -6.1751   -2.4336    1.1637 H   0  0  0  0  0  0  0  0  0  0  0  0
   -6.5425   -1.1863    2.3584 H   0  0  0  0  0  0  0  0  0  0  0  0
   -4.5341   -0.1077    2.2091 H   0  0  0  0  0  0  0  0  0  0  0  0
   -4.1509   -1.9094    2.1498 H   0  0  0  0  0  0  0  0  0  0  0  0
   -2.5762   -0.7188    2.6565 H   0  0  0  0  0  0  0  0  0  0  0  0
   -1.5907   -1.8256    1.6674 H   0  0  0  0  0  0  0  0  0  0  0  0
   -1.0460    1.1050    2.4262 H   0  0  0  0  0  0  0  0  0  0  0  0
   -0.1492   -0.3654    2.9989 H   0  0  0  0  0  0  0  0  0  0  0  0
  1  2  1  0
  2  3  1  0
  3  4  1  0
  4  5  1  0
  5  6  1  0
  6  7  2  0
  6  8  1  0
  8  9  1  0
  9 10  1  0
 10 11  1  0
 11 12  1  0
 12 13  1  0
 13 14  1  0
 14 15  1  0
 15 16  1  0
 13 17  1  0
 17 18  1  0
  8 19  1  0
 19 20  1  0
 20 21  1  0
 21 22  1  0
 22 23  1  0
 23 24  1  0
 24 25  1  0
 25 26  1  0
 25 27  1  0
 27 28  1  0
 28 29  1  0
 29 30  1  0
 30 31  2  0
 30 32  1  0
 32 33  2  0
 33 34  1  0
 33 35  1  0
 35 36  2  0
 36 37  1  0
 37 38  2  0
 38 39  1  0
 29 40  1  0
 40 41  1  0
 24 42  1  0
 42 43  1  0
 21  5  1  0
 41 25  1  0
 18 10  1  0
 43 21  1  0
 38 32  1  0
  1 44  1  0
  1 45  1  0
  1 46  1  0
  2 47  1  0
  2 48  1  0
  3 49  1  0
  3 50  1  0
  4 51  1  0
  4 52  1  0
  5 53  1  0
  9 54  1  0
  9 55  1  0
 10 56  1  1
 11 57  1  0
 11 58  1  0
 12 59  1  0
 12 60  1  0
 13 61  1  6
 15 62  1  0
 15 63  1  0
 16 64  1  0
 16 65  1  0
 16 66  1  0
 17 67  1  0
 17 68  1  0
 18 69  1  0
 18 70  1  0
 19 71  1  0
 19 72  1  0
 20 73  1  0
 20 74  1  0
 22 75  1  0
 22 76  1  0
 23 77  1  0
 23 78  1  0
 26 79  1  0
 26 80  1  0
 26 81  1  0
 27 82  1  0
 27 83  1  0
 28 84  1  0
 28 85  1  0
 34 86  1  0
 34 87  1  0
 34 88  1  0
 36 89  1  0
 39 90  1  0
 39 91  1  0
 39 92  1  0
 40 93  1  0
 40 94  1  0
 41 95  1  0
 41 96  1  0
 42 97  1  0
 42 98  1  0
 43 99  1  0
 43100  1  0
M  END
$$$$
