@<TRIPOS>MOLECULE
*****
 68 73 0 0 0
SMALL
GASTEIGER

@<TRIPOS>ATOM
      1 C          -7.9131   -2.7796    0.2871 C.3     1  UNL1        0.0032
      2 N          -6.4995   -2.5355    0.1451 N.am    1  UNL1       -0.3024
      3 C          -5.7270   -3.3468   -0.7551 C.3     1  UNL1        0.0032
      4 C          -5.8892   -1.5126    0.8900 C.2     1  UNL1        0.2627
      5 O          -6.5571   -0.7925    1.6983 O.2     1  UNL1       -0.2684
      6 C          -4.4618   -1.2719    0.7320 C.ar    1  UNL1        0.1070
      7 C          -3.4275   -2.1278    1.0452 C.ar    1  UNL1       -0.0209
      8 C          -2.2365   -1.4952    0.7153 C.ar    1  UNL1        0.0378
      9 C          -0.9521   -1.9156    0.8262 C.ar    1  UNL1        0.0419
     10 N           0.0118   -1.0823    0.4146 N.ar    1  UNL1       -0.2219
     11 C          -0.2427    0.1226   -0.0912 C.ar    1  UNL1        0.2225
     12 N           0.7839    0.9683   -0.5250 N.pl3   1  UNL1       -0.2670
     13 C           2.1675    0.7911   -0.3453 C.ar    1  UNL1        0.1477
     14 C           2.7834   -0.1872    0.3708 C.ar    1  UNL1       -0.0164
     15 C           4.1823   -0.2396    0.4161 C.ar    1  UNL1       -0.0166
     16 C           4.9755    0.6713   -0.2433 C.ar    1  UNL1        0.1440
     17 N           6.3837    0.6310   -0.1763 N.pl3   1  UNL1       -0.3108
     18 C           7.1678    0.7322   -1.3941 C.3     1  UNL1        0.0290
     19 C           8.5276    0.0842   -1.1855 C.3     1  UNL1        0.0237
     20 C           8.4403   -1.3514   -0.7549 C.3     1  UNL1       -0.0346
     21 C           8.6616   -1.3200    0.7523 C.3     1  UNL1       -0.0346
     22 C           8.4543    0.1579    1.0709 C.3     1  UNL1        0.0237
     23 C           6.9975    0.5117    1.1225 C.3     1  UNL1        0.0290
     24 N           9.1512    0.7855   -0.0523 N.3     1  UNL1       -0.3075
     25 N           4.3108    1.6189   -0.9371 N.ar    1  UNL1       -0.1324
     26 N           3.0061    1.6696   -0.9804 N.ar    1  UNL1       -0.1322
     27 N          -1.5506    0.5199   -0.1886 N.ar    1  UNL1       -0.1962
     28 C          -2.5730   -0.2623    0.2047 C.ar    1  UNL1        0.1466
     29 N          -3.9144   -0.1352    0.2200 N.ar    1  UNL1       -0.3180
     30 C          -4.6373    1.0325   -0.1996 C.3     1  UNL1        0.0366
     31 C          -4.5817    1.3467   -1.6543 C.3     1  UNL1       -0.0320
     32 C          -5.3115    2.6648   -1.8659 C.3     1  UNL1       -0.0512
     33 C          -6.0689    3.1174   -0.6435 C.3     1  UNL1       -0.0529
     34 C          -5.1980    3.2762    0.5774 C.3     1  UNL1       -0.0512
     35 C          -4.0936    2.2648    0.5444 C.3     1  UNL1       -0.0320
     36 H          -8.3731   -1.9943    0.9490 H       1  UNL1        0.0428
     37 H          -8.1247   -3.7848    0.7022 H       1  UNL1        0.0428
     38 H          -8.3738   -2.6591   -0.7219 H       1  UNL1        0.0428
     39 H          -5.2619   -4.2270   -0.2607 H       1  UNL1        0.0428
     40 H          -4.8915   -2.7397   -1.1564 H       1  UNL1        0.0428
     41 H          -6.3230   -3.7184   -1.6179 H       1  UNL1        0.0428
     42 H          -3.5093   -3.1264    1.4768 H       1  UNL1        0.0647
     43 H          -0.6728   -2.8901    1.2329 H       1  UNL1        0.0838
     44 H           0.4574    1.8417   -1.0489 H       1  UNL1        0.1565
     45 H           2.2014   -0.9041    0.8974 H       1  UNL1        0.0653
     46 H           4.6022   -1.0391    1.0001 H       1  UNL1        0.0653
     47 H           6.6645    0.1457   -2.1991 H       1  UNL1        0.0479
     48 H           7.3371    1.7909   -1.6738 H       1  UNL1        0.0479
     49 H           9.1877    0.2078   -2.0461 H       1  UNL1        0.0476
     50 H           7.4665   -1.8248   -0.9910 H       1  UNL1        0.0281
     51 H           9.2873   -1.9132   -1.1953 H       1  UNL1        0.0281
     52 H           7.9332   -1.9326    1.3079 H       1  UNL1        0.0281
     53 H           9.6845   -1.5934    1.0425 H       1  UNL1        0.0281
     54 H           8.9235    0.4091    2.0333 H       1  UNL1        0.0476
     55 H           6.9199    1.5110    1.6389 H       1  UNL1        0.0479
     56 H           6.4346   -0.1991    1.7630 H       1  UNL1        0.0479
     57 H          10.1587    0.5333    0.0473 H       1  UNL1        0.1226
     58 H          -5.7166    0.9171    0.0757 H       1  UNL1        0.0528
     59 H          -4.9346    0.5622   -2.3248 H       1  UNL1        0.0285
     60 H          -3.5101    1.5459   -1.9403 H       1  UNL1        0.0285
     61 H          -6.0622    2.4912   -2.6605 H       1  UNL1        0.0266
     62 H          -4.6428    3.4646   -2.2515 H       1  UNL1        0.0266
     63 H          -6.4735    4.1263   -0.8824 H       1  UNL1        0.0265
     64 H          -6.9282    2.4513   -0.5052 H       1  UNL1        0.0265
     65 H          -4.8097    4.2927    0.7205 H       1  UNL1        0.0266
     66 H          -5.8386    3.0229    1.4666 H       1  UNL1        0.0266
     67 H          -3.7291    1.9661    1.5479 H       1  UNL1        0.0285
     68 H          -3.2525    2.6549   -0.0388 H       1  UNL1        0.0285
@<TRIPOS>BOND
     1     1     2    1
     2     2     3    1
     3     2     4   am
     4     4     5    2
     5     4     6    1
     6     6     7   ar
     7     7     8   ar
     8     8     9   ar
     9     9    10   ar
    10    10    11   ar
    11    11    12    1
    12    12    13    1
    13    13    14   ar
    14    14    15   ar
    15    15    16   ar
    16    16    17    1
    17    17    18    1
    18    18    19    1
    19    19    20    1
    20    20    21    1
    21    21    22    1
    22    22    23    1
    23    22    24    1
    24    16    25   ar
    25    25    26   ar
    26    11    27   ar
    27    27    28   ar
    28    28    29   ar
    29    29    30    1
    30    30    31    1
    31    31    32    1
    32    32    33    1
    33    33    34    1
    34    34    35    1
    35    29     6   ar
    36    35    30    1
    37    28     8   ar
    38    26    13   ar
    39    23    17    1
    40    24    19    1
    41     1    36    1
    42     1    37    1
    43     1    38    1
    44     3    39    1
    45     3    40    1
    46     3    41    1
    47     7    42    1
    48     9    43    1
    49    12    44    1
    50    14    45    1
    51    15    46    1
    52    18    47    1
    53    18    48    1
    54    19    49    1
    55    20    50    1
    56    20    51    1
    57    21    52    1
    58    21    53    1
    59    22    54    1
    60    23    55    1
    61    23    56    1
    62    24    57    1
    63    30    58    1
    64    31    59    1
    65    31    60    1
    66    32    61    1
    67    32    62    1
    68    33    63    1
    69    33    64    1
    70    34    65    1
    71    34    66    1
    72    35    67    1
    73    35    68    1
