@<TRIPOS>MOLECULE
*****
 52 55 0 0 0
SMALL
GASTEIGER

@<TRIPOS>ATOM
      1 C          -1.8885   -1.6436    2.0934 C.3     1  UNL1       -0.0354
      2 C          -1.4693   -0.2428    1.6453 C.3     1  UNL1        0.0903
      3 C          -0.0488   -0.1145    2.0664 C.ar    1  UNL1        0.0167
      4 C           0.9954    0.1292    1.1758 C.ar    1  UNL1       -0.0323
      5 C           2.2955    0.2428    1.5454 C.ar    1  UNL1        0.0342
      6 N           3.3718    0.4902    0.6582 N.am    1  UNL1       -0.2802
      7 C           3.3323    0.6641   -0.7294 C.2     1  UNL1        0.2666
      8 O           2.2284    0.6028   -1.3134 O.2     1  UNL1       -0.2682
      9 C           4.5382    0.9142   -1.5128 C.ar    1  UNL1        0.1258
     10 C           4.5201    1.0864   -2.8642 C.ar    1  UNL1       -0.0285
     11 C           5.6658    1.3236   -3.6037 C.ar    1  UNL1       -0.0228
     12 C           6.8458    1.3794   -2.9049 C.ar    1  UNL1        0.1414
     13 F           7.9826    1.6107   -3.6071 F       1  UNL1       -0.2039
     14 C           6.8763    1.2084   -1.5506 C.ar    1  UNL1        0.0636
     15 N           5.7118    0.9778   -0.8800 N.ar    1  UNL1       -0.2475
     16 C           2.5569    0.0989    2.9193 C.ar    1  UNL1       -0.0377
     17 C           1.5527   -0.1416    3.8243 C.ar    1  UNL1       -0.0243
     18 C           0.2334   -0.2509    3.4032 C.ar    1  UNL1        0.1290
     19 F          -0.6896   -0.4813    4.3636 F       1  UNL1       -0.2051
     20 C          -1.5382   -0.1391    0.1589 C.3     1  UNL1       -0.0084
     21 C          -2.9280   -0.3322   -0.4245 C.3     1  UNL1        0.0305
     22 C          -3.2054    0.7983   -1.3923 C.3     1  UNL1       -0.0142
     23 C          -4.1986    0.4455   -2.4465 C.3     1  UNL1        0.0489
     24 O          -3.6111   -0.6096   -3.1846 O.3     1  UNL1       -0.3797
     25 C          -3.7267   -1.7273   -2.3819 C.3     1  UNL1        0.0489
     26 C          -3.0155   -1.6645   -1.0790 C.3     1  UNL1       -0.0142
     27 S          -4.1892   -0.1408    0.9028 S.3     1  UNL1       -0.0841
     28 C          -3.4410    0.9377    2.1017 C.2     1  UNL1        0.1480
     29 N          -4.2201    1.9148    2.7414 N.pl3   1  UNL1       -0.3380
     30 N          -2.2017    0.7944    2.3524 N.2     1  UNL1       -0.2524
     31 H          -1.8318   -2.3493    1.2229 H       1  UNL1        0.0256
     32 H          -1.2070   -2.0765    2.8413 H       1  UNL1        0.0256
     33 H          -2.9156   -1.6867    2.4737 H       1  UNL1        0.0256
     34 H           0.7122    0.2258    0.1543 H       1  UNL1        0.0640
     35 H           4.3681    0.5604    1.0699 H       1  UNL1        0.1552
     36 H           3.5647    1.0359   -3.3889 H       1  UNL1        0.0641
     37 H           5.6768    1.4616   -4.6629 H       1  UNL1        0.0647
     38 H           7.7979    1.2496   -0.9860 H       1  UNL1        0.0859
     39 H           3.5993    0.1877    3.2331 H       1  UNL1        0.0637
     40 H           1.8083   -0.2449    4.8758 H       1  UNL1        0.0647
     41 H          -0.8682   -0.9605   -0.2334 H       1  UNL1        0.0305
     42 H          -1.1773    0.8720   -0.1164 H       1  UNL1        0.0305
     43 H          -2.2295    1.0049   -1.9115 H       1  UNL1        0.0301
     44 H          -3.4491    1.7344   -0.8533 H       1  UNL1        0.0301
     45 H          -4.3932    1.3248   -3.0602 H       1  UNL1        0.0560
     46 H          -5.0931    0.0076   -1.9648 H       1  UNL1        0.0560
     47 H          -3.2707   -2.5768   -2.9720 H       1  UNL1        0.0560
     48 H          -4.7874   -2.0370   -2.2415 H       1  UNL1        0.0560
     49 H          -3.5928   -2.3342   -0.3731 H       1  UNL1        0.0301
     50 H          -2.0120   -2.1373   -1.1568 H       1  UNL1        0.0301
     51 H          -4.0669    2.9379    2.5763 H       1  UNL1        0.1442
     52 H          -4.9681    1.5894    3.3965 H       1  UNL1        0.1442
@<TRIPOS>BOND
     1     1     2    1
     2     2     3    1
     3     3     4   ar
     4     4     5   ar
     5     5     6    1
     6     6     7   am
     7     7     8    2
     8     7     9    1
     9     9    10   ar
    10    10    11   ar
    11    11    12   ar
    12    12    13    1
    13    12    14   ar
    14    14    15   ar
    15     5    16   ar
    16    16    17   ar
    17    17    18   ar
    18    18    19    1
    19     2    20    1
    20    20    21    1
    21    21    22    1
    22    22    23    1
    23    23    24    1
    24    24    25    1
    25    25    26    1
    26    21    27    1
    27    27    28    1
    28    28    29    1
    29    28    30    2
    30    30     2    1
    31    18     3   ar
    32    26    21    1
    33    15     9   ar
    34     1    31    1
    35     1    32    1
    36     1    33    1
    37     4    34    1
    38     6    35    1
    39    10    36    1
    40    11    37    1
    41    14    38    1
    42    16    39    1
    43    17    40    1
    44    20    41    1
    45    20    42    1
    46    22    43    1
    47    22    44    1
    48    23    45    1
    49    23    46    1
    50    25    47    1
    51    25    48    1
    52    26    49    1
    53    26    50    1
    54    29    51    1
    55    29    52    1
