
     RDKit          3D

 63 68  0  0  0  0  0  0  0  0999 V2000
   -0.3102    3.4857   -1.1269 C   0  0  0  0  0  0  0  0  0  0  0  0
   -0.1603    1.9556   -0.7742 C   0  0  2  0  0  0  0  0  0  0  0  0
    1.0428    1.9808    0.1387 C   0  0  0  0  0  0  0  0  0  0  0  0
    2.2416    1.4587   -0.2842 C   0  0  0  0  0  0  0  0  0  0  0  0
    3.3244    1.5447    0.5648 C   0  0  0  0  0  0  0  0  0  0  0  0
    4.6358    1.0197    0.2307 C   0  0  0  0  0  0  0  0  0  0  0  0
    4.9085   -0.1726   -0.2351 C   0  0  0  0  0  0  0  0  0  0  0  0
    3.8771   -1.0169   -0.4331 F   0  0  0  0  0  0  0  0  0  0  0  0
    6.2620   -0.6225   -0.5497 C   0  0  0  0  0  0  0  0  0  0  0  0
    6.5070   -1.9021   -1.0323 C   0  0  0  0  0  0  0  0  0  0  0  0
    7.7854   -2.3224   -1.3344 C   0  0  0  0  0  0  0  0  0  0  0  0
    8.8827   -1.5077   -1.1775 C   0  0  0  0  0  0  0  0  0  0  0  0
   10.2235   -1.9136   -1.4866 C   0  0  0  0  0  0  0  0  0  0  0  0
   11.3189   -2.2465   -1.7484 N   0  0  0  0  0  0  0  0  0  0  0  0
    8.5971   -0.2190   -0.6862 C   0  0  0  0  0  0  0  0  0  0  0  0
    7.3395    0.1648   -0.3998 N   0  0  0  0  0  0  0  0  0  0  0  0
    3.1815    2.1490    1.8180 C   0  0  0  0  0  0  0  0  0  0  0  0
    1.9857    2.6703    2.2441 C   0  0  0  0  0  0  0  0  0  0  0  0
    0.9029    2.5739    1.3694 C   0  0  0  0  0  0  0  0  0  0  0  0
   -0.2548    3.0991    1.8486 F   0  0  0  0  0  0  0  0  0  0  0  0
    0.1955    1.3082   -1.9640 N   0  0  0  0  0  0  0  0  0  0  0  0
   -0.0755    0.1505   -2.3656 C   0  0  0  0  0  0  0  0  0  0  0  0
    0.3885   -0.3162   -3.6166 N   0  0  0  0  0  0  0  0  0  0  0  0
   -1.0728   -0.8896   -1.3151 S   0  0  0  0  0  0  0  0  0  0  0  0
   -1.9663    0.2416   -0.2065 C   0  0  1  0  0  0  0  0  0  0  0  0
   -3.4494    0.2901   -0.3646 C   0  0  0  0  0  0  0  0  0  0  0  0
   -3.8947    1.1445   -1.1869 O   0  0  0  0  0  0  0  0  0  0  0  0
   -4.3442   -0.5308    0.3239 N   0  0  0  0  0  0  0  0  0  0  0  0
   -3.9941   -1.5400    1.2817 C   0  0  0  0  0  0  0  0  0  0  0  0
   -4.6105   -2.8829    0.9491 C   0  0  0  0  0  0  0  0  0  0  0  0
   -5.8041   -2.7707    0.2834 O   0  0  0  0  0  0  0  0  0  0  0  0
   -6.4921   -1.5961    0.4694 C   0  0  0  0  0  0  0  0  0  0  0  0
   -7.8938   -1.7306   -0.1078 C   0  0  0  0  0  0  0  0  0  0  0  0
   -8.3807   -1.9400    1.1700 O   0  0  0  0  0  0  0  0  0  0  0  0
   -7.2316   -1.4754    1.7849 C   0  0  0  0  0  0  0  0  0  0  0  0
   -5.7759   -0.3543    0.0547 C   0  0  0  0  0  0  0  0  0  0  0  0
   -1.2960    0.5020    1.0788 C   0  0  0  0  0  0  0  0  0  0  0  0
   -1.3301    1.5363    0.0111 C   0  0  1  0  0  0  0  0  0  0  0  0
   -0.2896    4.0761   -0.1911 H   0  0  0  0  0  0  0  0  0  0  0  0
   -1.2291    3.6283   -1.7164 H   0  0  0  0  0  0  0  0  0  0  0  0
    0.5677    3.7973   -1.7293 H   0  0  0  0  0  0  0  0  0  0  0  0
    2.3605    0.9961   -1.2342 H   0  0  0  0  0  0  0  0  0  0  0  0
    5.5003    1.6882    0.3824 H   0  0  0  0  0  0  0  0  0  0  0  0
    5.6443   -2.5441   -1.1571 H   0  0  0  0  0  0  0  0  0  0  0  0
    7.9753   -3.3354   -1.7155 H   0  0  0  0  0  0  0  0  0  0  0  0
    9.4510    0.4309   -0.5584 H   0  0  0  0  0  0  0  0  0  0  0  0
    4.0698    2.1990    2.4686 H   0  0  0  0  0  0  0  0  0  0  0  0
    1.9219    3.1254    3.2181 H   0  0  0  0  0  0  0  0  0  0  0  0
    0.3755   -1.3258   -3.9045 H   0  0  0  0  0  0  0  0  0  0  0  0
    0.7744    0.3628   -4.3238 H   0  0  0  0  0  0  0  0  0  0  0  0
   -2.8896   -1.6787    1.2587 H   0  0  0  0  0  0  0  0  0  0  0  0
   -4.2657   -1.2488    2.3207 H   0  0  0  0  0  0  0  0  0  0  0  0
   -4.6622   -3.5043    1.8606 H   0  0  0  0  0  0  0  0  0  0  0  0
   -3.8975   -3.4276    0.2631 H   0  0  0  0  0  0  0  0  0  0  0  0
   -8.2224   -0.7996   -0.6015 H   0  0  0  0  0  0  0  0  0  0  0  0
   -8.0091   -2.6425   -0.7575 H   0  0  0  0  0  0  0  0  0  0  0  0
   -6.8629   -2.1145    2.6048 H   0  0  0  0  0  0  0  0  0  0  0  0
   -7.3100   -0.3827    2.0530 H   0  0  0  0  0  0  0  0  0  0  0  0
   -5.9095   -0.1628   -1.0400 H   0  0  0  0  0  0  0  0  0  0  0  0
   -6.1537    0.4868    0.6857 H   0  0  0  0  0  0  0  0  0  0  0  0
   -0.3209   -0.0134    1.2850 H   0  0  0  0  0  0  0  0  0  0  0  0
   -1.8713    0.6582    2.0174 H   0  0  0  0  0  0  0  0  0  0  0  0
   -2.0108    2.4060    0.2949 H   0  0  0  0  0  0  0  0  0  0  0  0
  2  1  1  6
  2  3  1  0
  3  4  2  0
  4  5  1  0
  5  6  1  0
  6  7  2  0
  7  8  1  0
  7  9  1  0
  9 10  2  0
 10 11  1  0
 11 12  2  0
 12 13  1  0
 13 14  3  0
 12 15  1  0
 15 16  2  0
  5 17  2  0
 17 18  1  0
 18 19  2  0
 19 20  1  0
  2 21  1  0
 21 22  2  0
 22 23  1  0
 22 24  1  0
 24 25  1  0
 25 26  1  1
 26 27  2  0
 26 28  1  0
 28 29  1  0
 29 30  1  0
 30 31  1  0
 31 32  1  0
 32 33  1  0
 33 34  1  0
 34 35  1  0
 32 36  1  0
 25 37  1  0
 37 38  1  0
 38  2  1  0
 19  3  1  0
 38 25  1  0
 16  9  1  0
 36 28  1  0
 35 32  1  0
  1 39  1  0
  1 40  1  0
  1 41  1  0
  4 42  1  0
  6 43  1  0
 10 44  1  0
 11 45  1  0
 15 46  1  0
 17 47  1  0
 18 48  1  0
 23 49  1  0
 23 50  1  0
 29 51  1  0
 29 52  1  0
 30 53  1  0
 30 54  1  0
 33 55  1  0
 33 56  1  0
 35 57  1  0
 35 58  1  0
 36 59  1  0
 36 60  1  0
 37 61  1  0
 37 62  1  0
 38 63  1  1
M  END
$$$$
