@<TRIPOS>MOLECULE
*****
 63 68 0 0 0
SMALL
GASTEIGER

@<TRIPOS>ATOM
      1 C          -0.3102    3.4857   -1.1269 C.3     1  UNL1       -0.0351
      2 C          -0.1603    1.9556   -0.7742 C.3     1  UNL1        0.0935
      3 C           1.0428    1.9808    0.1387 C.ar    1  UNL1        0.0158
      4 C           2.2416    1.4587   -0.2842 C.ar    1  UNL1       -0.0463
      5 C           3.3244    1.5447    0.5648 C.ar    1  UNL1       -0.0217
      6 C           4.6358    1.0197    0.2307 C.2     1  UNL1       -0.0172
      7 C           4.9085   -0.1726   -0.2351 C.2     1  UNL1        0.1492
      8 F           3.8771   -1.0169   -0.4331 F       1  UNL1       -0.2032
      9 C           6.2620   -0.6225   -0.5497 C.ar    1  UNL1        0.0990
     10 C           6.5070   -1.9021   -1.0323 C.ar    1  UNL1       -0.0322
     11 C           7.7854   -2.3224   -1.3344 C.ar    1  UNL1       -0.0408
     12 C           8.8827   -1.5077   -1.1775 C.ar    1  UNL1        0.0699
     13 C          10.2235   -1.9136   -1.4866 C.1     1  UNL1        0.1007
     14 N          11.3189   -2.2465   -1.7484 N.1     1  UNL1       -0.1908
     15 C           8.5971   -0.2190   -0.6862 C.ar    1  UNL1        0.0457
     16 N           7.3395    0.1648   -0.3998 N.ar    1  UNL1       -0.2514
     17 C           3.1815    2.1490    1.8180 C.ar    1  UNL1       -0.0518
     18 C           1.9857    2.6703    2.2441 C.ar    1  UNL1       -0.0255
     19 C           0.9029    2.5739    1.3694 C.ar    1  UNL1        0.1289
     20 F          -0.2548    3.0991    1.8486 F       1  UNL1       -0.2051
     21 N           0.1955    1.3082   -1.9640 N.2     1  UNL1       -0.2521
     22 C          -0.0755    0.1505   -2.3656 C.2     1  UNL1        0.1485
     23 N           0.3885   -0.3162   -3.6166 N.pl3   1  UNL1       -0.3380
     24 S          -1.0728   -0.8896   -1.3151 S.3     1  UNL1       -0.0746
     25 C          -1.9663    0.2416   -0.2065 C.3     1  UNL1        0.1054
     26 C          -3.4494    0.2901   -0.3646 C.2     1  UNL1        0.2326
     27 O          -3.8947    1.1445   -1.1869 O.2     1  UNL1       -0.2741
     28 N          -4.3442   -0.5308    0.3239 N.am    1  UNL1       -0.2952
     29 C          -3.9941   -1.5400    1.2817 C.3     1  UNL1        0.0383
     30 C          -4.6105   -2.8829    0.9491 C.3     1  UNL1        0.0644
     31 O          -5.8041   -2.7707    0.2834 O.3     1  UNL1       -0.3657
     32 C          -6.4921   -1.5961    0.4694 C.3     1  UNL1        0.1313
     33 C          -7.8938   -1.7306   -0.1078 C.3     1  UNL1        0.0804
     34 O          -8.3807   -1.9400    1.1700 O.3     1  UNL1       -0.3738
     35 C          -7.2316   -1.4754    1.7849 C.3     1  UNL1        0.0804
     36 C          -5.7759   -0.3543    0.0547 C.3     1  UNL1        0.0482
     37 C          -1.2960    0.5020    1.0788 C.3     1  UNL1       -0.0220
     38 C          -1.3301    1.5363    0.0111 C.3     1  UNL1        0.0134
     39 H          -0.2896    4.0761   -0.1911 H       1  UNL1        0.0256
     40 H          -1.2291    3.6283   -1.7164 H       1  UNL1        0.0256
     41 H           0.5677    3.7973   -1.7293 H       1  UNL1        0.0256
     42 H           2.3605    0.9961   -1.2342 H       1  UNL1        0.0628
     43 H           5.5003    1.6882    0.3824 H       1  UNL1        0.0653
     44 H           5.6443   -2.5441   -1.1571 H       1  UNL1        0.0640
     45 H           7.9753   -3.3354   -1.7155 H       1  UNL1        0.0631
     46 H           9.4510    0.4309   -0.5584 H       1  UNL1        0.0843
     47 H           4.0698    2.1990    2.4686 H       1  UNL1        0.0624
     48 H           1.9219    3.1254    3.2181 H       1  UNL1        0.0646
     49 H           0.3755   -1.3258   -3.9045 H       1  UNL1        0.1442
     50 H           0.7744    0.3628   -4.3238 H       1  UNL1        0.1442
     51 H          -2.8896   -1.6787    1.2587 H       1  UNL1        0.0487
     52 H          -4.2657   -1.2488    2.3207 H       1  UNL1        0.0487
     53 H          -4.6622   -3.5043    1.8606 H       1  UNL1        0.0576
     54 H          -3.8975   -3.4276    0.2631 H       1  UNL1        0.0576
     55 H          -8.2224   -0.7996   -0.6015 H       1  UNL1        0.0590
     56 H          -8.0091   -2.6425   -0.7575 H       1  UNL1        0.0590
     57 H          -6.8629   -2.1145    2.6048 H       1  UNL1        0.0590
     58 H          -7.3100   -0.3827    2.0530 H       1  UNL1        0.0590
     59 H          -5.9095   -0.1628   -1.0400 H       1  UNL1        0.0494
     60 H          -6.1537    0.4868    0.6857 H       1  UNL1        0.0494
     61 H          -0.3209   -0.0134    1.2850 H       1  UNL1        0.0287
     62 H          -1.8713    0.6582    2.0174 H       1  UNL1        0.0287
     63 H          -2.0108    2.4060    0.2949 H       1  UNL1        0.0346
@<TRIPOS>BOND
     1     2     1    1
     2     2     3    1
     3     3     4   ar
     4     4     5   ar
     5     5     6    1
     6     6     7    2
     7     7     8    1
     8     7     9    1
     9     9    10   ar
    10    10    11   ar
    11    11    12   ar
    12    12    13    1
    13    13    14    3
    14    12    15   ar
    15    15    16   ar
    16     5    17   ar
    17    17    18   ar
    18    18    19   ar
    19    19    20    1
    20     2    21    1
    21    21    22    2
    22    22    23    1
    23    22    24    1
    24    24    25    1
    25    25    26    1
    26    26    27    2
    27    26    28   am
    28    28    29    1
    29    29    30    1
    30    30    31    1
    31    31    32    1
    32    32    33    1
    33    33    34    1
    34    34    35    1
    35    32    36    1
    36    25    37    1
    37    37    38    1
    38    38     2    1
    39    19     3   ar
    40    38    25    1
    41    16     9   ar
    42    36    28    1
    43    35    32    1
    44     1    39    1
    45     1    40    1
    46     1    41    1
    47     4    42    1
    48     6    43    1
    49    10    44    1
    50    11    45    1
    51    15    46    1
    52    17    47    1
    53    18    48    1
    54    23    49    1
    55    23    50    1
    56    29    51    1
    57    29    52    1
    58    30    53    1
    59    30    54    1
    60    33    55    1
    61    33    56    1
    62    35    57    1
    63    35    58    1
    64    36    59    1
    65    36    60    1
    66    37    61    1
    67    37    62    1
    68    38    63    1
