@<TRIPOS>MOLECULE
*****
 47 49 0 0 0
SMALL
GASTEIGER

@<TRIPOS>ATOM
      1 C          -6.8135   -0.9094    0.4702 C.3     1  UNL1        0.0365
      2 O          -5.7225   -1.4280    1.0531 O.3     1  UNL1       -0.3814
      3 C          -4.4883   -1.3172    0.5488 C.3     1  UNL1        0.0645
      4 C          -3.9345    0.0798    0.3211 C.3     1  UNL1        0.0552
      5 C          -4.6297    0.7685   -0.8215 C.3     1  UNL1       -0.0323
      6 C          -3.5407    1.2666   -1.7214 C.3     1  UNL1       -0.0370
      7 C          -2.2791    1.0340   -0.9592 C.3     1  UNL1        0.0209
      8 N          -2.5558   -0.1350   -0.1342 N.3     1  UNL1       -0.1713
      9 S          -1.5372   -0.0419    1.2632 S.O2    1  UNL1        0.0612
     10 O          -1.7446    1.3013    1.9029 O.2     1  UNL1       -0.1528
     11 O          -1.8008   -1.1372    2.2172 O.2     1  UNL1       -0.1528
     12 C           0.1395   -0.0771    0.6961 C.ar    1  UNL1        0.1073
     13 C           0.8008   -1.2533    0.5493 C.ar    1  UNL1       -0.0204
     14 C           2.1275   -1.2878    0.1012 C.ar    1  UNL1        0.0373
     15 I           2.9821   -3.1705   -0.1099 I       1  UNL1       -0.0418
     16 C           2.8086   -0.1333   -0.2050 C.ar    1  UNL1        0.0608
     17 C           2.1187    1.0443   -0.0495 C.ar    1  UNL1        0.0512
     18 C           0.8084    1.0866    0.3921 C.ar    1  UNL1       -0.0225
     19 C           2.9772    2.1615   -0.4263 C.2     1  UNL1        0.2496
     20 O           2.6942    3.3923   -0.4162 O.2     1  UNL1       -0.2817
     21 C           4.2246    1.5415   -0.8137 C.2     1  UNL1        0.2913
     22 O           5.2251    2.1872   -1.2101 O.2     1  UNL1       -0.2661
     23 N           4.1497    0.1107   -0.6839 N.am    1  UNL1       -0.2630
     24 C           5.1761   -0.8485   -0.9563 C.3     1  UNL1        0.0226
     25 C           6.0795   -1.2295    0.1511 C.3     1  UNL1       -0.0084
     26 C           6.8313   -0.0768    0.7337 C.3     1  UNL1        0.0916
     27 F           5.9874    0.8426    1.2835 F       1  UNL1       -0.2490
     28 H          -6.7564    0.1946    0.4230 H       1  UNL1        0.0523
     29 H          -7.0535   -1.3444   -0.5396 H       1  UNL1        0.0523
     30 H          -7.7672   -1.1018    1.0496 H       1  UNL1        0.0523
     31 H          -4.3203   -1.9492   -0.3691 H       1  UNL1        0.0576
     32 H          -3.7750   -1.7882    1.2965 H       1  UNL1        0.0576
     33 H          -3.9584    0.6304    1.2623 H       1  UNL1        0.0502
     34 H          -5.1412    1.6658   -0.4050 H       1  UNL1        0.0282
     35 H          -5.3217    0.0800   -1.3666 H       1  UNL1        0.0282
     36 H          -3.6823    2.3375   -2.0052 H       1  UNL1        0.0279
     37 H          -3.5199    0.6281   -2.6577 H       1  UNL1        0.0279
     38 H          -2.1578    1.9057   -0.2519 H       1  UNL1        0.0444
     39 H          -1.3915    0.9123   -1.5787 H       1  UNL1        0.0444
     40 H           0.2591   -2.1686    0.7935 H       1  UNL1        0.0648
     41 H           0.2821    2.0285    0.5081 H       1  UNL1        0.0645
     42 H           4.8360   -1.6985   -1.5844 H       1  UNL1        0.0469
     43 H           5.8678   -0.3231   -1.6998 H       1  UNL1        0.0469
     44 H           5.6259   -1.7542    1.0149 H       1  UNL1        0.0305
     45 H           6.8715   -1.8989   -0.3122 H       1  UNL1        0.0305
     46 H           7.5731    0.3641    0.0403 H       1  UNL1        0.0615
     47 H           7.4458   -0.4912    1.5855 H       1  UNL1        0.0615
@<TRIPOS>BOND
     1     1     2    1
     2     2     3    1
     3     3     4    1
     4     4     5    1
     5     5     6    1
     6     6     7    1
     7     7     8    1
     8     8     9    1
     9     9    10    2
    10     9    11    2
    11     9    12    1
    12    12    13   ar
    13    13    14   ar
    14    14    15    1
    15    14    16   ar
    16    16    17   ar
    17    17    18   ar
    18    17    19    1
    19    19    20    2
    20    19    21    1
    21    21    22    2
    22    21    23   am
    23    23    24    1
    24    24    25    1
    25    25    26    1
    26    26    27    1
    27     8     4    1
    28    18    12   ar
    29    23    16    1
    30     1    28    1
    31     1    29    1
    32     1    30    1
    33     3    31    1
    34     3    32    1
    35     4    33    1
    36     5    34    1
    37     5    35    1
    38     6    36    1
    39     6    37    1
    40     7    38    1
    41     7    39    1
    42    13    40    1
    43    18    41    1
    44    24    42    1
    45    24    43    1
    46    25    44    1
    47    25    45    1
    48    26    46    1
    49    26    47    1
