@<TRIPOS>MOLECULE
*****
 59 64 0 0 0
SMALL
GASTEIGER

@<TRIPOS>ATOM
      1 C           6.8246   -1.2747    1.2512 C.3     1  UNL1        0.0712
      2 C           7.7385   -0.6312    0.2571 C.3     1  UNL1       -0.0243
      3 C           6.2978   -0.3560    0.2400 C.3     1  UNL1        0.0626
      4 C           5.4060   -0.8039   -0.8929 C.3     1  UNL1       -0.0156
      5 C           4.8965    0.4827   -1.5079 C.3     1  UNL1        0.0493
      6 N           5.2954    1.5408   -0.5979 N.am    1  UNL1       -0.3080
      7 C           5.8513    1.0120    0.5934 C.2     1  UNL1        0.2205
      8 O           5.8627    1.7273    1.6267 O.2     1  UNL1       -0.2752
      9 C           3.4099    0.4977   -1.5618 C.ar    1  UNL1       -0.0270
     10 C           2.8622    0.5801   -0.2808 C.ar    1  UNL1       -0.0534
     11 C           1.4702    0.6090   -0.1453 C.ar    1  UNL1       -0.0196
     12 C           0.6684    0.5550   -1.2910 C.ar    1  UNL1        0.1210
     13 O          -0.7229    0.5856   -1.1238 O.3     1  UNL1       -0.4874
     14 C          -1.2858    0.6636    0.1604 C.3     1  UNL1        0.1153
     15 C          -2.7526    0.6922    0.1408 C.ar    1  UNL1        0.0008
     16 C          -3.5486   -0.3980    0.4513 C.ar    1  UNL1       -0.0287
     17 C          -4.9173   -0.2821    0.4067 C.ar    1  UNL1        0.0720
     18 N          -5.4822    0.8893    0.0619 N.ar    1  UNL1       -0.2467
     19 C          -4.7485    1.9684   -0.2461 C.ar    1  UNL1        0.0720
     20 C          -3.3613    1.8745   -0.2078 C.ar    1  UNL1        0.0068
     21 C          -2.6461    3.0275   -0.5361 C.ar    1  UNL1       -0.0522
     22 C          -3.2733    4.2020   -0.8813 C.ar    1  UNL1       -0.0611
     23 C          -4.6611    4.2683   -0.9116 C.ar    1  UNL1       -0.0597
     24 C          -5.3855    3.1485   -0.5929 C.ar    1  UNL1       -0.0357
     25 C          -5.8262   -1.3756    0.7142 C.ar    1  UNL1        0.0004
     26 C          -7.1877   -1.1867    0.6474 C.ar    1  UNL1       -0.0526
     27 C          -8.1201   -2.1546    0.9174 C.ar    1  UNL1       -0.0611
     28 C          -7.7092   -3.4144    1.2837 C.ar    1  UNL1       -0.0617
     29 C          -6.3530   -3.6312    1.3585 C.ar    1  UNL1       -0.0611
     30 C          -5.4266   -2.6509    1.0849 C.ar    1  UNL1       -0.0526
     31 C           1.2230    0.4738   -2.5496 C.ar    1  UNL1       -0.0196
     32 C           2.5964    0.4458   -2.6721 C.ar    1  UNL1       -0.0534
     33 C           6.6974   -2.7332    1.1641 C.2     1  UNL1        0.3089
     34 O           6.5660   -3.5515    2.2615 O.3     1  UNL1       -0.4804
     35 O           6.7137   -3.2302   -0.0062 O.2     1  UNL1       -0.2507
     36 H           6.8049   -0.8893    2.3035 H       1  UNL1        0.0424
     37 H           8.2437   -1.2711   -0.4934 H       1  UNL1        0.0284
     38 H           8.4122    0.1810    0.6597 H       1  UNL1        0.0284
     39 H           5.9860   -1.3551   -1.6389 H       1  UNL1        0.0297
     40 H           4.5670   -1.4034   -0.4798 H       1  UNL1        0.0297
     41 H           5.3763    0.6753   -2.4778 H       1  UNL1        0.0548
     42 H           5.1297    2.5377   -0.9200 H       1  UNL1        0.1493
     43 H           3.4155    0.6255    0.6533 H       1  UNL1        0.0622
     44 H           1.0252    0.6740    0.8588 H       1  UNL1        0.0654
     45 H          -0.8458    1.4787    0.7727 H       1  UNL1        0.0748
     46 H          -0.9793   -0.2908    0.6812 H       1  UNL1        0.0748
     47 H          -3.0920   -1.3308    0.7260 H       1  UNL1        0.0643
     48 H          -1.5752    2.9753   -0.5132 H       1  UNL1        0.0624
     49 H          -2.6450    5.0548   -1.1232 H       1  UNL1        0.0618
     50 H          -5.1284    5.1861   -1.1810 H       1  UNL1        0.0618
     51 H          -6.4636    3.1419   -0.5997 H       1  UNL1        0.0639
     52 H          -7.5882   -0.2176    0.3652 H       1  UNL1        0.0624
     53 H          -9.1887   -1.9670    0.8535 H       1  UNL1        0.0618
     54 H          -8.4489   -4.1692    1.4938 H       1  UNL1        0.0618
     55 H          -5.9842   -4.6202    1.6462 H       1  UNL1        0.0618
     56 H          -4.3746   -2.8539    1.1527 H       1  UNL1        0.0624
     57 H           0.6194    0.4310   -3.4481 H       1  UNL1        0.0654
     58 H           3.1333    0.3830   -3.6112 H       1  UNL1        0.0622
     59 H           6.6288   -4.5457    2.1995 H       1  UNL1        0.2951
@<TRIPOS>BOND
     1     1     2    1
     2     3     2    1
     3     3     4    1
     4     4     5    1
     5     5     6    1
     6     6     7   am
     7     7     8    2
     8     5     9    1
     9     9    10   ar
    10    10    11   ar
    11    11    12   ar
    12    12    13    1
    13    13    14    1
    14    14    15    1
    15    15    16   ar
    16    16    17   ar
    17    17    18   ar
    18    18    19   ar
    19    19    20   ar
    20    20    21   ar
    21    21    22   ar
    22    22    23   ar
    23    23    24   ar
    24    17    25    1
    25    25    26   ar
    26    26    27   ar
    27    27    28   ar
    28    28    29   ar
    29    29    30   ar
    30    12    31   ar
    31    31    32   ar
    32     1    33    1
    33    33    34    1
    34    33    35    2
    35     3     1    1
    36     7     3    1
    37    32     9   ar
    38    20    15   ar
    39    30    25   ar
    40    24    19   ar
    41     1    36    1
    42     2    37    1
    43     2    38    1
    44     4    39    1
    45     4    40    1
    46     5    41    1
    47     6    42    1
    48    10    43    1
    49    11    44    1
    50    14    45    1
    51    14    46    1
    52    16    47    1
    53    21    48    1
    54    22    49    1
    55    23    50    1
    56    24    51    1
    57    26    52    1
    58    27    53    1
    59    28    54    1
    60    29    55    1
    61    30    56    1
    62    31    57    1
    63    32    58    1
    64    34    59    1
