
     RDKit          3D

 59 64  0  0  0  0  0  0  0  0999 V2000
    6.8246   -1.2747    1.2512 C   0  0  1  0  0  0  0  0  0  0  0  0
    7.7385   -0.6312    0.2571 C   0  0  0  0  0  0  0  0  0  0  0  0
    6.2978   -0.3560    0.2400 C   0  0  1  0  0  0  0  0  0  0  0  0
    5.4060   -0.8039   -0.8929 C   0  0  0  0  0  0  0  0  0  0  0  0
    4.8965    0.4827   -1.5079 C   0  0  2  0  0  0  0  0  0  0  0  0
    5.2954    1.5408   -0.5979 N   0  0  0  0  0  0  0  0  0  0  0  0
    5.8513    1.0120    0.5934 C   0  0  0  0  0  0  0  0  0  0  0  0
    5.8627    1.7273    1.6267 O   0  0  0  0  0  0  0  0  0  0  0  0
    3.4099    0.4977   -1.5618 C   0  0  0  0  0  0  0  0  0  0  0  0
    2.8622    0.5801   -0.2808 C   0  0  0  0  0  0  0  0  0  0  0  0
    1.4702    0.6090   -0.1453 C   0  0  0  0  0  0  0  0  0  0  0  0
    0.6684    0.5550   -1.2910 C   0  0  0  0  0  0  0  0  0  0  0  0
   -0.7229    0.5856   -1.1238 O   0  0  0  0  0  0  0  0  0  0  0  0
   -1.2858    0.6636    0.1604 C   0  0  0  0  0  0  0  0  0  0  0  0
   -2.7526    0.6922    0.1408 C   0  0  0  0  0  0  0  0  0  0  0  0
   -3.5486   -0.3980    0.4513 C   0  0  0  0  0  0  0  0  0  0  0  0
   -4.9173   -0.2821    0.4067 C   0  0  0  0  0  0  0  0  0  0  0  0
   -5.4822    0.8893    0.0619 N   0  0  0  0  0  0  0  0  0  0  0  0
   -4.7485    1.9684   -0.2461 C   0  0  0  0  0  0  0  0  0  0  0  0
   -3.3613    1.8745   -0.2078 C   0  0  0  0  0  0  0  0  0  0  0  0
   -2.6461    3.0275   -0.5361 C   0  0  0  0  0  0  0  0  0  0  0  0
   -3.2733    4.2020   -0.8813 C   0  0  0  0  0  0  0  0  0  0  0  0
   -4.6611    4.2683   -0.9116 C   0  0  0  0  0  0  0  0  0  0  0  0
   -5.3855    3.1485   -0.5929 C   0  0  0  0  0  0  0  0  0  0  0  0
   -5.8262   -1.3756    0.7142 C   0  0  0  0  0  0  0  0  0  0  0  0
   -7.1877   -1.1867    0.6474 C   0  0  0  0  0  0  0  0  0  0  0  0
   -8.1201   -2.1546    0.9174 C   0  0  0  0  0  0  0  0  0  0  0  0
   -7.7092   -3.4144    1.2837 C   0  0  0  0  0  0  0  0  0  0  0  0
   -6.3530   -3.6312    1.3585 C   0  0  0  0  0  0  0  0  0  0  0  0
   -5.4266   -2.6509    1.0849 C   0  0  0  0  0  0  0  0  0  0  0  0
    1.2230    0.4738   -2.5496 C   0  0  0  0  0  0  0  0  0  0  0  0
    2.5964    0.4458   -2.6721 C   0  0  0  0  0  0  0  0  0  0  0  0
    6.6974   -2.7332    1.1641 C   0  0  0  0  0  0  0  0  0  0  0  0
    6.5660   -3.5515    2.2615 O   0  0  0  0  0  0  0  0  0  0  0  0
    6.7137   -3.2302   -0.0062 O   0  0  0  0  0  0  0  0  0  0  0  0
    6.8049   -0.8893    2.3035 H   0  0  0  0  0  0  0  0  0  0  0  0
    8.2437   -1.2711   -0.4934 H   0  0  0  0  0  0  0  0  0  0  0  0
    8.4122    0.1810    0.6597 H   0  0  0  0  0  0  0  0  0  0  0  0
    5.9860   -1.3551   -1.6389 H   0  0  0  0  0  0  0  0  0  0  0  0
    4.5670   -1.4034   -0.4798 H   0  0  0  0  0  0  0  0  0  0  0  0
    5.3763    0.6753   -2.4778 H   0  0  0  0  0  0  0  0  0  0  0  0
    5.1297    2.5377   -0.9200 H   0  0  0  0  0  0  0  0  0  0  0  0
    3.4155    0.6255    0.6533 H   0  0  0  0  0  0  0  0  0  0  0  0
    1.0252    0.6740    0.8588 H   0  0  0  0  0  0  0  0  0  0  0  0
   -0.8458    1.4787    0.7727 H   0  0  0  0  0  0  0  0  0  0  0  0
   -0.9793   -0.2908    0.6812 H   0  0  0  0  0  0  0  0  0  0  0  0
   -3.0920   -1.3308    0.7260 H   0  0  0  0  0  0  0  0  0  0  0  0
   -1.5752    2.9753   -0.5132 H   0  0  0  0  0  0  0  0  0  0  0  0
   -2.6450    5.0548   -1.1232 H   0  0  0  0  0  0  0  0  0  0  0  0
   -5.1284    5.1861   -1.1810 H   0  0  0  0  0  0  0  0  0  0  0  0
   -6.4636    3.1419   -0.5997 H   0  0  0  0  0  0  0  0  0  0  0  0
   -7.5882   -0.2176    0.3652 H   0  0  0  0  0  0  0  0  0  0  0  0
   -9.1887   -1.9670    0.8535 H   0  0  0  0  0  0  0  0  0  0  0  0
   -8.4489   -4.1692    1.4938 H   0  0  0  0  0  0  0  0  0  0  0  0
   -5.9842   -4.6202    1.6462 H   0  0  0  0  0  0  0  0  0  0  0  0
   -4.3746   -2.8539    1.1527 H   0  0  0  0  0  0  0  0  0  0  0  0
    0.6194    0.4310   -3.4481 H   0  0  0  0  0  0  0  0  0  0  0  0
    3.1333    0.3830   -3.6112 H   0  0  0  0  0  0  0  0  0  0  0  0
    6.6288   -4.5457    2.1995 H   0  0  0  0  0  0  0  0  0  0  0  0
  1  2  1  0
  3  2  1  6
  3  4  1  0
  4  5  1  0
  5  6  1  0
  6  7  1  0
  7  8  2  0
  5  9  1  0
  9 10  2  0
 10 11  1  0
 11 12  2  0
 12 13  1  0
 13 14  1  0
 14 15  1  0
 15 16  2  0
 16 17  1  0
 17 18  2  0
 18 19  1  0
 19 20  2  0
 20 21  1  0
 21 22  2  0
 22 23  1  0
 23 24  2  0
 17 25  1  0
 25 26  2  0
 26 27  1  0
 27 28  2  0
 28 29  1  0
 29 30  2  0
 12 31  1  0
 31 32  2  0
  1 33  1  0
 33 34  1  0
 33 35  2  0
  3  1  1  0
  7  3  1  0
 32  9  1  0
 20 15  1  0
 30 25  1  0
 24 19  1  0
  1 36  1  1
  2 37  1  0
  2 38  1  0
  4 39  1  0
  4 40  1  0
  5 41  1  6
  6 42  1  0
 10 43  1  0
 11 44  1  0
 14 45  1  0
 14 46  1  0
 16 47  1  0
 21 48  1  0
 22 49  1  0
 23 50  1  0
 24 51  1  0
 26 52  1  0
 27 53  1  0
 28 54  1  0
 29 55  1  0
 30 56  1  0
 31 57  1  0
 32 58  1  0
 34 59  1  0
M  END
$$$$
