
     RDKit          3D

 24 25  0  0  0  0  0  0  0  0999 V2000
    3.2224    0.4768   -0.1314 C   0  0  0  0  0  0  0  0  0  0  0  0
    2.0780   -0.4091   -0.0883 N   0  0  0  0  0  0  0  0  0  0  0  0
    2.1116   -1.7602   -0.0508 C   0  0  0  0  0  0  0  0  0  0  0  0
    0.8583   -2.2505   -0.0172 N   0  0  0  0  0  0  0  0  0  0  0  0
    0.0400   -1.1758   -0.0344 C   0  0  0  0  0  0  0  0  0  0  0  0
    0.8106   -0.0359   -0.0787 C   0  0  0  0  0  0  0  0  0  0  0  0
    0.1585    1.1945   -0.1029 C   0  0  0  0  0  0  0  0  0  0  0  0
    0.8745    2.2253   -0.1433 O   0  0  0  0  0  0  0  0  0  0  0  0
   -1.1885    1.2467   -0.0831 N   0  0  0  0  0  0  0  0  0  0  0  0
   -1.7588    2.5643   -0.1111 C   0  0  0  0  0  0  0  0  0  0  0  0
   -1.9474    0.1332   -0.0397 C   0  0  0  0  0  0  0  0  0  0  0  0
   -3.1971    0.2055   -0.0219 O   0  0  0  0  0  0  0  0  0  0  0  0
   -1.2934   -1.0218   -0.0176 N   0  0  0  0  0  0  0  0  0  0  0  0
   -2.0742   -2.2395    0.0290 C   0  0  0  0  0  0  0  0  0  0  0  0
    3.4493    0.7593    0.9141 H   0  0  0  0  0  0  0  0  0  0  0  0
    4.0913   -0.0079   -0.6225 H   0  0  0  0  0  0  0  0  0  0  0  0
    3.0203    1.3955   -0.7209 H   0  0  0  0  0  0  0  0  0  0  0  0
    2.9769   -2.3996   -0.0466 H   0  0  0  0  0  0  0  0  0  0  0  0
   -1.1776    3.2901    0.5163 H   0  0  0  0  0  0  0  0  0  0  0  0
   -1.5826    2.9445   -1.1588 H   0  0  0  0  0  0  0  0  0  0  0  0
   -2.8253    2.6174    0.1163 H   0  0  0  0  0  0  0  0  0  0  0  0
   -1.6310   -2.8847    0.8182 H   0  0  0  0  0  0  0  0  0  0  0  0
   -1.8613   -2.7932   -0.9322 H   0  0  0  0  0  0  0  0  0  0  0  0
   -3.1546   -2.0749    0.1331 H   0  0  0  0  0  0  0  0  0  0  0  0
  1  2  1  0
  2  3  1  0
  3  4  2  0
  4  5  1  0
  5  6  2  0
  6  7  1  0
  7  8  2  0
  7  9  1  0
  9 10  1  0
  9 11  1  0
 11 12  2  0
 11 13  1  0
 13 14  1  0
  6  2  1  0
 13  5  1  0
  1 15  1  0
  1 16  1  0
  1 17  1  0
  3 18  1  0
 10 19  1  0
 10 20  1  0
 10 21  1  0
 14 22  1  0
 14 23  1  0
 14 24  1  0
M  END
$$$$
