
     RDKit          3D

 20 19  0  0  0  0  0  0  0  0999 V2000
    3.4481    0.3928    0.6512 C   0  0  0  0  0  0  0  0  0  0  0  0
    2.7406   -0.6083   -0.6275 S   0  0  0  0  0  0  0  0  0  0  0  0
    1.0032   -0.9680   -0.4611 C   0  0  0  0  0  0  0  0  0  0  0  0
    0.0941    0.2054   -0.5864 C   0  0  0  0  0  0  0  0  0  0  0  0
   -1.3223   -0.3071   -0.4197 C   0  0  1  0  0  0  0  0  0  0  0  0
   -1.5749   -0.9374    0.8361 N   0  0  0  0  0  0  0  0  0  0  0  0
   -2.3345    0.7507   -0.6440 C   0  0  0  0  0  0  0  0  0  0  0  0
   -3.4078    1.2050    0.1047 O   0  0  0  0  0  0  0  0  0  0  0  0
   -2.4464    1.5257   -1.6413 O   0  0  0  0  0  0  0  0  0  0  0  0
    3.9059   -0.3121    1.4094 H   0  0  0  0  0  0  0  0  0  0  0  0
    2.7652    1.0695    1.1749 H   0  0  0  0  0  0  0  0  0  0  0  0
    4.3423    0.9455    0.2562 H   0  0  0  0  0  0  0  0  0  0  0  0
    0.8583   -1.4041    0.5610 H   0  0  0  0  0  0  0  0  0  0  0  0
    0.7117   -1.7565   -1.1759 H   0  0  0  0  0  0  0  0  0  0  0  0
    0.1404    0.6416   -1.6219 H   0  0  0  0  0  0  0  0  0  0  0  0
    0.3094    0.9880    0.1472 H   0  0  0  0  0  0  0  0  0  0  0  0
   -1.5215   -1.0800   -1.2127 H   0  0  0  0  0  0  0  0  0  0  0  0
   -0.8105   -0.7497    1.5168 H   0  0  0  0  0  0  0  0  0  0  0  0
   -2.5229   -0.6993    1.2379 H   0  0  0  0  0  0  0  0  0  0  0  0
   -4.3783    1.0981   -0.1557 H   0  0  0  0  0  0  0  0  0  0  0  0
  1  2  1  0
  2  3  1  0
  3  4  1  0
  4  5  1  0
  5  6  1  0
  5  7  1  0
  7  8  1  0
  7  9  2  0
  1 10  1  0
  1 11  1  0
  1 12  1  0
  3 13  1  0
  3 14  1  0
  4 15  1  0
  4 16  1  0
  5 17  1  6
  6 18  1  0
  6 19  1  0
  8 20  1  0
M  END
$$$$
