@<TRIPOS>MOLECULE
*****
 68 72 0 0 0
SMALL
GASTEIGER

@<TRIPOS>ATOM
      1 C           7.2507    2.6521   -0.5317 C.3     1  UNL1       -0.0253
      2 C           7.0752    1.1389   -0.3914 C.3     1  UNL1        0.1068
      3 C           7.7890    0.4945   -1.5383 C.3     1  UNL1       -0.0253
      4 C           7.7390    0.6644    0.8976 C.3     1  UNL1       -0.0253
      5 O           5.6913    0.8876   -0.3795 O.3     1  UNL1       -0.4445
      6 C           5.1226   -0.3512   -0.2681 C.2     1  UNL1        0.4034
      7 O           5.8641   -1.3566   -0.1677 O.2     1  UNL1       -0.2262
      8 N           3.7193   -0.5431   -0.2618 N.am    1  UNL1       -0.2673
      9 C           2.7751    0.5528   -0.3723 C.3     1  UNL1        0.0197
     10 C           1.4266   -0.0424   -0.7176 C.3     1  UNL1       -0.0144
     11 C           0.9791   -0.8433    0.5080 C.3     1  UNL1        0.0578
     12 N          -0.2856   -1.4803    0.2878 N.ar    1  UNL1       -0.2431
     13 N          -0.5168   -2.7663    0.0810 N.ar    1  UNL1       -0.1768
     14 C          -1.8349   -2.9899   -0.0857 C.ar    1  UNL1        0.0620
     15 C          -2.4773   -1.7779    0.0210 C.ar    1  UNL1        0.0785
     16 C          -3.7768   -1.3192   -0.0452 C.ar    1  UNL1        0.1361
     17 N          -4.8172   -2.2429   -0.2879 N.pl3   1  UNL1       -0.3101
     18 C          -4.8281   -2.9761   -1.5310 C.3     1  UNL1        0.0370
     19 C          -5.4200   -4.3575   -1.3454 C.3     1  UNL1        0.0634
     20 O          -5.4141   -4.6666    0.0062 O.3     1  UNL1       -0.3767
     21 C          -6.3192   -3.8645    0.7117 C.3     1  UNL1        0.0634
     22 C          -5.8356   -2.4248    0.7206 C.3     1  UNL1        0.0370
     23 N          -4.0094    0.0081    0.1218 N.ar    1  UNL1       -0.2118
     24 C          -3.0483    0.9051    0.3482 C.ar    1  UNL1        0.1641
     25 C          -3.3381    2.3253    0.5230 C.ar    1  UNL1        0.0194
     26 C          -2.3431    3.2496    0.7582 C.ar    1  UNL1       -0.0493
     27 C          -2.6597    4.5938    0.9197 C.ar    1  UNL1       -0.0404
     28 C          -3.9559    5.0652    0.8551 C.ar    1  UNL1        0.0246
     29 N          -4.2734    6.4421    1.0211 N.pl3   1  UNL1       -0.3580
     30 C          -4.9474    4.1277    0.6184 C.ar    1  UNL1       -0.0404
     31 C          -4.6366    2.7866    0.4568 C.ar    1  UNL1       -0.0493
     32 N          -1.7784    0.4685    0.4143 N.ar    1  UNL1       -0.2080
     33 C          -1.4789   -0.8520    0.2552 C.ar    1  UNL1        0.1642
     34 C           2.0443   -1.8509    0.8850 C.3     1  UNL1       -0.0144
     35 C           3.1668   -1.8691   -0.1421 C.3     1  UNL1        0.0197
     36 H           6.9056    2.9225   -1.5572 H       1  UNL1        0.0268
     37 H           8.3329    2.9077   -0.4612 H       1  UNL1        0.0268
     38 H           6.6194    3.1956    0.1714 H       1  UNL1        0.0268
     39 H           7.2083    0.4840   -2.4767 H       1  UNL1        0.0268
     40 H           8.0444   -0.5549   -1.2485 H       1  UNL1        0.0268
     41 H           8.7702    1.0245   -1.6920 H       1  UNL1        0.0268
     42 H           7.9989   -0.4127    0.7368 H       1  UNL1        0.0268
     43 H           8.7001    1.2200    0.9984 H       1  UNL1        0.0268
     44 H           7.0781    0.7578    1.7597 H       1  UNL1        0.0268
     45 H           3.0937    1.3164   -1.1011 H       1  UNL1        0.0466
     46 H           2.6774    0.9996    0.6341 H       1  UNL1        0.0466
     47 H           1.4983   -0.7143   -1.6111 H       1  UNL1        0.0301
     48 H           0.6536    0.7452   -0.8603 H       1  UNL1        0.0301
     49 H           0.9431   -0.0979    1.3477 H       1  UNL1        0.0546
     50 H          -2.3366   -3.9374   -0.2704 H       1  UNL1        0.0856
     51 H          -5.4591   -2.3905   -2.2557 H       1  UNL1        0.0487
     52 H          -3.7978   -3.0282   -1.9218 H       1  UNL1        0.0487
     53 H          -4.8294   -5.1338   -1.8793 H       1  UNL1        0.0575
     54 H          -6.4902   -4.3409   -1.7048 H       1  UNL1        0.0575
     55 H          -7.3252   -3.8819    0.2839 H       1  UNL1        0.0575
     56 H          -6.3566   -4.2466    1.7603 H       1  UNL1        0.0575
     57 H          -6.6792   -1.7345    0.5231 H       1  UNL1        0.0487
     58 H          -5.4022   -2.1454    1.6973 H       1  UNL1        0.0487
     59 H          -1.3219    2.8920    0.8110 H       1  UNL1        0.0625
     60 H          -1.8627    5.2978    1.1028 H       1  UNL1        0.0636
     61 H          -4.8593    6.8256    1.7929 H       1  UNL1        0.1423
     62 H          -3.8994    7.1266    0.3283 H       1  UNL1        0.1423
     63 H          -5.9876    4.4525    0.5592 H       1  UNL1        0.0636
     64 H          -5.4107    2.0392    0.2695 H       1  UNL1        0.0625
     65 H           1.6281   -2.8891    0.9407 H       1  UNL1        0.0301
     66 H           2.5002   -1.6426    1.8731 H       1  UNL1        0.0301
     67 H           2.7991   -2.2582   -1.1206 H       1  UNL1        0.0466
     68 H           3.9186   -2.5859    0.2253 H       1  UNL1        0.0466
@<TRIPOS>BOND
     1     1     2    1
     2     2     3    1
     3     2     4    1
     4     2     5    1
     5     5     6    1
     6     6     7    2
     7     6     8   am
     8     8     9    1
     9     9    10    1
    10    10    11    1
    11    11    12    1
    12    12    13   ar
    13    13    14   ar
    14    14    15   ar
    15    15    16   ar
    16    16    17    1
    17    17    18    1
    18    18    19    1
    19    19    20    1
    20    20    21    1
    21    21    22    1
    22    16    23   ar
    23    23    24   ar
    24    24    25    1
    25    25    26   ar
    26    26    27   ar
    27    27    28   ar
    28    28    29    1
    29    28    30   ar
    30    30    31   ar
    31    24    32   ar
    32    32    33   ar
    33    11    34    1
    34    34    35    1
    35    35     8    1
    36    33    12   ar
    37    33    15   ar
    38    22    17    1
    39    31    25   ar
    40     1    36    1
    41     1    37    1
    42     1    38    1
    43     3    39    1
    44     3    40    1
    45     3    41    1
    46     4    42    1
    47     4    43    1
    48     4    44    1
    49     9    45    1
    50     9    46    1
    51    10    47    1
    52    10    48    1
    53    11    49    1
    54    14    50    1
    55    18    51    1
    56    18    52    1
    57    19    53    1
    58    19    54    1
    59    21    55    1
    60    21    56    1
    61    22    57    1
    62    22    58    1
    63    26    59    1
    64    27    60    1
    65    29    61    1
    66    29    62    1
    67    30    63    1
    68    31    64    1
    69    34    65    1
    70    34    66    1
    71    35    67    1
    72    35    68    1
