
     RDKit          3D

 54 58  0  0  0  0  0  0  0  0999 V2000
    7.7873   -1.6081   -0.9113 N   0  0  0  0  0  0  0  0  0  0  0  0
    7.2778   -0.4862    0.3001 S   0  0  0  0  0  6  0  0  0  0  0  0
    8.3355    0.5559    0.4497 O   0  0  0  0  0  0  0  0  0  0  0  0
    7.1259   -1.2426    1.5917 O   0  0  0  0  0  0  0  0  0  0  0  0
    5.7710    0.2745   -0.1575 C   0  0  0  0  0  0  0  0  0  0  0  0
    5.7422    1.4397   -0.8852 C   0  0  0  0  0  0  0  0  0  0  0  0
    4.5806    2.0183   -1.2331 N   0  0  0  0  0  0  0  0  0  0  0  0
    3.4343    1.4275   -0.8504 C   0  0  0  0  0  0  0  0  0  0  0  0
    3.4195    0.2587   -0.1200 C   0  0  0  0  0  0  0  0  0  0  0  0
    2.1213   -0.3247    0.2598 C   0  0  0  0  0  0  0  0  0  0  0  0
    0.9809    0.2700   -0.0983 N   0  0  0  0  0  0  0  0  0  0  0  0
   -0.2551   -0.2630    0.2497 C   0  0  0  0  0  0  0  0  0  0  0  0
   -1.3791    0.5562    0.0128 N   0  0  0  0  0  0  0  0  0  0  0  0
   -1.1459    1.7188   -0.8734 C   0  0  0  0  0  0  0  0  0  0  0  0
   -2.3571    2.5137   -1.0809 C   0  0  0  0  0  0  0  0  0  0  0  0
   -2.7245    3.5702   -0.2779 C   0  0  0  0  0  0  0  0  0  0  0  0
   -3.8673    4.2953   -0.5001 C   0  0  0  0  0  0  0  0  0  0  0  0
   -4.6864    3.9652   -1.5620 C   0  0  0  0  0  0  0  0  0  0  0  0
   -4.3099    2.9075   -2.3584 C   0  0  0  0  0  0  0  0  0  0  0  0
   -3.1704    2.2104   -2.1092 N   0  0  0  0  0  0  0  0  0  0  0  0
   -0.2421   -1.4319    0.9703 C   0  0  0  0  0  0  0  0  0  0  0  0
   -1.4271   -2.0235    1.3145 C   0  0  0  0  0  0  0  0  0  0  0  0
   -2.7265   -1.6092    0.8343 C   0  0  0  0  0  0  0  0  0  0  0  0
   -3.7145   -1.2651    1.7226 C   0  0  0  0  0  0  0  0  0  0  0  0
   -5.0079   -0.9752    1.3032 C   0  0  0  0  0  0  0  0  0  0  0  0
   -5.2577   -1.0483   -0.0524 C   0  0  0  0  0  0  0  0  0  0  0  0
   -4.2959   -1.3895   -0.9793 C   0  0  0  0  0  0  0  0  0  0  0  0
   -3.0307   -1.6670   -0.5085 C   0  0  0  0  0  0  0  0  0  0  0  0
   -1.3888   -3.2337    2.0537 C   0  0  0  0  0  0  0  0  0  0  0  0
   -0.2166   -3.8091    2.4140 C   0  0  0  0  0  0  0  0  0  0  0  0
    0.9622   -3.2057    2.0511 C   0  0  0  0  0  0  0  0  0  0  0  0
    0.9823   -2.0233    1.3298 C   0  0  0  0  0  0  0  0  0  0  0  0
    2.1212   -1.4582    0.9680 N   0  0  0  0  0  0  0  0  0  0  0  0
    4.5934   -0.3456    0.2438 C   0  0  0  0  0  0  0  0  0  0  0  0
    8.4489   -1.1423   -1.5930 H   0  0  0  0  0  0  0  0  0  0  0  0
    6.9826   -2.0179   -1.4288 H   0  0  0  0  0  0  0  0  0  0  0  0
    6.7039    1.8676   -1.1639 H   0  0  0  0  0  0  0  0  0  0  0  0
    2.4856    1.8890   -1.1276 H   0  0  0  0  0  0  0  0  0  0  0  0
   -2.2794    0.5096    0.4145 H   0  0  0  0  0  0  0  0  0  0  0  0
   -0.8225    1.2944   -1.8421 H   0  0  0  0  0  0  0  0  0  0  0  0
   -0.3370    2.3079   -0.4198 H   0  0  0  0  0  0  0  0  0  0  0  0
   -2.0757    3.8173    0.5479 H   0  0  0  0  0  0  0  0  0  0  0  0
   -4.1614    5.1273    0.1280 H   0  0  0  0  0  0  0  0  0  0  0  0
   -5.6059    4.5171   -1.7743 H   0  0  0  0  0  0  0  0  0  0  0  0
   -4.9610    2.6584   -3.1883 H   0  0  0  0  0  0  0  0  0  0  0  0
   -3.5290   -1.2036    2.8002 H   0  0  0  0  0  0  0  0  0  0  0  0
   -5.7844   -0.7026    2.0227 H   0  0  0  0  0  0  0  0  0  0  0  0
   -6.2573   -0.8300   -0.4336 H   0  0  0  0  0  0  0  0  0  0  0  0
   -4.5567   -1.4291   -2.0316 H   0  0  0  0  0  0  0  0  0  0  0  0
   -2.2401   -1.9390   -1.1865 H   0  0  0  0  0  0  0  0  0  0  0  0
   -2.3580   -3.6642    2.3101 H   0  0  0  0  0  0  0  0  0  0  0  0
   -0.1870   -4.7331    2.9810 H   0  0  0  0  0  0  0  0  0  0  0  0
    1.9172   -3.6378    2.3190 H   0  0  0  0  0  0  0  0  0  0  0  0
    4.5855   -1.2614    0.8161 H   0  0  0  0  0  0  0  0  0  0  0  0
  1  2  1  0
  2  3  2  0
  2  4  2  0
  2  5  1  0
  5  6  2  0
  6  7  1  0
  7  8  2  0
  8  9  1  0
  9 10  1  0
 10 11  2  0
 11 12  1  0
 12 13  1  0
 13 14  1  0
 14 15  1  0
 15 16  2  0
 16 17  1  0
 17 18  2  0
 18 19  1  0
 19 20  2  0
 12 21  2  0
 21 22  1  0
 22 23  1  0
 23 24  2  0
 24 25  1  0
 25 26  2  0
 26 27  1  0
 27 28  2  0
 22 29  2  0
 29 30  1  0
 30 31  2  0
 31 32  1  0
 32 33  2  0
  9 34  2  0
 34  5  1  0
 33 10  1  0
 20 15  1  0
 32 21  1  0
 28 23  1  0
  1 35  1  0
  1 36  1  0
  6 37  1  0
  8 38  1  0
 13 39  1  0
 14 40  1  0
 14 41  1  0
 16 42  1  0
 17 43  1  0
 18 44  1  0
 19 45  1  0
 24 46  1  0
 25 47  1  0
 26 48  1  0
 27 49  1  0
 28 50  1  0
 29 51  1  0
 30 52  1  0
 31 53  1  0
 34 54  1  0
M  END
$$$$
