@<TRIPOS>MOLECULE
*****
 54 58 0 0 0
SMALL
GASTEIGER

@<TRIPOS>ATOM
      1 N           7.7873   -1.6081   -0.9113 N.3     1  UNL1       -0.2035
      2 S           7.2778   -0.4862    0.3001 S.O2    1  UNL1        0.0574
      3 O           8.3355    0.5559    0.4497 O.2     1  UNL1       -0.1532
      4 O           7.1259   -1.2426    1.5917 O.2     1  UNL1       -0.1532
      5 C           5.7710    0.2745   -0.1575 C.ar    1  UNL1        0.1237
      6 C           5.7422    1.4397   -0.8852 C.ar    1  UNL1        0.0539
      7 N           4.5806    2.0183   -1.2331 N.ar    1  UNL1       -0.2606
      8 C           3.4343    1.4275   -0.8504 C.ar    1  UNL1        0.0384
      9 C           3.4195    0.2587   -0.1200 C.ar    1  UNL1        0.0391
     10 C           2.1213   -0.3247    0.2598 C.ar    1  UNL1        0.1638
     11 N           0.9809    0.2700   -0.0983 N.ar    1  UNL1       -0.2121
     12 C          -0.2551   -0.2630    0.2497 C.ar    1  UNL1        0.1312
     13 N          -1.3791    0.5562    0.0128 N.pl3   1  UNL1       -0.3229
     14 C          -1.1459    1.7188   -0.8734 C.3     1  UNL1        0.0528
     15 C          -2.3571    2.5137   -1.0809 C.ar    1  UNL1        0.0583
     16 C          -2.7245    3.5702   -0.2779 C.ar    1  UNL1       -0.0388
     17 C          -3.8673    4.2953   -0.5001 C.ar    1  UNL1       -0.0586
     18 C          -4.6864    3.9652   -1.5620 C.ar    1  UNL1       -0.0436
     19 C          -4.3099    2.9075   -2.3584 C.ar    1  UNL1        0.0279
     20 N          -3.1704    2.2104   -2.1092 N.ar    1  UNL1       -0.2583
     21 C          -0.2421   -1.4319    0.9703 C.ar    1  UNL1        0.0478
     22 C          -1.4271   -2.0235    1.3145 C.ar    1  UNL1       -0.0054
     23 C          -2.7265   -1.6092    0.8343 C.ar    1  UNL1       -0.0171
     24 C          -3.7145   -1.2651    1.7226 C.ar    1  UNL1       -0.0540
     25 C          -5.0079   -0.9752    1.3032 C.ar    1  UNL1       -0.0612
     26 C          -5.2577   -1.0483   -0.0524 C.ar    1  UNL1       -0.0617
     27 C          -4.2959   -1.3895   -0.9793 C.ar    1  UNL1       -0.0612
     28 C          -3.0307   -1.6670   -0.5085 C.ar    1  UNL1       -0.0540
     29 C          -1.3888   -3.2337    2.0537 C.ar    1  UNL1       -0.0532
     30 C          -0.2166   -3.8091    2.4140 C.ar    1  UNL1       -0.0591
     31 C           0.9622   -3.2057    2.0511 C.ar    1  UNL1       -0.0355
     32 C           0.9823   -2.0233    1.3298 C.ar    1  UNL1        0.0772
     33 N           2.1212   -1.4582    0.9680 N.ar    1  UNL1       -0.2271
     34 C           4.5934   -0.3456    0.2438 C.ar    1  UNL1       -0.0217
     35 H           8.4489   -1.1423   -1.5930 H       1  UNL1        0.1442
     36 H           6.9826   -2.0179   -1.4288 H       1  UNL1        0.1442
     37 H           6.7039    1.8676   -1.1639 H       1  UNL1        0.0849
     38 H           2.4856    1.8890   -1.1276 H       1  UNL1        0.0837
     39 H          -2.2794    0.5096    0.4145 H       1  UNL1        0.1479
     40 H          -0.8225    1.2944   -1.8421 H       1  UNL1        0.0526
     41 H          -0.3370    2.3079   -0.4198 H       1  UNL1        0.0526
     42 H          -2.0757    3.8173    0.5479 H       1  UNL1        0.0636
     43 H          -4.1614    5.1273    0.1280 H       1  UNL1        0.0619
     44 H          -5.6059    4.5171   -1.7743 H       1  UNL1        0.0633
     45 H          -4.9610    2.6584   -3.1883 H       1  UNL1        0.0829
     46 H          -3.5290   -1.2036    2.8002 H       1  UNL1        0.0624
     47 H          -5.7844   -0.7026    2.0227 H       1  UNL1        0.0618
     48 H          -6.2573   -0.8300   -0.4336 H       1  UNL1        0.0618
     49 H          -4.5567   -1.4291   -2.0316 H       1  UNL1        0.0618
     50 H          -2.2401   -1.9390   -1.1865 H       1  UNL1        0.0624
     51 H          -2.3580   -3.6642    2.3101 H       1  UNL1        0.0624
     52 H          -0.1870   -4.7331    2.9810 H       1  UNL1        0.0618
     53 H           1.9172   -3.6378    2.3190 H       1  UNL1        0.0639
     54 H           4.5855   -1.2614    0.8161 H       1  UNL1        0.0645
@<TRIPOS>BOND
     1     1     2    1
     2     2     3    2
     3     2     4    2
     4     2     5    1
     5     5     6   ar
     6     6     7   ar
     7     7     8   ar
     8     8     9   ar
     9     9    10    1
    10    10    11   ar
    11    11    12   ar
    12    12    13    1
    13    13    14    1
    14    14    15    1
    15    15    16   ar
    16    16    17   ar
    17    17    18   ar
    18    18    19   ar
    19    19    20   ar
    20    12    21   ar
    21    21    22   ar
    22    22    23    1
    23    23    24   ar
    24    24    25   ar
    25    25    26   ar
    26    26    27   ar
    27    27    28   ar
    28    22    29   ar
    29    29    30   ar
    30    30    31   ar
    31    31    32   ar
    32    32    33   ar
    33     9    34   ar
    34    34     5   ar
    35    33    10   ar
    36    20    15   ar
    37    32    21   ar
    38    28    23   ar
    39     1    35    1
    40     1    36    1
    41     6    37    1
    42     8    38    1
    43    13    39    1
    44    14    40    1
    45    14    41    1
    46    16    42    1
    47    17    43    1
    48    18    44    1
    49    19    45    1
    50    24    46    1
    51    25    47    1
    52    26    48    1
    53    27    49    1
    54    28    50    1
    55    29    51    1
    56    30    52    1
    57    31    53    1
    58    34    54    1
