@<TRIPOS>MOLECULE
*****
 52 56 0 0 0
SMALL
GASTEIGER

@<TRIPOS>ATOM
      1 C          -3.6264   -2.0680   -3.2741 C.3     1  UNL1       -0.0209
      2 C          -3.3682   -0.9841   -2.2918 C.ar    1  UNL1        0.0569
      3 C          -4.3165   -0.7004   -1.3071 C.ar    1  UNL1        0.0329
      4 N          -4.1294    0.2758   -0.3925 N.ar    1  UNL1       -0.2948
      5 C          -4.8578    0.7387    0.6292 C.ar    1  UNL1        0.0762
      6 C          -6.1499    0.3095    1.1002 C.ar    1  UNL1        0.0375
      7 C          -6.9877   -0.6534    0.6667 C.ar    1  UNL1        0.0583
      8 N          -8.1071   -0.6548    1.4792 N.ar    1  UNL1       -0.1817
      9 N          -7.9964    0.2687    2.3987 N.ar    1  UNL1       -0.2841
     10 C          -6.8241    0.8749    2.2031 C.ar    1  UNL1        0.0315
     11 C          -4.0957    1.7705    1.1922 C.ar    1  UNL1        0.0545
     12 N          -2.9773    1.8650    0.4910 N.ar    1  UNL1       -0.2323
     13 C          -2.9530    0.9645   -0.4957 C.ar    1  UNL1        0.1788
     14 C          -1.9935    0.7156   -1.4507 C.ar    1  UNL1        0.1666
     15 N          -0.7920    1.4700   -1.4972 N.pl3   1  UNL1       -0.2943
     16 C           0.3260    1.0533   -0.6902 C.ar    1  UNL1        0.0682
     17 C           0.8437    1.8842    0.2612 C.ar    1  UNL1       -0.0370
     18 C           1.9197    1.4507    1.0338 C.ar    1  UNL1       -0.0477
     19 C           2.4863    0.2046    0.8730 C.ar    1  UNL1        0.0397
     20 C           3.5846   -0.2342    1.6723 C.2     1  UNL1        0.2468
     21 O           3.4081   -0.6725    2.8285 O.2     1  UNL1       -0.2700
     22 N           4.9165   -0.1785    1.1575 N.am    1  UNL1       -0.2951
     23 C           5.1274    0.3247   -0.1671 C.3     1  UNL1        0.0275
     24 C           6.1206   -0.5613   -0.8924 C.3     1  UNL1        0.0118
     25 N           7.3312   -0.7286   -0.1732 N.3     1  UNL1       -0.3130
     26 C           7.2674   -0.9099    1.2251 C.3     1  UNL1        0.0118
     27 C           6.0230   -0.6157    1.9502 C.3     1  UNL1        0.0275
     28 C           1.9510   -0.6210   -0.0929 C.ar    1  UNL1       -0.0125
     29 C           0.8832   -0.1908   -0.8597 C.ar    1  UNL1        0.1452
     30 F           0.3355   -0.9939   -1.8243 F       1  UNL1       -0.2035
     31 N          -2.2423   -0.2681   -2.3294 N.ar    1  UNL1       -0.2320
     32 H          -3.1854   -3.0025   -2.8511 H       1  UNL1        0.0293
     33 H          -3.2167   -1.8409   -4.2720 H       1  UNL1        0.0293
     34 H          -4.7168   -2.2145   -3.3574 H       1  UNL1        0.0293
     35 H          -5.1991   -1.2800   -1.2972 H       1  UNL1        0.0831
     36 H          -6.9258   -1.3526   -0.1368 H       1  UNL1        0.0854
     37 H          -8.7156    0.4813    3.1512 H       1  UNL1        0.1882
     38 H          -6.4259    1.6827    2.7906 H       1  UNL1        0.0830
     39 H          -4.4425    2.3322    2.0461 H       1  UNL1        0.0852
     40 H          -0.7067    2.3025   -2.0932 H       1  UNL1        0.1537
     41 H           0.4041    2.8701    0.3968 H       1  UNL1        0.0637
     42 H           2.3307    2.1141    1.7909 H       1  UNL1        0.0626
     43 H           5.4445    1.3729   -0.1653 H       1  UNL1        0.0477
     44 H           4.1696    0.2280   -0.7490 H       1  UNL1        0.0477
     45 H           6.3631   -0.0255   -1.8507 H       1  UNL1        0.0439
     46 H           5.6408   -1.5106   -1.2110 H       1  UNL1        0.0439
     47 H           8.1135   -0.1334   -0.4931 H       1  UNL1        0.1220
     48 H           7.5344   -1.9941    1.4695 H       1  UNL1        0.0439
     49 H           8.1168   -0.3430    1.7355 H       1  UNL1        0.0439
     50 H           5.7157   -1.4481    2.6595 H       1  UNL1        0.0477
     51 H           6.2204    0.2346    2.6789 H       1  UNL1        0.0477
     52 H           2.3738   -1.6089   -0.2457 H       1  UNL1        0.0654
@<TRIPOS>BOND
     1     1     2    1
     2     2     3   ar
     3     3     4   ar
     4     4     5   ar
     5     5     6    1
     6     6     7   ar
     7     7     8   ar
     8     8     9   ar
     9     9    10   ar
    10     5    11   ar
    11    11    12   ar
    12    12    13   ar
    13    13    14   ar
    14    14    15    1
    15    15    16    1
    16    16    17   ar
    17    17    18   ar
    18    18    19   ar
    19    19    20    1
    20    20    21    2
    21    20    22   am
    22    22    23    1
    23    23    24    1
    24    24    25    1
    25    25    26    1
    26    26    27    1
    27    19    28   ar
    28    28    29   ar
    29    29    30    1
    30    14    31   ar
    31    31     2   ar
    32    13     4   ar
    33    29    16   ar
    34    10     6   ar
    35    27    22    1
    36     1    32    1
    37     1    33    1
    38     1    34    1
    39     3    35    1
    40     7    36    1
    41     9    37    1
    42    10    38    1
    43    11    39    1
    44    15    40    1
    45    17    41    1
    46    18    42    1
    47    23    43    1
    48    23    44    1
    49    24    45    1
    50    24    46    1
    51    25    47    1
    52    26    48    1
    53    26    49    1
    54    27    50    1
    55    27    51    1
    56    28    52    1
