@<TRIPOS>MOLECULE
*****
 73 78 0 0 0
SMALL
GASTEIGER

@<TRIPOS>ATOM
      1 C          -6.4999   -0.0020    1.9189 C.3     1  UNL1       -0.0380
      2 C          -6.7032   -0.6507    0.5972 C.ar    1  UNL1       -0.0279
      3 C          -7.4800   -1.8214    0.5830 C.ar    1  UNL1       -0.0557
      4 C          -7.7427   -2.4286   -0.6093 C.ar    1  UNL1       -0.0433
      5 C          -7.2453   -1.8887   -1.7862 C.ar    1  UNL1        0.0279
      6 N          -6.5130   -0.7769   -1.7199 N.ar    1  UNL1       -0.2583
      7 C          -6.2066   -0.1132   -0.5637 C.ar    1  UNL1        0.0581
      8 C          -5.3249    1.0893   -0.6291 C.3     1  UNL1        0.0415
      9 N          -3.9352    0.8525   -0.4956 N.3     1  UNL1       -0.2965
     10 C          -3.5424    0.1451    0.6392 C.3     1  UNL1        0.0017
     11 C          -2.0516   -0.1378    0.7091 C.3     1  UNL1       -0.0095
     12 C          -1.2412    0.4904   -0.3620 C.3     1  UNL1        0.1240
     13 C          -1.8696    0.3556   -1.7125 C.3     1  UNL1       -0.0095
     14 C          -3.3607    0.4597   -1.7352 C.3     1  UNL1        0.0017
     15 C           0.0524   -0.2793   -0.4317 C.2     1  UNL1        0.2516
     16 O           0.0916   -1.4836   -0.7958 O.2     1  UNL1       -0.2724
     17 N           1.1412    0.5318   -0.0428 N.am    1  UNL1       -0.1920
     18 C           2.4715    0.0464    0.0548 C.ar    1  UNL1        0.0455
     19 C           3.3088    0.1293   -1.0638 C.ar    1  UNL1       -0.0395
     20 C           4.6024   -0.3334   -1.0444 C.ar    1  UNL1       -0.0565
     21 C           5.1061   -0.8999    0.1061 C.ar    1  UNL1       -0.0442
     22 C           6.5007   -1.4069    0.1291 C.3     1  UNL1       -0.0158
     23 C           7.3566   -0.8123    1.1983 C.3     1  UNL1       -0.0462
     24 C           8.3438   -1.9003    1.6406 C.3     1  UNL1       -0.0525
     25 C           8.9356   -2.4669    0.3480 C.3     1  UNL1       -0.0530
     26 C           7.8741   -3.3757   -0.2580 C.3     1  UNL1       -0.0525
     27 C           6.4955   -2.9317    0.1843 C.3     1  UNL1       -0.0462
     28 C           4.2951   -0.9957    1.2374 C.ar    1  UNL1       -0.0565
     29 C           3.0124   -0.5227    1.1765 C.ar    1  UNL1       -0.0395
     30 C           0.6062    1.8053    0.1847 C.2     1  UNL1        0.3219
     31 O           1.3167    2.8018    0.5570 O.2     1  UNL1       -0.2512
     32 N          -0.8103    1.8328   -0.0516 N.am    1  UNL1       -0.2240
     33 C          -1.5702    3.0261    0.0260 C.ar    1  UNL1        0.1364
     34 C          -2.1582    3.4722    1.1857 C.ar    1  UNL1        0.0432
     35 C          -2.8973    4.6599    1.1862 C.ar    1  UNL1        0.2531
     36 O          -3.4478    5.0935    2.2346 O.2     1  UNL1       -0.2678
     37 N          -3.0370    5.3724    0.0529 N.ar    1  UNL1       -0.3133
     38 C          -2.4520    4.9126   -1.0624 C.ar    1  UNL1        0.0981
     39 N          -1.7294    3.7602   -1.0834 N.ar    1  UNL1       -0.2220
     40 H          -7.4124   -0.2396    2.5545 H       1  UNL1        0.0278
     41 H          -6.5151    1.1040    1.8599 H       1  UNL1        0.0278
     42 H          -5.6628   -0.4212    2.5016 H       1  UNL1        0.0278
     43 H          -7.8585   -2.2225    1.5250 H       1  UNL1        0.0621
     44 H          -8.3432   -3.3450   -0.6849 H       1  UNL1        0.0633
     45 H          -7.4779   -2.4024   -2.7146 H       1  UNL1        0.0829
     46 H          -5.5638    1.6679   -1.5757 H       1  UNL1        0.0491
     47 H          -5.6973    1.7876    0.1711 H       1  UNL1        0.0491
     48 H          -4.0973   -0.8382    0.7453 H       1  UNL1        0.0427
     49 H          -3.7696    0.7155    1.5593 H       1  UNL1        0.0427
     50 H          -1.9224   -1.2376    0.6595 H       1  UNL1        0.0303
     51 H          -1.6031    0.1590    1.6917 H       1  UNL1        0.0303
     52 H          -1.5422   -0.6147   -2.1692 H       1  UNL1        0.0303
     53 H          -1.3916    1.1304   -2.3840 H       1  UNL1        0.0303
     54 H          -3.6356    1.2294   -2.5067 H       1  UNL1        0.0427
     55 H          -3.7783   -0.4902   -2.1394 H       1  UNL1        0.0427
     56 H           2.8847    0.5778   -1.9498 H       1  UNL1        0.0636
     57 H           5.2248   -0.2521   -1.9345 H       1  UNL1        0.0621
     58 H           6.9699   -1.1700   -0.8574 H       1  UNL1        0.0349
     59 H           6.7894   -0.4135    2.0562 H       1  UNL1        0.0271
     60 H           8.0005    0.0324    0.8307 H       1  UNL1        0.0271
     61 H           7.8226   -2.7154    2.2105 H       1  UNL1        0.0265
     62 H           9.0926   -1.4687    2.3037 H       1  UNL1        0.0265
     63 H           9.0927   -1.5790   -0.3177 H       1  UNL1        0.0265
     64 H           9.8864   -2.9852    0.5133 H       1  UNL1        0.0265
     65 H           7.9037   -3.2414   -1.3734 H       1  UNL1        0.0265
     66 H           8.0567   -4.4187    0.0193 H       1  UNL1        0.0265
     67 H           5.7708   -3.2665   -0.5970 H       1  UNL1        0.0271
     68 H           6.1798   -3.3345    1.1431 H       1  UNL1        0.0271
     69 H           4.7394   -1.4464    2.1058 H       1  UNL1        0.0621
     70 H           2.4004   -0.6059    2.0639 H       1  UNL1        0.0636
     71 H          -2.0768    2.9443    2.1100 H       1  UNL1        0.0706
     72 H          -3.5992    6.2749    0.0555 H       1  UNL1        0.1698
     73 H          -2.5596    5.4762   -1.9688 H       1  UNL1        0.1028
@<TRIPOS>BOND
     1     1     2    1
     2     2     3   ar
     3     3     4   ar
     4     4     5   ar
     5     5     6   ar
     6     6     7   ar
     7     7     8    1
     8     8     9    1
     9     9    10    1
    10    10    11    1
    11    11    12    1
    12    12    13    1
    13    13    14    1
    14    12    15    1
    15    15    16    2
    16    15    17   am
    17    17    18    1
    18    18    19   ar
    19    19    20   ar
    20    20    21   ar
    21    21    22    1
    22    22    23    1
    23    23    24    1
    24    24    25    1
    25    25    26    1
    26    26    27    1
    27    21    28   ar
    28    28    29   ar
    29    17    30   am
    30    30    31    2
    31    30    32   am
    32    32    33    1
    33    33    34   ar
    34    34    35   ar
    35    35    36    2
    36    35    37   ar
    37    37    38   ar
    38    38    39   ar
    39     7     2   ar
    40    14     9    1
    41    29    18   ar
    42    39    33   ar
    43    32    12    1
    44    27    22    1
    45     1    40    1
    46     1    41    1
    47     1    42    1
    48     3    43    1
    49     4    44    1
    50     5    45    1
    51     8    46    1
    52     8    47    1
    53    10    48    1
    54    10    49    1
    55    11    50    1
    56    11    51    1
    57    13    52    1
    58    13    53    1
    59    14    54    1
    60    14    55    1
    61    19    56    1
    62    20    57    1
    63    22    58    1
    64    23    59    1
    65    23    60    1
    66    24    61    1
    67    24    62    1
    68    25    63    1
    69    25    64    1
    70    26    65    1
    71    26    66    1
    72    27    67    1
    73    27    68    1
    74    28    69    1
    75    29    70    1
    76    34    71    1
    77    37    72    1
    78    38    73    1
