
     RDKit          3D

 73 78  0  0  0  0  0  0  0  0999 V2000
   -6.4999   -0.0020    1.9189 C   0  0  0  0  0  0  0  0  0  0  0  0
   -6.7032   -0.6507    0.5972 C   0  0  0  0  0  0  0  0  0  0  0  0
   -7.4800   -1.8214    0.5830 C   0  0  0  0  0  0  0  0  0  0  0  0
   -7.7427   -2.4286   -0.6093 C   0  0  0  0  0  0  0  0  0  0  0  0
   -7.2453   -1.8887   -1.7862 C   0  0  0  0  0  0  0  0  0  0  0  0
   -6.5130   -0.7769   -1.7199 N   0  0  0  0  0  0  0  0  0  0  0  0
   -6.2066   -0.1132   -0.5637 C   0  0  0  0  0  0  0  0  0  0  0  0
   -5.3249    1.0893   -0.6291 C   0  0  0  0  0  0  0  0  0  0  0  0
   -3.9352    0.8525   -0.4956 N   0  0  0  0  0  0  0  0  0  0  0  0
   -3.5424    0.1451    0.6392 C   0  0  0  0  0  0  0  0  0  0  0  0
   -2.0516   -0.1378    0.7091 C   0  0  0  0  0  0  0  0  0  0  0  0
   -1.2412    0.4904   -0.3620 C   0  0  0  0  0  0  0  0  0  0  0  0
   -1.8696    0.3556   -1.7125 C   0  0  0  0  0  0  0  0  0  0  0  0
   -3.3607    0.4597   -1.7352 C   0  0  0  0  0  0  0  0  0  0  0  0
    0.0524   -0.2793   -0.4317 C   0  0  0  0  0  0  0  0  0  0  0  0
    0.0916   -1.4836   -0.7958 O   0  0  0  0  0  0  0  0  0  0  0  0
    1.1412    0.5318   -0.0428 N   0  0  0  0  0  0  0  0  0  0  0  0
    2.4715    0.0464    0.0548 C   0  0  0  0  0  0  0  0  0  0  0  0
    3.3088    0.1293   -1.0638 C   0  0  0  0  0  0  0  0  0  0  0  0
    4.6024   -0.3334   -1.0444 C   0  0  0  0  0  0  0  0  0  0  0  0
    5.1061   -0.8999    0.1061 C   0  0  0  0  0  0  0  0  0  0  0  0
    6.5007   -1.4069    0.1291 C   0  0  0  0  0  0  0  0  0  0  0  0
    7.3566   -0.8123    1.1983 C   0  0  0  0  0  0  0  0  0  0  0  0
    8.3438   -1.9003    1.6406 C   0  0  0  0  0  0  0  0  0  0  0  0
    8.9356   -2.4669    0.3480 C   0  0  0  0  0  0  0  0  0  0  0  0
    7.8741   -3.3757   -0.2580 C   0  0  0  0  0  0  0  0  0  0  0  0
    6.4955   -2.9317    0.1843 C   0  0  0  0  0  0  0  0  0  0  0  0
    4.2951   -0.9957    1.2374 C   0  0  0  0  0  0  0  0  0  0  0  0
    3.0124   -0.5227    1.1765 C   0  0  0  0  0  0  0  0  0  0  0  0
    0.6062    1.8053    0.1847 C   0  0  0  0  0  0  0  0  0  0  0  0
    1.3167    2.8018    0.5570 O   0  0  0  0  0  0  0  0  0  0  0  0
   -0.8103    1.8328   -0.0516 N   0  0  0  0  0  0  0  0  0  0  0  0
   -1.5702    3.0261    0.0260 C   0  0  0  0  0  0  0  0  0  0  0  0
   -2.1582    3.4722    1.1857 C   0  0  0  0  0  0  0  0  0  0  0  0
   -2.8973    4.6599    1.1862 C   0  0  0  0  0  0  0  0  0  0  0  0
   -3.4478    5.0935    2.2346 O   0  0  0  0  0  0  0  0  0  0  0  0
   -3.0370    5.3724    0.0529 N   0  0  0  0  0  0  0  0  0  0  0  0
   -2.4520    4.9126   -1.0624 C   0  0  0  0  0  0  0  0  0  0  0  0
   -1.7294    3.7602   -1.0834 N   0  0  0  0  0  0  0  0  0  0  0  0
   -7.4124   -0.2396    2.5545 H   0  0  0  0  0  0  0  0  0  0  0  0
   -6.5151    1.1040    1.8599 H   0  0  0  0  0  0  0  0  0  0  0  0
   -5.6628   -0.4212    2.5016 H   0  0  0  0  0  0  0  0  0  0  0  0
   -7.8585   -2.2225    1.5250 H   0  0  0  0  0  0  0  0  0  0  0  0
   -8.3432   -3.3450   -0.6849 H   0  0  0  0  0  0  0  0  0  0  0  0
   -7.4779   -2.4024   -2.7146 H   0  0  0  0  0  0  0  0  0  0  0  0
   -5.5638    1.6679   -1.5757 H   0  0  0  0  0  0  0  0  0  0  0  0
   -5.6973    1.7876    0.1711 H   0  0  0  0  0  0  0  0  0  0  0  0
   -4.0973   -0.8382    0.7453 H   0  0  0  0  0  0  0  0  0  0  0  0
   -3.7696    0.7155    1.5593 H   0  0  0  0  0  0  0  0  0  0  0  0
   -1.9224   -1.2376    0.6595 H   0  0  0  0  0  0  0  0  0  0  0  0
   -1.6031    0.1590    1.6917 H   0  0  0  0  0  0  0  0  0  0  0  0
   -1.5422   -0.6147   -2.1692 H   0  0  0  0  0  0  0  0  0  0  0  0
   -1.3916    1.1304   -2.3840 H   0  0  0  0  0  0  0  0  0  0  0  0
   -3.6356    1.2294   -2.5067 H   0  0  0  0  0  0  0  0  0  0  0  0
   -3.7783   -0.4902   -2.1394 H   0  0  0  0  0  0  0  0  0  0  0  0
    2.8847    0.5778   -1.9498 H   0  0  0  0  0  0  0  0  0  0  0  0
    5.2248   -0.2521   -1.9345 H   0  0  0  0  0  0  0  0  0  0  0  0
    6.9699   -1.1700   -0.8574 H   0  0  0  0  0  0  0  0  0  0  0  0
    6.7894   -0.4135    2.0562 H   0  0  0  0  0  0  0  0  0  0  0  0
    8.0005    0.0324    0.8307 H   0  0  0  0  0  0  0  0  0  0  0  0
    7.8226   -2.7154    2.2105 H   0  0  0  0  0  0  0  0  0  0  0  0
    9.0926   -1.4687    2.3037 H   0  0  0  0  0  0  0  0  0  0  0  0
    9.0927   -1.5790   -0.3177 H   0  0  0  0  0  0  0  0  0  0  0  0
    9.8864   -2.9852    0.5133 H   0  0  0  0  0  0  0  0  0  0  0  0
    7.9037   -3.2414   -1.3734 H   0  0  0  0  0  0  0  0  0  0  0  0
    8.0567   -4.4187    0.0193 H   0  0  0  0  0  0  0  0  0  0  0  0
    5.7708   -3.2665   -0.5970 H   0  0  0  0  0  0  0  0  0  0  0  0
    6.1798   -3.3345    1.1431 H   0  0  0  0  0  0  0  0  0  0  0  0
    4.7394   -1.4464    2.1058 H   0  0  0  0  0  0  0  0  0  0  0  0
    2.4004   -0.6059    2.0639 H   0  0  0  0  0  0  0  0  0  0  0  0
   -2.0768    2.9443    2.1100 H   0  0  0  0  0  0  0  0  0  0  0  0
   -3.5992    6.2749    0.0555 H   0  0  0  0  0  0  0  0  0  0  0  0
   -2.5596    5.4762   -1.9688 H   0  0  0  0  0  0  0  0  0  0  0  0
  1  2  1  0
  2  3  2  0
  3  4  1  0
  4  5  2  0
  5  6  1  0
  6  7  2  0
  7  8  1  0
  8  9  1  0
  9 10  1  0
 10 11  1  0
 11 12  1  0
 12 13  1  0
 13 14  1  0
 12 15  1  0
 15 16  2  0
 15 17  1  0
 17 18  1  0
 18 19  2  0
 19 20  1  0
 20 21  2  0
 21 22  1  0
 22 23  1  0
 23 24  1  0
 24 25  1  0
 25 26  1  0
 26 27  1  0
 21 28  1  0
 28 29  2  0
 17 30  1  0
 30 31  2  0
 30 32  1  0
 32 33  1  0
 33 34  2  0
 34 35  1  0
 35 36  2  0
 35 37  1  0
 37 38  1  0
 38 39  2  0
  7  2  1  0
 14  9  1  0
 29 18  1  0
 39 33  1  0
 32 12  1  0
 27 22  1  0
  1 40  1  0
  1 41  1  0
  1 42  1  0
  3 43  1  0
  4 44  1  0
  5 45  1  0
  8 46  1  0
  8 47  1  0
 10 48  1  0
 10 49  1  0
 11 50  1  0
 11 51  1  0
 13 52  1  0
 13 53  1  0
 14 54  1  0
 14 55  1  0
 19 56  1  0
 20 57  1  0
 22 58  1  0
 23 59  1  0
 23 60  1  0
 24 61  1  0
 24 62  1  0
 25 63  1  0
 25 64  1  0
 26 65  1  0
 26 66  1  0
 27 67  1  0
 27 68  1  0
 28 69  1  0
 29 70  1  0
 34 71  1  0
 37 72  1  0
 38 73  1  0
M  END
$$$$
