@<TRIPOS>MOLECULE
*****
 53 55 0 0 0
SMALL
GASTEIGER

@<TRIPOS>ATOM
      1 O           8.2021   -1.4959    1.7583 O.2     1  UNL1       -0.2687
      2 C           7.4139   -0.5032    1.8564 C.2     1  UNL1        0.2593
      3 C           6.1912   -0.5248    1.0770 C.2     1  UNL1        0.0027
      4 C           5.3274    0.4686    1.1239 C.2     1  UNL1       -0.0496
      5 C           4.1044    0.4755    0.3591 C.ar    1  UNL1       -0.0249
      6 C           3.2470    1.5673    0.4478 C.ar    1  UNL1       -0.0543
      7 C           2.0882    1.5695   -0.2889 C.ar    1  UNL1       -0.0568
      8 C           1.7129    0.5445   -1.1231 C.ar    1  UNL1       -0.0333
      9 C           0.5341    0.5567   -1.9476 C.3     1  UNL1        0.0241
     10 N          -0.7369    0.1798   -1.4830 N.3     1  UNL1       -0.2957
     11 C          -0.9201   -0.9730   -0.7123 C.3     1  UNL1        0.0224
     12 C          -0.3833   -0.8376    0.6698 C.3     1  UNL1        0.0569
     13 O          -0.6166   -2.0438    1.3784 O.3     1  UNL1       -0.3937
     14 C          -1.7510    0.3943   -2.5025 C.3     1  UNL1        0.0033
     15 C          -3.0873   -0.0905   -2.1514 C.3     1  UNL1       -0.0129
     16 C          -3.7286    0.4991   -0.9512 C.ar    1  UNL1       -0.0212
     17 C          -3.3881    1.5880   -0.1880 C.ar    1  UNL1        0.0059
     18 N          -4.3014    1.7055    0.7864 N.ar    1  UNL1       -0.3604
     19 C          -5.2159    0.7413    0.6872 C.ar    1  UNL1        0.0467
     20 C          -6.3615    0.3780    1.4072 C.ar    1  UNL1       -0.0378
     21 C          -7.1075   -0.7039    1.0377 C.ar    1  UNL1       -0.0598
     22 C          -6.7883   -1.4969   -0.0495 C.ar    1  UNL1       -0.0611
     23 C          -5.6605   -1.1338   -0.7537 C.ar    1  UNL1       -0.0523
     24 C          -4.8882   -0.0376   -0.3952 C.ar    1  UNL1        0.0029
     25 C           2.5887   -0.5471   -1.1982 C.ar    1  UNL1       -0.0568
     26 C           3.7541   -0.5662   -0.4674 C.ar    1  UNL1       -0.0543
     27 N           7.7808    0.5607    2.7211 N.am    1  UNL1       -0.1940
     28 O           8.9570    0.4732    3.4094 O.3     1  UNL1       -0.2949
     29 H           6.0324   -1.3935    0.4591 H       1  UNL1        0.0670
     30 H           5.5078    1.3507    1.7612 H       1  UNL1        0.0625
     31 H           3.5033    2.4187    1.1079 H       1  UNL1        0.0624
     32 H           1.4162    2.4454   -0.2059 H       1  UNL1        0.0621
     33 H           0.4039    1.6174   -2.3657 H       1  UNL1        0.0476
     34 H           0.8192    0.0011   -2.9104 H       1  UNL1        0.0476
     35 H          -0.5216   -1.9137   -1.1606 H       1  UNL1        0.0449
     36 H          -2.0241   -1.1623   -0.5866 H       1  UNL1        0.0449
     37 H          -0.9871   -0.0758    1.2339 H       1  UNL1        0.0570
     38 H           0.6706   -0.6445    0.7692 H       1  UNL1        0.0570
     39 H          -0.8134   -1.8498    2.3382 H       1  UNL1        0.2095
     40 H          -1.8028    1.4985   -2.6746 H       1  UNL1        0.0430
     41 H          -1.4631   -0.0432   -3.4781 H       1  UNL1        0.0430
     42 H          -3.1934   -1.2227   -2.1486 H       1  UNL1        0.0326
     43 H          -3.8246    0.1701   -3.0037 H       1  UNL1        0.0326
     44 H          -2.5438    2.2221   -0.3514 H       1  UNL1        0.0810
     45 H          -4.3567    2.4318    1.5613 H       1  UNL1        0.1653
     46 H          -6.6197    0.9954    2.2632 H       1  UNL1        0.0638
     47 H          -8.0000   -0.9942    1.5919 H       1  UNL1        0.0618
     48 H          -7.3609   -2.3540   -0.3590 H       1  UNL1        0.0618
     49 H          -5.3637   -1.7299   -1.6272 H       1  UNL1        0.0624
     50 H           2.3559   -1.4033   -1.8422 H       1  UNL1        0.0621
     51 H           4.4098   -1.4580   -0.5623 H       1  UNL1        0.0624
     52 H           7.1644    1.3802    2.8194 H       1  UNL1        0.1825
     53 H           9.6247    0.9793    2.8633 H       1  UNL1        0.2414
@<TRIPOS>BOND
     1     1     2    2
     2     2     3    1
     3     3     4    2
     4     4     5    1
     5     5     6   ar
     6     6     7   ar
     7     7     8   ar
     8     8     9    1
     9     9    10    1
    10    10    11    1
    11    11    12    1
    12    12    13    1
    13    10    14    1
    14    14    15    1
    15    15    16    1
    16    16    17   ar
    17    17    18   ar
    18    18    19   ar
    19    19    20   ar
    20    20    21   ar
    21    21    22   ar
    22    22    23   ar
    23    23    24   ar
    24     8    25   ar
    25    25    26   ar
    26     2    27   am
    27    27    28    1
    28    26     5   ar
    29    24    16   ar
    30    24    19   ar
    31     3    29    1
    32     4    30    1
    33     6    31    1
    34     7    32    1
    35     9    33    1
    36     9    34    1
    37    11    35    1
    38    11    36    1
    39    12    37    1
    40    12    38    1
    41    13    39    1
    42    14    40    1
    43    14    41    1
    44    15    42    1
    45    15    43    1
    46    17    44    1
    47    18    45    1
    48    20    46    1
    49    21    47    1
    50    22    48    1
    51    23    49    1
    52    25    50    1
    53    26    51    1
    54    27    52    1
    55    28    53    1
