@<TRIPOS>MOLECULE
*****
 59 62 0 0 0
SMALL
GASTEIGER

@<TRIPOS>ATOM
      1 C          11.1506   -0.7331    1.2565 C.3     1  UNL1       -0.0495
      2 C          10.2202   -0.6020    2.4563 C.3     1  UNL1        0.0091
      3 N           8.8351   -0.4999    2.0369 N.am    1  UNL1       -0.3112
      4 C           8.3656    0.5276    1.2126 C.2     1  UNL1        0.2507
      5 O           9.1167    1.4109    0.7951 O.2     1  UNL1       -0.2696
      6 C           6.9517    0.5805    0.8197 C.ar    1  UNL1        0.0745
      7 C           6.2896    1.4745    0.0381 C.ar    1  UNL1       -0.0418
      8 C           4.9741    1.2946   -0.1702 C.ar    1  UNL1       -0.0418
      9 C           4.3617    0.2241    0.4112 C.ar    1  UNL1        0.0745
     10 C           2.9842   -0.2442    0.3851 C.2     1  UNL1        0.2507
     11 O           2.6786   -1.2651    1.0093 O.2     1  UNL1       -0.2696
     12 N           2.0424    0.4788   -0.3494 N.am    1  UNL1       -0.3109
     13 C           0.6417    0.1262   -0.4583 C.3     1  UNL1        0.0122
     14 C           0.0309    0.1405    0.8971 C.3     1  UNL1       -0.0344
     15 C          -1.4358   -0.2075    0.9106 C.3     1  UNL1       -0.0368
     16 C          -2.2870    0.7130    0.1077 C.3     1  UNL1       -0.0342
     17 C          -3.0603    0.0352   -0.9983 C.3     1  UNL1        0.0138
     18 N          -3.8187   -1.0577   -0.4357 N.pl3   1  UNL1       -0.3142
     19 C          -5.1578   -1.3561   -0.8046 C.ar    1  UNL1        0.1389
     20 N          -5.5011   -2.5461   -1.3492 N.ar    1  UNL1       -0.2196
     21 C          -6.7916   -2.7019   -1.6523 C.ar    1  UNL1        0.1188
     22 N          -7.7523   -1.8166   -1.4735 N.ar    1  UNL1       -0.2347
     23 C          -7.4756   -0.5775   -0.9214 C.ar    1  UNL1        0.0838
     24 C          -8.3507    0.3978   -0.6900 C.ar    1  UNL1       -0.0163
     25 C          -7.9573    1.5913   -0.1344 C.ar    1  UNL1        0.0763
     26 C          -8.5641    2.7939    0.2392 C.2     1  UNL1        0.2482
     27 N          -9.9538    2.9781    0.0567 N.am    1  UNL1       -0.3249
     28 O          -7.8795    3.7225    0.7409 O.2     1  UNL1       -0.2698
     29 S          -6.1377    1.2401    0.0622 S.2     1  UNL1       -0.0787
     30 C          -6.1664   -0.3985   -0.6055 C.ar    1  UNL1        0.0781
     31 C          -3.1643   -1.8828    0.5551 C.3     1  UNL1        0.0138
     32 C          -1.6684   -1.6293    0.3990 C.3     1  UNL1       -0.0342
     33 S           5.7033   -0.5490    1.2811 S.2     1  UNL1       -0.0791
     34 H          11.5604   -1.7519    1.1578 H       1  UNL1        0.0245
     35 H          11.9189    0.0397    1.3179 H       1  UNL1        0.0245
     36 H          10.5394   -0.5426    0.3508 H       1  UNL1        0.0245
     37 H          10.3279   -1.5410    3.0341 H       1  UNL1        0.0459
     38 H          10.5139    0.2922    3.0740 H       1  UNL1        0.0459
     39 H           8.1188   -1.2209    2.3517 H       1  UNL1        0.1490
     40 H           6.8554    2.3391   -0.4136 H       1  UNL1        0.0631
     41 H           4.3829    2.0165   -0.8154 H       1  UNL1        0.0631
     42 H           2.3593    1.3376   -0.8610 H       1  UNL1        0.1490
     43 H           0.1272    0.7446   -1.2038 H       1  UNL1        0.0462
     44 H           0.6433   -0.9194   -0.8879 H       1  UNL1        0.0462
     45 H           0.1667    1.1035    1.4282 H       1  UNL1        0.0283
     46 H           0.5275   -0.6237    1.5275 H       1  UNL1        0.0283
     47 H          -1.7358   -0.2404    1.9929 H       1  UNL1        0.0302
     48 H          -1.7400    1.6115   -0.2567 H       1  UNL1        0.0283
     49 H          -3.0711    1.1328    0.8064 H       1  UNL1        0.0283
     50 H          -3.6984    0.8064   -1.4657 H       1  UNL1        0.0464
     51 H          -2.3996   -0.3641   -1.7939 H       1  UNL1        0.0464
     52 H          -7.0640   -3.6673   -2.0930 H       1  UNL1        0.1048
     53 H          -9.4673    0.3338   -0.9236 H       1  UNL1        0.0652
     54 H         -10.5919    2.1886    0.2717 H       1  UNL1        0.1453
     55 H         -10.2908    3.8962   -0.2861 H       1  UNL1        0.1453
     56 H          -3.3637   -2.9633    0.4100 H       1  UNL1        0.0464
     57 H          -3.4186   -1.5884    1.5987 H       1  UNL1        0.0464
     58 H          -1.0656   -2.3591    0.9818 H       1  UNL1        0.0283
     59 H          -1.3592   -1.7227   -0.6628 H       1  UNL1        0.0283
@<TRIPOS>BOND
     1     1     2    1
     2     2     3    1
     3     3     4   am
     4     4     5    2
     5     4     6    1
     6     6     7   ar
     7     7     8   ar
     8     8     9   ar
     9     9    10    1
    10    10    11    2
    11    10    12   am
    12    12    13    1
    13    13    14    1
    14    14    15    1
    15    15    16    1
    16    16    17    1
    17    17    18    1
    18    18    19    1
    19    19    20   ar
    20    20    21   ar
    21    21    22   ar
    22    22    23   ar
    23    23    24   ar
    24    24    25   ar
    25    25    26    1
    26    26    27   am
    27    26    28    2
    28    25    29   ar
    29    29    30   ar
    30    18    31    1
    31    31    32    1
    32     9    33   ar
    33    33     6   ar
    34    32    15    1
    35    30    19   ar
    36    30    23   ar
    37     1    34    1
    38     1    35    1
    39     1    36    1
    40     2    37    1
    41     2    38    1
    42     3    39    1
    43     7    40    1
    44     8    41    1
    45    12    42    1
    46    13    43    1
    47    13    44    1
    48    14    45    1
    49    14    46    1
    50    15    47    1
    51    16    48    1
    52    16    49    1
    53    17    50    1
    54    17    51    1
    55    21    52    1
    56    24    53    1
    57    27    54    1
    58    27    55    1
    59    31    56    1
    60    31    57    1
    61    32    58    1
    62    32    59    1
