
     RDKit          3D

 59 62  0  0  0  0  0  0  0  0999 V2000
   11.1506   -0.7331    1.2565 C   0  0  0  0  0  0  0  0  0  0  0  0
   10.2202   -0.6020    2.4563 C   0  0  0  0  0  0  0  0  0  0  0  0
    8.8351   -0.4999    2.0369 N   0  0  0  0  0  0  0  0  0  0  0  0
    8.3656    0.5276    1.2126 C   0  0  0  0  0  0  0  0  0  0  0  0
    9.1167    1.4109    0.7951 O   0  0  0  0  0  0  0  0  0  0  0  0
    6.9517    0.5805    0.8197 C   0  0  0  0  0  0  0  0  0  0  0  0
    6.2896    1.4745    0.0381 C   0  0  0  0  0  0  0  0  0  0  0  0
    4.9741    1.2946   -0.1702 C   0  0  0  0  0  0  0  0  0  0  0  0
    4.3617    0.2241    0.4112 C   0  0  0  0  0  0  0  0  0  0  0  0
    2.9842   -0.2442    0.3851 C   0  0  0  0  0  0  0  0  0  0  0  0
    2.6786   -1.2651    1.0093 O   0  0  0  0  0  0  0  0  0  0  0  0
    2.0424    0.4788   -0.3494 N   0  0  0  0  0  0  0  0  0  0  0  0
    0.6417    0.1262   -0.4583 C   0  0  0  0  0  0  0  0  0  0  0  0
    0.0309    0.1405    0.8971 C   0  0  0  0  0  0  0  0  0  0  0  0
   -1.4358   -0.2075    0.9106 C   0  0  0  0  0  0  0  0  0  0  0  0
   -2.2870    0.7130    0.1077 C   0  0  0  0  0  0  0  0  0  0  0  0
   -3.0603    0.0352   -0.9983 C   0  0  0  0  0  0  0  0  0  0  0  0
   -3.8187   -1.0577   -0.4357 N   0  0  0  0  0  0  0  0  0  0  0  0
   -5.1578   -1.3561   -0.8046 C   0  0  0  0  0  0  0  0  0  0  0  0
   -5.5011   -2.5461   -1.3492 N   0  0  0  0  0  0  0  0  0  0  0  0
   -6.7916   -2.7019   -1.6523 C   0  0  0  0  0  0  0  0  0  0  0  0
   -7.7523   -1.8166   -1.4735 N   0  0  0  0  0  0  0  0  0  0  0  0
   -7.4756   -0.5775   -0.9214 C   0  0  0  0  0  0  0  0  0  0  0  0
   -8.3507    0.3978   -0.6900 C   0  0  0  0  0  0  0  0  0  0  0  0
   -7.9573    1.5913   -0.1344 C   0  0  0  0  0  0  0  0  0  0  0  0
   -8.5641    2.7939    0.2392 C   0  0  0  0  0  0  0  0  0  0  0  0
   -9.9538    2.9781    0.0567 N   0  0  0  0  0  0  0  0  0  0  0  0
   -7.8795    3.7225    0.7409 O   0  0  0  0  0  0  0  0  0  0  0  0
   -6.1377    1.2401    0.0622 S   0  0  0  0  0  0  0  0  0  0  0  0
   -6.1664   -0.3985   -0.6055 C   0  0  0  0  0  0  0  0  0  0  0  0
   -3.1643   -1.8828    0.5551 C   0  0  0  0  0  0  0  0  0  0  0  0
   -1.6684   -1.6293    0.3990 C   0  0  0  0  0  0  0  0  0  0  0  0
    5.7033   -0.5490    1.2811 S   0  0  0  0  0  0  0  0  0  0  0  0
   11.5604   -1.7519    1.1578 H   0  0  0  0  0  0  0  0  0  0  0  0
   11.9189    0.0397    1.3179 H   0  0  0  0  0  0  0  0  0  0  0  0
   10.5394   -0.5426    0.3508 H   0  0  0  0  0  0  0  0  0  0  0  0
   10.3279   -1.5410    3.0341 H   0  0  0  0  0  0  0  0  0  0  0  0
   10.5139    0.2922    3.0740 H   0  0  0  0  0  0  0  0  0  0  0  0
    8.1188   -1.2209    2.3517 H   0  0  0  0  0  0  0  0  0  0  0  0
    6.8554    2.3391   -0.4136 H   0  0  0  0  0  0  0  0  0  0  0  0
    4.3829    2.0165   -0.8154 H   0  0  0  0  0  0  0  0  0  0  0  0
    2.3593    1.3376   -0.8610 H   0  0  0  0  0  0  0  0  0  0  0  0
    0.1272    0.7446   -1.2038 H   0  0  0  0  0  0  0  0  0  0  0  0
    0.6433   -0.9194   -0.8879 H   0  0  0  0  0  0  0  0  0  0  0  0
    0.1667    1.1035    1.4282 H   0  0  0  0  0  0  0  0  0  0  0  0
    0.5275   -0.6237    1.5275 H   0  0  0  0  0  0  0  0  0  0  0  0
   -1.7358   -0.2404    1.9929 H   0  0  0  0  0  0  0  0  0  0  0  0
   -1.7400    1.6115   -0.2567 H   0  0  0  0  0  0  0  0  0  0  0  0
   -3.0711    1.1328    0.8064 H   0  0  0  0  0  0  0  0  0  0  0  0
   -3.6984    0.8064   -1.4657 H   0  0  0  0  0  0  0  0  0  0  0  0
   -2.3996   -0.3641   -1.7939 H   0  0  0  0  0  0  0  0  0  0  0  0
   -7.0640   -3.6673   -2.0930 H   0  0  0  0  0  0  0  0  0  0  0  0
   -9.4673    0.3338   -0.9236 H   0  0  0  0  0  0  0  0  0  0  0  0
  -10.5919    2.1886    0.2717 H   0  0  0  0  0  0  0  0  0  0  0  0
  -10.2908    3.8962   -0.2861 H   0  0  0  0  0  0  0  0  0  0  0  0
   -3.3637   -2.9633    0.4100 H   0  0  0  0  0  0  0  0  0  0  0  0
   -3.4186   -1.5884    1.5987 H   0  0  0  0  0  0  0  0  0  0  0  0
   -1.0656   -2.3591    0.9818 H   0  0  0  0  0  0  0  0  0  0  0  0
   -1.3592   -1.7227   -0.6628 H   0  0  0  0  0  0  0  0  0  0  0  0
  1  2  1  0
  2  3  1  0
  3  4  1  0
  4  5  2  0
  4  6  1  0
  6  7  2  0
  7  8  1  0
  8  9  2  0
  9 10  1  0
 10 11  2  0
 10 12  1  0
 12 13  1  0
 13 14  1  0
 14 15  1  0
 15 16  1  0
 16 17  1  0
 17 18  1  0
 18 19  1  0
 19 20  2  0
 20 21  1  0
 21 22  2  0
 22 23  1  0
 23 24  1  0
 24 25  2  0
 25 26  1  0
 26 27  1  0
 26 28  2  0
 25 29  1  0
 29 30  1  0
 18 31  1  0
 31 32  1  0
  9 33  1  0
 33  6  1  0
 32 15  1  0
 30 19  1  0
 30 23  2  0
  1 34  1  0
  1 35  1  0
  1 36  1  0
  2 37  1  0
  2 38  1  0
  3 39  1  0
  7 40  1  0
  8 41  1  0
 12 42  1  0
 13 43  1  0
 13 44  1  0
 14 45  1  0
 14 46  1  0
 15 47  1  0
 16 48  1  0
 16 49  1  0
 17 50  1  0
 17 51  1  0
 21 52  1  0
 24 53  1  0
 27 54  1  0
 27 55  1  0
 31 56  1  0
 31 57  1  0
 32 58  1  0
 32 59  1  0
M  END
$$$$
