@<TRIPOS>MOLECULE
*****
 38 40 0 0 0
SMALL
GASTEIGER

@<TRIPOS>ATOM
      1 O           3.1652    2.2602   -2.3961 O.2     1  UNL1       -0.2489
      2 C           3.0670    1.4712   -1.4229 C.2     1  UNL1        0.3256
      3 O           3.4065    1.9619   -0.1718 O.3     1  UNL1       -0.4793
      4 C           2.6044    0.0597   -1.5939 C.3     1  UNL1        0.1256
      5 C           3.7852   -0.7932   -2.0185 C.3     1  UNL1       -0.0079
      6 C           3.9697   -0.9446   -0.5175 C.3     1  UNL1        0.0192
      7 N           2.5542   -0.6938   -0.3734 N.am    1  UNL1       -0.2718
      8 C           1.5836   -1.0777    0.6116 C.2     1  UNL1        0.3071
      9 O           1.9541   -1.7724    1.5768 O.2     1  UNL1       -0.2523
     10 N           0.2275   -0.6913    0.5167 N.am    1  UNL1       -0.2687
     11 C          -0.8239   -0.9974    1.4043 C.ar    1  UNL1        0.0439
     12 C          -0.7192   -1.8457    2.4842 C.ar    1  UNL1       -0.0215
     13 C          -1.7868   -2.1378    3.3380 C.ar    1  UNL1        0.0428
     14 CL         -1.5859   -3.2264    4.6947 Cl      1  UNL1       -0.0835
     15 C          -3.0178   -1.5695    3.1211 C.ar    1  UNL1       -0.0427
     16 C          -3.1321   -0.7231    2.0492 C.ar    1  UNL1       -0.0509
     17 C          -2.0598   -0.4268    1.1894 C.ar    1  UNL1        0.0035
     18 C          -2.2491    0.5176    0.1001 C.ar    1  UNL1       -0.0161
     19 C          -1.5155    1.6649   -0.0884 C.ar    1  UNL1       -0.0540
     20 C          -1.7520    2.5167   -1.1615 C.ar    1  UNL1       -0.0612
     21 C          -2.7416    2.2337   -2.0807 C.ar    1  UNL1       -0.0617
     22 C          -3.4813    1.0908   -1.9032 C.ar    1  UNL1       -0.0612
     23 C          -3.2400    0.2506   -0.8353 C.ar    1  UNL1       -0.0540
     24 H           3.6797    2.9167    0.0084 H       1  UNL1        0.2951
     25 H           1.7147   -0.0287   -2.2428 H       1  UNL1        0.0617
     26 H           3.5362   -1.7120   -2.5563 H       1  UNL1        0.0304
     27 H           4.6123   -0.2236   -2.5028 H       1  UNL1        0.0304
     28 H           4.6306   -0.1187   -0.1448 H       1  UNL1        0.0466
     29 H           4.3119   -1.9480   -0.2097 H       1  UNL1        0.0466
     30 H           0.0087   -0.1175   -0.3496 H       1  UNL1        0.1564
     31 H           0.2028   -2.3309    2.7191 H       1  UNL1        0.0651
     32 H          -3.8729   -1.7644    3.7521 H       1  UNL1        0.0632
     33 H          -4.0827   -0.2399    1.8230 H       1  UNL1        0.0625
     34 H          -0.7435    1.9099    0.6166 H       1  UNL1        0.0624
     35 H          -1.1773    3.4201   -1.3138 H       1  UNL1        0.0618
     36 H          -2.9360    2.8980   -2.9297 H       1  UNL1        0.0618
     37 H          -4.2597    0.8672   -2.6253 H       1  UNL1        0.0618
     38 H          -3.8371   -0.6560   -0.7069 H       1  UNL1        0.0624
@<TRIPOS>BOND
     1     1     2    2
     2     2     3    1
     3     2     4    1
     4     4     5    1
     5     5     6    1
     6     6     7    1
     7     7     8   am
     8     8     9    2
     9     8    10   am
    10    10    11    1
    11    11    12   ar
    12    12    13   ar
    13    13    14    1
    14    13    15   ar
    15    15    16   ar
    16    16    17   ar
    17    17    18    1
    18    18    19   ar
    19    19    20   ar
    20    20    21   ar
    21    21    22   ar
    22    22    23   ar
    23     7     4    1
    24    17    11   ar
    25    23    18   ar
    26     3    24    1
    27     4    25    1
    28     5    26    1
    29     5    27    1
    30     6    28    1
    31     6    29    1
    32    10    30    1
    33    12    31    1
    34    15    32    1
    35    16    33    1
    36    19    34    1
    37    20    35    1
    38    21    36    1
    39    22    37    1
    40    23    38    1
