
     RDKit          3D

 38 40  0  0  0  0  0  0  0  0999 V2000
    3.1652    2.2602   -2.3961 O   0  0  0  0  0  0  0  0  0  0  0  0
    3.0670    1.4712   -1.4229 C   0  0  0  0  0  0  0  0  0  0  0  0
    3.4065    1.9619   -0.1718 O   0  0  0  0  0  0  0  0  0  0  0  0
    2.6044    0.0597   -1.5939 C   0  0  1  0  0  0  0  0  0  0  0  0
    3.7852   -0.7932   -2.0185 C   0  0  0  0  0  0  0  0  0  0  0  0
    3.9697   -0.9446   -0.5175 C   0  0  0  0  0  0  0  0  0  0  0  0
    2.5542   -0.6938   -0.3734 N   0  0  0  0  0  0  0  0  0  0  0  0
    1.5836   -1.0777    0.6116 C   0  0  0  0  0  0  0  0  0  0  0  0
    1.9541   -1.7724    1.5768 O   0  0  0  0  0  0  0  0  0  0  0  0
    0.2275   -0.6913    0.5167 N   0  0  0  0  0  0  0  0  0  0  0  0
   -0.8239   -0.9974    1.4043 C   0  0  0  0  0  0  0  0  0  0  0  0
   -0.7192   -1.8457    2.4842 C   0  0  0  0  0  0  0  0  0  0  0  0
   -1.7868   -2.1378    3.3380 C   0  0  0  0  0  0  0  0  0  0  0  0
   -1.5859   -3.2264    4.6947 Cl  0  0  0  0  0  0  0  0  0  0  0  0
   -3.0178   -1.5695    3.1211 C   0  0  0  0  0  0  0  0  0  0  0  0
   -3.1321   -0.7231    2.0492 C   0  0  0  0  0  0  0  0  0  0  0  0
   -2.0598   -0.4268    1.1894 C   0  0  0  0  0  0  0  0  0  0  0  0
   -2.2491    0.5176    0.1001 C   0  0  0  0  0  0  0  0  0  0  0  0
   -1.5155    1.6649   -0.0884 C   0  0  0  0  0  0  0  0  0  0  0  0
   -1.7520    2.5167   -1.1615 C   0  0  0  0  0  0  0  0  0  0  0  0
   -2.7416    2.2337   -2.0807 C   0  0  0  0  0  0  0  0  0  0  0  0
   -3.4813    1.0908   -1.9032 C   0  0  0  0  0  0  0  0  0  0  0  0
   -3.2400    0.2506   -0.8353 C   0  0  0  0  0  0  0  0  0  0  0  0
    3.6797    2.9167    0.0084 H   0  0  0  0  0  0  0  0  0  0  0  0
    1.7147   -0.0287   -2.2428 H   0  0  0  0  0  0  0  0  0  0  0  0
    3.5362   -1.7120   -2.5563 H   0  0  0  0  0  0  0  0  0  0  0  0
    4.6123   -0.2236   -2.5028 H   0  0  0  0  0  0  0  0  0  0  0  0
    4.6306   -0.1187   -0.1448 H   0  0  0  0  0  0  0  0  0  0  0  0
    4.3119   -1.9480   -0.2097 H   0  0  0  0  0  0  0  0  0  0  0  0
    0.0087   -0.1175   -0.3496 H   0  0  0  0  0  0  0  0  0  0  0  0
    0.2028   -2.3309    2.7191 H   0  0  0  0  0  0  0  0  0  0  0  0
   -3.8729   -1.7644    3.7521 H   0  0  0  0  0  0  0  0  0  0  0  0
   -4.0827   -0.2399    1.8230 H   0  0  0  0  0  0  0  0  0  0  0  0
   -0.7435    1.9099    0.6166 H   0  0  0  0  0  0  0  0  0  0  0  0
   -1.1773    3.4201   -1.3138 H   0  0  0  0  0  0  0  0  0  0  0  0
   -2.9360    2.8980   -2.9297 H   0  0  0  0  0  0  0  0  0  0  0  0
   -4.2597    0.8672   -2.6253 H   0  0  0  0  0  0  0  0  0  0  0  0
   -3.8371   -0.6560   -0.7069 H   0  0  0  0  0  0  0  0  0  0  0  0
  1  2  2  0
  2  3  1  0
  2  4  1  0
  4  5  1  0
  5  6  1  0
  6  7  1  0
  7  8  1  0
  8  9  2  0
  8 10  1  0
 10 11  1  0
 11 12  2  0
 12 13  1  0
 13 14  1  0
 13 15  2  0
 15 16  1  0
 16 17  2  0
 17 18  1  0
 18 19  2  0
 19 20  1  0
 20 21  2  0
 21 22  1  0
 22 23  2  0
  7  4  1  0
 17 11  1  0
 23 18  1  0
  3 24  1  0
  4 25  1  6
  5 26  1  0
  5 27  1  0
  6 28  1  0
  6 29  1  0
 10 30  1  0
 12 31  1  0
 15 32  1  0
 16 33  1  0
 19 34  1  0
 20 35  1  0
 21 36  1  0
 22 37  1  0
 23 38  1  0
M  END
$$$$
