@<TRIPOS>MOLECULE
*****
 70 76 0 0 0
SMALL
GASTEIGER

@<TRIPOS>ATOM
      1 C           4.2335   -3.8841    2.1391 C.ar    1  UNL1       -0.0617
      2 C           4.4278   -3.6883    0.7979 C.ar    1  UNL1       -0.0611
      3 C           4.9096   -2.4802    0.3289 C.ar    1  UNL1       -0.0525
      4 C           5.2132   -1.4313    1.1701 C.ar    1  UNL1        0.0025
      5 C           5.7199   -0.1484    0.7183 C.ar    1  UNL1        0.0976
      6 N           6.9305    0.3266    1.0599 N.ar    1  UNL1       -0.2430
      7 C           7.3925    1.5234    0.6322 C.ar    1  UNL1        0.0899
      8 C           8.6360    1.9991    0.9898 C.ar    1  UNL1       -0.0342
      9 C           9.1434    3.2083    0.5777 C.ar    1  UNL1       -0.0596
     10 C           8.3341    3.9766   -0.2475 C.ar    1  UNL1       -0.0596
     11 C           7.0745    3.5317   -0.6300 C.ar    1  UNL1       -0.0342
     12 C           6.6039    2.3120   -0.1938 C.ar    1  UNL1        0.0899
     13 N           5.3870    1.8419   -0.5413 N.ar    1  UNL1       -0.2430
     14 C           4.9424    0.6574   -0.1116 C.ar    1  UNL1        0.0976
     15 C           3.6146    0.1240   -0.4778 C.ar    1  UNL1        0.0025
     16 C           3.3018   -0.1283   -1.8012 C.ar    1  UNL1       -0.0522
     17 C           2.0653   -0.6265   -2.1497 C.ar    1  UNL1       -0.0567
     18 C           1.0933   -0.8938   -1.2066 C.ar    1  UNL1       -0.0333
     19 C          -0.2385   -1.4405   -1.5443 C.3     1  UNL1        0.0240
     20 N          -1.2263   -0.4604   -1.8808 N.3     1  UNL1       -0.2981
     21 C          -2.4703   -1.1374   -2.1645 C.3     1  UNL1       -0.0002
     22 C          -3.5977   -0.1452   -2.3186 C.3     1  UNL1       -0.0319
     23 C          -3.8841    0.6326   -1.0781 C.3     1  UNL1        0.0031
     24 C          -5.0818    0.1547   -0.3676 C.ar    1  UNL1        0.0398
     25 C          -6.2444    0.8729   -0.0732 C.ar    1  UNL1       -0.0131
     26 C          -7.1270    0.0652    0.6044 C.ar    1  UNL1        0.0928
     27 C          -8.4644    0.4080    1.1052 C.ar    1  UNL1        0.0050
     28 C          -8.9893    1.6609    0.9260 C.ar    1  UNL1       -0.0344
     29 C         -10.2490    2.0033    1.3913 C.ar    1  UNL1        0.0282
     30 N         -10.9793    1.0668    2.0422 N.ar    1  UNL1       -0.2632
     31 C         -10.4951   -0.1865    2.2403 C.ar    1  UNL1        0.0282
     32 C          -9.2335   -0.5210    1.7716 C.ar    1  UNL1       -0.0344
     33 N          -6.5144   -1.1180    0.7195 N.ar    1  UNL1       -0.1736
     34 N          -5.3120   -1.0638    0.1475 N.ar    1  UNL1       -0.2807
     35 C          -2.6776    0.5291   -0.1704 C.3     1  UNL1       -0.0319
     36 C          -1.3886    0.6139   -0.9665 C.3     1  UNL1       -0.0002
     37 C           1.4067   -0.6419    0.1122 C.ar    1  UNL1       -0.0567
     38 C           2.6586   -0.1368    0.4702 C.ar    1  UNL1       -0.0522
     39 C           5.0133   -1.6408    2.5187 C.ar    1  UNL1       -0.0525
     40 C           4.5273   -2.8569    3.0021 C.ar    1  UNL1       -0.0611
     41 H           3.8523   -4.8304    2.5461 H       1  UNL1        0.0618
     42 H           4.1904   -4.5135    0.1214 H       1  UNL1        0.0618
     43 H           5.0537   -2.3515   -0.7331 H       1  UNL1        0.0624
     44 H           9.2400    1.3789    1.6312 H       1  UNL1        0.0639
     45 H          10.1287    3.5666    0.8715 H       1  UNL1        0.0618
     46 H           8.6680    4.9299   -0.6052 H       1  UNL1        0.0618
     47 H           6.4591    4.1502   -1.2763 H       1  UNL1        0.0639
     48 H           4.0630    0.0813   -2.5366 H       1  UNL1        0.0624
     49 H           1.8434   -0.8158   -3.1868 H       1  UNL1        0.0621
     50 H          -0.6105   -2.1382   -0.7562 H       1  UNL1        0.0476
     51 H          -0.1297   -2.0964   -2.4585 H       1  UNL1        0.0476
     52 H          -2.7332   -1.8760   -1.3775 H       1  UNL1        0.0427
     53 H          -2.3824   -1.6852   -3.1382 H       1  UNL1        0.0427
     54 H          -3.2750    0.5605   -3.1302 H       1  UNL1        0.0284
     55 H          -4.5274   -0.6665   -2.6265 H       1  UNL1        0.0284
     56 H          -4.0126    1.7077   -1.3360 H       1  UNL1        0.0364
     57 H          -6.3953    1.9030   -0.3494 H       1  UNL1        0.0657
     58 H          -8.4445    2.4401    0.4135 H       1  UNL1        0.0639
     59 H         -10.6968    2.9655    1.2743 H       1  UNL1        0.0830
     60 H         -11.0571   -0.9499    2.7555 H       1  UNL1        0.0830
     61 H          -8.8569   -1.5176    1.9330 H       1  UNL1        0.0639
     62 H          -4.6148   -1.8475    0.0902 H       1  UNL1        0.1885
     63 H          -2.6919   -0.3758    0.4652 H       1  UNL1        0.0284
     64 H          -2.6904    1.4152    0.4967 H       1  UNL1        0.0284
     65 H          -0.5691    0.7703   -0.2552 H       1  UNL1        0.0427
     66 H          -1.4760    1.5627   -1.5745 H       1  UNL1        0.0427
     67 H           0.7209   -0.8194    0.9406 H       1  UNL1        0.0621
     68 H           2.8857    0.0554    1.5182 H       1  UNL1        0.0624
     69 H           5.2355   -0.8513    3.2224 H       1  UNL1        0.0624
     70 H           4.3670   -3.0309    4.0576 H       1  UNL1        0.0618
@<TRIPOS>BOND
     1     1     2   ar
     2     2     3   ar
     3     3     4   ar
     4     4     5    1
     5     5     6   ar
     6     6     7   ar
     7     7     8   ar
     8     8     9   ar
     9     9    10   ar
    10    10    11   ar
    11    11    12   ar
    12    12    13   ar
    13    13    14   ar
    14    14    15    1
    15    15    16   ar
    16    16    17   ar
    17    17    18   ar
    18    18    19    1
    19    19    20    1
    20    20    21    1
    21    21    22    1
    22    22    23    1
    23    23    24    1
    24    24    25   ar
    25    25    26   ar
    26    26    27    1
    27    27    28   ar
    28    28    29   ar
    29    29    30   ar
    30    30    31   ar
    31    31    32   ar
    32    26    33   ar
    33    33    34   ar
    34    23    35    1
    35    35    36    1
    36    18    37   ar
    37    37    38   ar
    38     4    39   ar
    39    39    40   ar
    40    40     1   ar
    41    14     5   ar
    42    38    15   ar
    43    12     7   ar
    44    36    20    1
    45    34    24   ar
    46    32    27   ar
    47     1    41    1
    48     2    42    1
    49     3    43    1
    50     8    44    1
    51     9    45    1
    52    10    46    1
    53    11    47    1
    54    16    48    1
    55    17    49    1
    56    19    50    1
    57    19    51    1
    58    21    52    1
    59    21    53    1
    60    22    54    1
    61    22    55    1
    62    23    56    1
    63    25    57    1
    64    28    58    1
    65    29    59    1
    66    31    60    1
    67    32    61    1
    68    34    62    1
    69    35    63    1
    70    35    64    1
    71    36    65    1
    72    36    66    1
    73    37    67    1
    74    38    68    1
    75    39    69    1
    76    40    70    1
