
     RDKit          3D

 70 76  0  0  0  0  0  0  0  0999 V2000
    4.2335   -3.8841    2.1391 C   0  0  0  0  0  0  0  0  0  0  0  0
    4.4278   -3.6883    0.7979 C   0  0  0  0  0  0  0  0  0  0  0  0
    4.9096   -2.4802    0.3289 C   0  0  0  0  0  0  0  0  0  0  0  0
    5.2132   -1.4313    1.1701 C   0  0  0  0  0  0  0  0  0  0  0  0
    5.7199   -0.1484    0.7183 C   0  0  0  0  0  0  0  0  0  0  0  0
    6.9305    0.3266    1.0599 N   0  0  0  0  0  0  0  0  0  0  0  0
    7.3925    1.5234    0.6322 C   0  0  0  0  0  0  0  0  0  0  0  0
    8.6360    1.9991    0.9898 C   0  0  0  0  0  0  0  0  0  0  0  0
    9.1434    3.2083    0.5777 C   0  0  0  0  0  0  0  0  0  0  0  0
    8.3341    3.9766   -0.2475 C   0  0  0  0  0  0  0  0  0  0  0  0
    7.0745    3.5317   -0.6300 C   0  0  0  0  0  0  0  0  0  0  0  0
    6.6039    2.3120   -0.1938 C   0  0  0  0  0  0  0  0  0  0  0  0
    5.3870    1.8419   -0.5413 N   0  0  0  0  0  0  0  0  0  0  0  0
    4.9424    0.6574   -0.1116 C   0  0  0  0  0  0  0  0  0  0  0  0
    3.6146    0.1240   -0.4778 C   0  0  0  0  0  0  0  0  0  0  0  0
    3.3018   -0.1283   -1.8012 C   0  0  0  0  0  0  0  0  0  0  0  0
    2.0653   -0.6265   -2.1497 C   0  0  0  0  0  0  0  0  0  0  0  0
    1.0933   -0.8938   -1.2066 C   0  0  0  0  0  0  0  0  0  0  0  0
   -0.2385   -1.4405   -1.5443 C   0  0  0  0  0  0  0  0  0  0  0  0
   -1.2263   -0.4604   -1.8808 N   0  0  0  0  0  0  0  0  0  0  0  0
   -2.4703   -1.1374   -2.1645 C   0  0  0  0  0  0  0  0  0  0  0  0
   -3.5977   -0.1452   -2.3186 C   0  0  0  0  0  0  0  0  0  0  0  0
   -3.8841    0.6326   -1.0781 C   0  0  0  0  0  0  0  0  0  0  0  0
   -5.0818    0.1547   -0.3676 C   0  0  0  0  0  0  0  0  0  0  0  0
   -6.2444    0.8729   -0.0732 C   0  0  0  0  0  0  0  0  0  0  0  0
   -7.1270    0.0652    0.6044 C   0  0  0  0  0  0  0  0  0  0  0  0
   -8.4644    0.4080    1.1052 C   0  0  0  0  0  0  0  0  0  0  0  0
   -8.9893    1.6609    0.9260 C   0  0  0  0  0  0  0  0  0  0  0  0
  -10.2490    2.0033    1.3913 C   0  0  0  0  0  0  0  0  0  0  0  0
  -10.9793    1.0668    2.0422 N   0  0  0  0  0  0  0  0  0  0  0  0
  -10.4951   -0.1865    2.2403 C   0  0  0  0  0  0  0  0  0  0  0  0
   -9.2335   -0.5210    1.7716 C   0  0  0  0  0  0  0  0  0  0  0  0
   -6.5144   -1.1180    0.7195 N   0  0  0  0  0  0  0  0  0  0  0  0
   -5.3120   -1.0638    0.1475 N   0  0  0  0  0  0  0  0  0  0  0  0
   -2.6776    0.5291   -0.1704 C   0  0  0  0  0  0  0  0  0  0  0  0
   -1.3886    0.6139   -0.9665 C   0  0  0  0  0  0  0  0  0  0  0  0
    1.4067   -0.6419    0.1122 C   0  0  0  0  0  0  0  0  0  0  0  0
    2.6586   -0.1368    0.4702 C   0  0  0  0  0  0  0  0  0  0  0  0
    5.0133   -1.6408    2.5187 C   0  0  0  0  0  0  0  0  0  0  0  0
    4.5273   -2.8569    3.0021 C   0  0  0  0  0  0  0  0  0  0  0  0
    3.8523   -4.8304    2.5461 H   0  0  0  0  0  0  0  0  0  0  0  0
    4.1904   -4.5135    0.1214 H   0  0  0  0  0  0  0  0  0  0  0  0
    5.0537   -2.3515   -0.7331 H   0  0  0  0  0  0  0  0  0  0  0  0
    9.2400    1.3789    1.6312 H   0  0  0  0  0  0  0  0  0  0  0  0
   10.1287    3.5666    0.8715 H   0  0  0  0  0  0  0  0  0  0  0  0
    8.6680    4.9299   -0.6052 H   0  0  0  0  0  0  0  0  0  0  0  0
    6.4591    4.1502   -1.2763 H   0  0  0  0  0  0  0  0  0  0  0  0
    4.0630    0.0813   -2.5366 H   0  0  0  0  0  0  0  0  0  0  0  0
    1.8434   -0.8158   -3.1868 H   0  0  0  0  0  0  0  0  0  0  0  0
   -0.6105   -2.1382   -0.7562 H   0  0  0  0  0  0  0  0  0  0  0  0
   -0.1297   -2.0964   -2.4585 H   0  0  0  0  0  0  0  0  0  0  0  0
   -2.7332   -1.8760   -1.3775 H   0  0  0  0  0  0  0  0  0  0  0  0
   -2.3824   -1.6852   -3.1382 H   0  0  0  0  0  0  0  0  0  0  0  0
   -3.2750    0.5605   -3.1302 H   0  0  0  0  0  0  0  0  0  0  0  0
   -4.5274   -0.6665   -2.6265 H   0  0  0  0  0  0  0  0  0  0  0  0
   -4.0126    1.7077   -1.3360 H   0  0  0  0  0  0  0  0  0  0  0  0
   -6.3953    1.9030   -0.3494 H   0  0  0  0  0  0  0  0  0  0  0  0
   -8.4445    2.4401    0.4135 H   0  0  0  0  0  0  0  0  0  0  0  0
  -10.6968    2.9655    1.2743 H   0  0  0  0  0  0  0  0  0  0  0  0
  -11.0571   -0.9499    2.7555 H   0  0  0  0  0  0  0  0  0  0  0  0
   -8.8569   -1.5176    1.9330 H   0  0  0  0  0  0  0  0  0  0  0  0
   -4.6148   -1.8475    0.0902 H   0  0  0  0  0  0  0  0  0  0  0  0
   -2.6919   -0.3758    0.4652 H   0  0  0  0  0  0  0  0  0  0  0  0
   -2.6904    1.4152    0.4967 H   0  0  0  0  0  0  0  0  0  0  0  0
   -0.5691    0.7703   -0.2552 H   0  0  0  0  0  0  0  0  0  0  0  0
   -1.4760    1.5627   -1.5745 H   0  0  0  0  0  0  0  0  0  0  0  0
    0.7209   -0.8194    0.9406 H   0  0  0  0  0  0  0  0  0  0  0  0
    2.8857    0.0554    1.5182 H   0  0  0  0  0  0  0  0  0  0  0  0
    5.2355   -0.8513    3.2224 H   0  0  0  0  0  0  0  0  0  0  0  0
    4.3670   -3.0309    4.0576 H   0  0  0  0  0  0  0  0  0  0  0  0
  1  2  2  0
  2  3  1  0
  3  4  2  0
  4  5  1  0
  5  6  2  0
  6  7  1  0
  7  8  2  0
  8  9  1  0
  9 10  2  0
 10 11  1  0
 11 12  2  0
 12 13  1  0
 13 14  2  0
 14 15  1  0
 15 16  2  0
 16 17  1  0
 17 18  2  0
 18 19  1  0
 19 20  1  0
 20 21  1  0
 21 22  1  0
 22 23  1  0
 23 24  1  0
 24 25  2  0
 25 26  1  0
 26 27  1  0
 27 28  2  0
 28 29  1  0
 29 30  2  0
 30 31  1  0
 31 32  2  0
 26 33  2  0
 33 34  1  0
 23 35  1  0
 35 36  1  0
 18 37  1  0
 37 38  2  0
  4 39  1  0
 39 40  2  0
 40  1  1  0
 14  5  1  0
 38 15  1  0
 12  7  1  0
 36 20  1  0
 34 24  1  0
 32 27  1  0
  1 41  1  0
  2 42  1  0
  3 43  1  0
  8 44  1  0
  9 45  1  0
 10 46  1  0
 11 47  1  0
 16 48  1  0
 17 49  1  0
 19 50  1  0
 19 51  1  0
 21 52  1  0
 21 53  1  0
 22 54  1  0
 22 55  1  0
 23 56  1  0
 25 57  1  0
 28 58  1  0
 29 59  1  0
 31 60  1  0
 32 61  1  0
 34 62  1  0
 35 63  1  0
 35 64  1  0
 36 65  1  0
 36 66  1  0
 37 67  1  0
 38 68  1  0
 39 69  1  0
 40 70  1  0
M  END
$$$$
