@<TRIPOS>MOLECULE
*****
 53 55 0 0 0
SMALL
GASTEIGER

@<TRIPOS>ATOM
      1 C           9.4303    0.2852   -0.3944 C.3     1  UNL1       -0.0306
      2 C           8.5386    0.8570   -1.4865 C.3     1  UNL1        0.0900
      3 O           7.1991    0.4760   -1.3457 O.3     1  UNL1       -0.4614
      4 C           6.4082    0.7580   -0.2505 C.2     1  UNL1        0.3410
      5 O           6.9310    1.4063    0.6914 O.2     1  UNL1       -0.2449
      6 C           5.0124    0.3374   -0.1508 C.ar    1  UNL1        0.0813
      7 C           4.4161   -0.3740   -1.1691 C.ar    1  UNL1       -0.0253
      8 C           3.0812   -0.7882   -1.0975 C.ar    1  UNL1        0.0924
      9 C           2.4836   -1.5293   -2.1742 C.1     1  UNL1        0.1026
     10 N           2.0092   -2.1277   -3.0672 N.1     1  UNL1       -0.1908
     11 C           2.3785   -0.4546    0.0410 C.ar    1  UNL1        0.1391
     12 N           1.0166   -0.8535    0.1615 N.pl3   1  UNL1       -0.3126
     13 C          -0.2085   -0.6324   -0.5565 C.3     1  UNL1        0.0262
     14 C          -0.8179   -1.8055    0.1810 C.3     1  UNL1        0.0683
     15 C          -2.1313   -1.3988    0.7635 C.2     1  UNL1        0.2378
     16 O          -2.3527   -1.4400    1.9868 O.2     1  UNL1       -0.2738
     17 N          -3.1973   -0.9401   -0.0835 N.am    1  UNL1       -0.1893
     18 S          -4.7227   -0.4640    0.5535 S.O2    1  UNL1        0.0493
     19 O          -4.5339    0.6584    1.5056 O.2     1  UNL1       -0.1548
     20 O          -5.3363   -1.6723    1.2092 O.2     1  UNL1       -0.1548
     21 C          -5.7441    0.0321   -0.8377 C.3     1  UNL1        0.1098
     22 C          -7.0767    0.4513   -0.3133 C.ar    1  UNL1       -0.0248
     23 C          -7.2714    1.7720    0.0311 C.ar    1  UNL1       -0.0570
     24 C          -8.4975    2.1664    0.5154 C.ar    1  UNL1       -0.0615
     25 C          -9.5167    1.2351    0.6503 C.ar    1  UNL1       -0.0617
     26 C          -9.3343   -0.0860    0.3099 C.ar    1  UNL1       -0.0615
     27 C          -8.1005   -0.4572   -0.1721 C.ar    1  UNL1       -0.0570
     28 C           0.3425   -1.6941    1.1375 C.3     1  UNL1        0.0262
     29 N           2.9663    0.2351    1.0219 N.ar    1  UNL1       -0.2351
     30 C           4.2608    0.6420    0.9629 C.ar    1  UNL1        0.0544
     31 C           4.8468    1.4055    2.0921 C.3     1  UNL1       -0.0215
     32 H          10.0482    1.0460    0.0857 H       1  UNL1        0.0262
     33 H          10.0367   -0.5815   -0.7764 H       1  UNL1        0.0262
     34 H           8.7509   -0.1306    0.3800 H       1  UNL1        0.0262
     35 H           8.9013    0.4159   -2.4560 H       1  UNL1        0.0695
     36 H           8.6733    1.9668   -1.5669 H       1  UNL1        0.0695
     37 H           5.0010   -0.6138   -2.0414 H       1  UNL1        0.0640
     38 H          -0.1890   -0.8280   -1.6365 H       1  UNL1        0.0472
     39 H          -0.7107    0.3514   -0.3590 H       1  UNL1        0.0472
     40 H          -0.8614   -2.7442   -0.3758 H       1  UNL1        0.0426
     41 H          -2.9934   -0.9129   -1.1006 H       1  UNL1        0.1761
     42 H          -5.9161   -0.8003   -1.5199 H       1  UNL1        0.0568
     43 H          -5.2803    0.8662   -1.3791 H       1  UNL1        0.0568
     44 H          -6.5040    2.5285   -0.0587 H       1  UNL1        0.0621
     45 H          -8.7170    3.1951    0.8059 H       1  UNL1        0.0618
     46 H         -10.4886    1.5375    1.0321 H       1  UNL1        0.0618
     47 H         -10.1657   -0.7660    0.4368 H       1  UNL1        0.0618
     48 H          -7.9775   -1.5078   -0.4356 H       1  UNL1        0.0621
     49 H           0.1315   -1.2120    2.0993 H       1  UNL1        0.0472
     50 H           0.8760   -2.6617    1.2243 H       1  UNL1        0.0472
     51 H           5.1476    2.4432    1.7889 H       1  UNL1        0.0293
     52 H           5.6821    0.8601    2.5893 H       1  UNL1        0.0293
     53 H           4.0759    1.5479    2.8781 H       1  UNL1        0.0293
@<TRIPOS>BOND
     1     1     2    1
     2     2     3    1
     3     3     4    1
     4     4     5    2
     5     4     6    1
     6     6     7   ar
     7     7     8   ar
     8     8     9    1
     9     9    10    3
    10     8    11   ar
    11    11    12    1
    12    12    13    1
    13    13    14    1
    14    14    15    1
    15    15    16    2
    16    15    17   am
    17    17    18    1
    18    18    19    2
    19    18    20    2
    20    18    21    1
    21    21    22    1
    22    22    23   ar
    23    23    24   ar
    24    24    25   ar
    25    25    26   ar
    26    26    27   ar
    27    14    28    1
    28    11    29   ar
    29    29    30   ar
    30    30    31    1
    31    30     6   ar
    32    28    12    1
    33    27    22   ar
    34     1    32    1
    35     1    33    1
    36     1    34    1
    37     2    35    1
    38     2    36    1
    39     7    37    1
    40    13    38    1
    41    13    39    1
    42    14    40    1
    43    17    41    1
    44    21    42    1
    45    21    43    1
    46    23    44    1
    47    24    45    1
    48    25    46    1
    49    26    47    1
    50    27    48    1
    51    28    49    1
    52    28    50    1
    53    31    51    1
    54    31    52    1
    55    31    53    1
