@<TRIPOS>MOLECULE
*****
 66 67 0 0 0
SMALL
GASTEIGER

@<TRIPOS>ATOM
      1 C          -4.4758   -3.1768    1.7577 C.3     1  UNL1        0.0364
      2 O          -3.6508   -2.7665    2.7652 O.3     1  UNL1       -0.3830
      3 C          -3.0242   -1.5422    2.5703 C.3     1  UNL1        0.0476
      4 C          -2.1746   -1.5817    1.3514 C.3     1  UNL1       -0.0249
      5 C          -1.4451   -0.3150    1.0541 C.3     1  UNL1       -0.0191
      6 C          -2.2898    0.8809    0.8308 C.3     1  UNL1       -0.0327
      7 C          -2.6584    1.1319   -0.6185 C.3     1  UNL1        0.0108
      8 N          -3.7848    1.9337   -0.7041 N.3     1  UNL1       -0.3000
      9 C          -3.6825    3.2421   -0.1201 C.3     1  UNL1       -0.0122
     10 C          -5.0785    1.5254   -0.8916 C.3     1  UNL1        0.0048
     11 C          -5.4993    0.6092    0.2740 C.3     1  UNL1       -0.0497
     12 C          -5.5162    0.8863   -2.1320 C.3     1  UNL1       -0.0497
     13 C          -2.6004   -0.0573   -1.5142 C.3     1  UNL1       -0.0356
     14 C          -1.3546   -0.8825   -1.3407 C.3     1  UNL1       -0.0328
     15 C          -0.5361   -0.4598   -0.1527 C.3     1  UNL1        0.0261
     16 N           0.5112   -1.3726    0.1944 N.am    1  UNL1       -0.3109
     17 C           1.8684   -0.9325    0.2064 C.2     1  UNL1        0.2304
     18 O           2.0791    0.2655   -0.0964 O.2     1  UNL1       -0.2741
     19 C           2.9417   -1.8903    0.5680 C.3     1  UNL1        0.0884
     20 N           4.2055   -1.1825    0.4963 N.am    1  UNL1       -0.3028
     21 C           4.6635   -0.5951   -0.7031 C.2     1  UNL1        0.2445
     22 O           3.8922   -0.7316   -1.7120 O.2     1  UNL1       -0.2702
     23 C           5.9253    0.1294   -0.8333 C.ar    1  UNL1        0.0372
     24 C           6.2595    0.6579   -2.0631 C.ar    1  UNL1       -0.0496
     25 C           7.4269    1.3429   -2.2352 C.ar    1  UNL1       -0.0605
     26 C           8.2563    1.4913   -1.1558 C.ar    1  UNL1       -0.0501
     27 C           7.9693    0.9885    0.0744 C.ar    1  UNL1        0.0555
     28 C           8.8844    1.1606    1.2360 C.3     1  UNL1        0.4174
     29 F           9.8898    0.2109    1.0785 F       1  UNL1       -0.1659
     30 F           8.2044    0.8254    2.3943 F       1  UNL1       -0.1659
     31 F           9.3833    2.4302    1.2850 F       1  UNL1       -0.1659
     32 C           6.7663    0.2893    0.2279 C.ar    1  UNL1       -0.0380
     33 H          -4.8979   -4.1739    2.0898 H       1  UNL1        0.0523
     34 H          -5.3540   -2.5130    1.6378 H       1  UNL1        0.0523
     35 H          -3.9803   -3.4170    0.7942 H       1  UNL1        0.0523
     36 H          -2.3814   -1.3951    3.4884 H       1  UNL1        0.0560
     37 H          -3.7529   -0.7104    2.4773 H       1  UNL1        0.0560
     38 H          -1.4517   -2.4124    1.4848 H       1  UNL1        0.0291
     39 H          -2.7760   -1.8343    0.4657 H       1  UNL1        0.0291
     40 H          -0.7527   -0.1403    1.9249 H       1  UNL1        0.0320
     41 H          -1.6963    1.7638    1.2334 H       1  UNL1        0.0284
     42 H          -3.2166    0.9346    1.4400 H       1  UNL1        0.0284
     43 H          -1.7942    1.7806   -0.9976 H       1  UNL1        0.0463
     44 H          -2.8777    3.7857   -0.6844 H       1  UNL1        0.0391
     45 H          -3.3696    3.1990    0.9404 H       1  UNL1        0.0391
     46 H          -4.6113    3.8070   -0.2869 H       1  UNL1        0.0391
     47 H          -5.7533    2.4252   -0.7229 H       1  UNL1        0.0457
     48 H          -4.9200   -0.3144    0.3162 H       1  UNL1        0.0245
     49 H          -6.5500    0.2872    0.0037 H       1  UNL1        0.0245
     50 H          -5.5890    1.1631    1.2138 H       1  UNL1        0.0245
     51 H          -5.7284   -0.1988   -2.0862 H       1  UNL1        0.0245
     52 H          -4.7826    1.0927   -2.9686 H       1  UNL1        0.0245
     53 H          -6.4620    1.3389   -2.5021 H       1  UNL1        0.0245
     54 H          -2.5397    0.3586   -2.5687 H       1  UNL1        0.0281
     55 H          -3.4628   -0.7146   -1.5313 H       1  UNL1        0.0281
     56 H          -0.6813   -0.8490   -2.2226 H       1  UNL1        0.0284
     57 H          -1.6138   -1.9529   -1.2035 H       1  UNL1        0.0284
     58 H          -0.0896    0.5241   -0.4100 H       1  UNL1        0.0501
     59 H           0.2671   -2.3791    0.4392 H       1  UNL1        0.1490
     60 H           2.7751   -2.2739    1.5829 H       1  UNL1        0.0558
     61 H           2.9672   -2.7652   -0.1143 H       1  UNL1        0.0558
     62 H           4.7871   -1.1077    1.3523 H       1  UNL1        0.1495
     63 H           5.5596    0.5096   -2.8920 H       1  UNL1        0.0625
     64 H           7.6446    1.7378   -3.2159 H       1  UNL1        0.0618
     65 H           9.1802    2.0365   -1.3027 H       1  UNL1        0.0623
     66 H           6.5477   -0.1074    1.2134 H       1  UNL1        0.0631
@<TRIPOS>BOND
     1     1     2    1
     2     2     3    1
     3     3     4    1
     4     4     5    1
     5     5     6    1
     6     6     7    1
     7     7     8    1
     8     8     9    1
     9     8    10    1
    10    10    11    1
    11    10    12    1
    12     7    13    1
    13    13    14    1
    14    14    15    1
    15    15    16    1
    16    16    17   am
    17    17    18    2
    18    17    19    1
    19    19    20    1
    20    20    21   am
    21    21    22    2
    22    21    23    1
    23    23    24   ar
    24    24    25   ar
    25    25    26   ar
    26    26    27   ar
    27    27    28    1
    28    28    29    1
    29    28    30    1
    30    28    31    1
    31    27    32   ar
    32    15     5    1
    33    32    23   ar
    34     1    33    1
    35     1    34    1
    36     1    35    1
    37     3    36    1
    38     3    37    1
    39     4    38    1
    40     4    39    1
    41     5    40    1
    42     6    41    1
    43     6    42    1
    44     7    43    1
    45     9    44    1
    46     9    45    1
    47     9    46    1
    48    10    47    1
    49    11    48    1
    50    11    49    1
    51    11    50    1
    52    12    51    1
    53    12    52    1
    54    12    53    1
    55    13    54    1
    56    13    55    1
    57    14    56    1
    58    14    57    1
    59    15    58    1
    60    16    59    1
    61    19    60    1
    62    19    61    1
    63    20    62    1
    64    24    63    1
    65    25    64    1
    66    26    65    1
    67    32    66    1
