
     RDKit          3D

 66 67  0  0  0  0  0  0  0  0999 V2000
   -4.4758   -3.1768    1.7577 C   0  0  0  0  0  0  0  0  0  0  0  0
   -3.6508   -2.7665    2.7652 O   0  0  0  0  0  0  0  0  0  0  0  0
   -3.0242   -1.5422    2.5703 C   0  0  0  0  0  0  0  0  0  0  0  0
   -2.1746   -1.5817    1.3514 C   0  0  0  0  0  0  0  0  0  0  0  0
   -1.4451   -0.3150    1.0541 C   0  0  2  0  0  0  0  0  0  0  0  0
   -2.2898    0.8809    0.8308 C   0  0  0  0  0  0  0  0  0  0  0  0
   -2.6584    1.1319   -0.6185 C   0  0  2  0  0  0  0  0  0  0  0  0
   -3.7848    1.9337   -0.7041 N   0  0  0  0  0  0  0  0  0  0  0  0
   -3.6825    3.2421   -0.1201 C   0  0  0  0  0  0  0  0  0  0  0  0
   -5.0785    1.5254   -0.8916 C   0  0  0  0  0  0  0  0  0  0  0  0
   -5.4993    0.6092    0.2740 C   0  0  0  0  0  0  0  0  0  0  0  0
   -5.5162    0.8863   -2.1320 C   0  0  0  0  0  0  0  0  0  0  0  0
   -2.6004   -0.0573   -1.5142 C   0  0  0  0  0  0  0  0  0  0  0  0
   -1.3546   -0.8825   -1.3407 C   0  0  0  0  0  0  0  0  0  0  0  0
   -0.5361   -0.4598   -0.1527 C   0  0  2  0  0  0  0  0  0  0  0  0
    0.5112   -1.3726    0.1944 N   0  0  0  0  0  0  0  0  0  0  0  0
    1.8684   -0.9325    0.2064 C   0  0  0  0  0  0  0  0  0  0  0  0
    2.0791    0.2655   -0.0964 O   0  0  0  0  0  0  0  0  0  0  0  0
    2.9417   -1.8903    0.5680 C   0  0  0  0  0  0  0  0  0  0  0  0
    4.2055   -1.1825    0.4963 N   0  0  0  0  0  0  0  0  0  0  0  0
    4.6635   -0.5951   -0.7031 C   0  0  0  0  0  0  0  0  0  0  0  0
    3.8922   -0.7316   -1.7120 O   0  0  0  0  0  0  0  0  0  0  0  0
    5.9253    0.1294   -0.8333 C   0  0  0  0  0  0  0  0  0  0  0  0
    6.2595    0.6579   -2.0631 C   0  0  0  0  0  0  0  0  0  0  0  0
    7.4269    1.3429   -2.2352 C   0  0  0  0  0  0  0  0  0  0  0  0
    8.2563    1.4913   -1.1558 C   0  0  0  0  0  0  0  0  0  0  0  0
    7.9693    0.9885    0.0744 C   0  0  0  0  0  0  0  0  0  0  0  0
    8.8844    1.1606    1.2360 C   0  0  0  0  0  0  0  0  0  0  0  0
    9.8898    0.2109    1.0785 F   0  0  0  0  0  0  0  0  0  0  0  0
    8.2044    0.8254    2.3943 F   0  0  0  0  0  0  0  0  0  0  0  0
    9.3833    2.4302    1.2850 F   0  0  0  0  0  0  0  0  0  0  0  0
    6.7663    0.2893    0.2279 C   0  0  0  0  0  0  0  0  0  0  0  0
   -4.8979   -4.1739    2.0898 H   0  0  0  0  0  0  0  0  0  0  0  0
   -5.3540   -2.5130    1.6378 H   0  0  0  0  0  0  0  0  0  0  0  0
   -3.9803   -3.4170    0.7942 H   0  0  0  0  0  0  0  0  0  0  0  0
   -2.3814   -1.3951    3.4884 H   0  0  0  0  0  0  0  0  0  0  0  0
   -3.7529   -0.7104    2.4773 H   0  0  0  0  0  0  0  0  0  0  0  0
   -1.4517   -2.4124    1.4848 H   0  0  0  0  0  0  0  0  0  0  0  0
   -2.7760   -1.8343    0.4657 H   0  0  0  0  0  0  0  0  0  0  0  0
   -0.7527   -0.1403    1.9249 H   0  0  0  0  0  0  0  0  0  0  0  0
   -1.6963    1.7638    1.2334 H   0  0  0  0  0  0  0  0  0  0  0  0
   -3.2166    0.9346    1.4400 H   0  0  0  0  0  0  0  0  0  0  0  0
   -1.7942    1.7806   -0.9976 H   0  0  0  0  0  0  0  0  0  0  0  0
   -2.8777    3.7857   -0.6844 H   0  0  0  0  0  0  0  0  0  0  0  0
   -3.3696    3.1990    0.9404 H   0  0  0  0  0  0  0  0  0  0  0  0
   -4.6113    3.8070   -0.2869 H   0  0  0  0  0  0  0  0  0  0  0  0
   -5.7533    2.4252   -0.7229 H   0  0  0  0  0  0  0  0  0  0  0  0
   -4.9200   -0.3144    0.3162 H   0  0  0  0  0  0  0  0  0  0  0  0
   -6.5500    0.2872    0.0037 H   0  0  0  0  0  0  0  0  0  0  0  0
   -5.5890    1.1631    1.2138 H   0  0  0  0  0  0  0  0  0  0  0  0
   -5.7284   -0.1988   -2.0862 H   0  0  0  0  0  0  0  0  0  0  0  0
   -4.7826    1.0927   -2.9686 H   0  0  0  0  0  0  0  0  0  0  0  0
   -6.4620    1.3389   -2.5021 H   0  0  0  0  0  0  0  0  0  0  0  0
   -2.5397    0.3586   -2.5687 H   0  0  0  0  0  0  0  0  0  0  0  0
   -3.4628   -0.7146   -1.5313 H   0  0  0  0  0  0  0  0  0  0  0  0
   -0.6813   -0.8490   -2.2226 H   0  0  0  0  0  0  0  0  0  0  0  0
   -1.6138   -1.9529   -1.2035 H   0  0  0  0  0  0  0  0  0  0  0  0
   -0.0896    0.5241   -0.4100 H   0  0  0  0  0  0  0  0  0  0  0  0
    0.2671   -2.3791    0.4392 H   0  0  0  0  0  0  0  0  0  0  0  0
    2.7751   -2.2739    1.5829 H   0  0  0  0  0  0  0  0  0  0  0  0
    2.9672   -2.7652   -0.1143 H   0  0  0  0  0  0  0  0  0  0  0  0
    4.7871   -1.1077    1.3523 H   0  0  0  0  0  0  0  0  0  0  0  0
    5.5596    0.5096   -2.8920 H   0  0  0  0  0  0  0  0  0  0  0  0
    7.6446    1.7378   -3.2159 H   0  0  0  0  0  0  0  0  0  0  0  0
    9.1802    2.0365   -1.3027 H   0  0  0  0  0  0  0  0  0  0  0  0
    6.5477   -0.1074    1.2134 H   0  0  0  0  0  0  0  0  0  0  0  0
  1  2  1  0
  2  3  1  0
  3  4  1  0
  4  5  1  0
  5  6  1  0
  6  7  1  0
  7  8  1  0
  8  9  1  0
  8 10  1  0
 10 11  1  0
 10 12  1  0
  7 13  1  0
 13 14  1  0
 14 15  1  0
 15 16  1  0
 16 17  1  0
 17 18  2  0
 17 19  1  0
 19 20  1  0
 20 21  1  0
 21 22  2  0
 21 23  1  0
 23 24  2  0
 24 25  1  0
 25 26  2  0
 26 27  1  0
 27 28  1  0
 28 29  1  0
 28 30  1  0
 28 31  1  0
 27 32  2  0
 15  5  1  0
 32 23  1  0
  1 33  1  0
  1 34  1  0
  1 35  1  0
  3 36  1  0
  3 37  1  0
  4 38  1  0
  4 39  1  0
  5 40  1  1
  6 41  1  0
  6 42  1  0
  7 43  1  6
  9 44  1  0
  9 45  1  0
  9 46  1  0
 10 47  1  0
 11 48  1  0
 11 49  1  0
 11 50  1  0
 12 51  1  0
 12 52  1  0
 12 53  1  0
 13 54  1  0
 13 55  1  0
 14 56  1  0
 14 57  1  0
 15 58  1  6
 16 59  1  0
 19 60  1  0
 19 61  1  0
 20 62  1  0
 24 63  1  0
 25 64  1  0
 26 65  1  0
 32 66  1  0
M  END
$$$$
