
     RDKit          3D

 56 60  0  0  0  0  0  0  0  0999 V2000
    2.4819    1.9892   -0.6022 O   0  0  0  0  0  0  0  0  0  0  0  0
    2.2214    0.7667   -0.4731 C   0  0  0  0  0  0  0  0  0  0  0  0
    3.2397   -0.2173   -0.5591 N   0  0  0  0  0  0  0  0  0  0  0  0
    4.6158    0.1367   -0.7975 C   0  0  0  0  0  0  0  0  0  0  0  0
    5.4713   -0.6849   -1.6882 C   0  0  0  0  0  0  0  0  0  0  0  0
    5.7432   -0.6341   -0.2190 C   0  0  0  0  0  0  0  0  0  0  0  0
    6.9865    0.0616    0.2040 C   0  0  0  0  0  0  0  0  0  0  0  0
    7.4949    1.1420   -0.4947 C   0  0  0  0  0  0  0  0  0  0  0  0
    8.6475    1.7705   -0.0872 C   0  0  0  0  0  0  0  0  0  0  0  0
    9.2964    1.3051    1.0383 C   0  0  0  0  0  0  0  0  0  0  0  0
    8.7998    0.2289    1.7441 C   0  0  0  0  0  0  0  0  0  0  0  0
    7.6563   -0.3797    1.3232 C   0  0  0  0  0  0  0  0  0  0  0  0
    0.8583    0.4258   -0.2376 N   0  0  0  0  0  0  0  0  0  0  0  0
    0.5254   -0.9666   -0.0812 C   0  0  0  0  0  0  0  0  0  0  0  0
   -0.9487   -1.1730   -0.2090 C   0  0  0  0  0  0  0  0  0  0  0  0
   -1.7794   -0.2832    0.6782 C   0  0  0  0  0  0  0  0  0  0  0  0
   -3.0993   -0.0384    0.0170 C   0  0  0  0  0  0  0  0  0  0  0  0
   -4.3364   -0.3788    0.4256 N   0  0  0  0  0  0  0  0  0  0  0  0
   -5.2581    0.0234   -0.4534 C   0  0  0  0  0  0  0  0  0  0  0  0
   -6.7102   -0.1300   -0.4183 C   0  0  0  0  0  0  0  0  0  0  0  0
   -7.4836    0.3633   -1.4798 C   0  0  0  0  0  0  0  0  0  0  0  0
   -8.8561    0.2304   -1.4834 C   0  0  0  0  0  0  0  0  0  0  0  0
   -9.5286   -0.3823   -0.4639 C   0  0  0  0  0  0  0  0  0  0  0  0
   -8.7841   -0.8700    0.5824 C   0  0  0  0  0  0  0  0  0  0  0  0
   -7.3996   -0.7449    0.6030 C   0  0  0  0  0  0  0  0  0  0  0  0
   -6.6540   -1.2790    1.7650 C   0  0  0  0  0  0  0  0  0  0  0  0
   -5.9763   -0.2631    2.4196 F   0  0  0  0  0  0  0  0  0  0  0  0
   -5.8102   -2.3141    1.4048 F   0  0  0  0  0  0  0  0  0  0  0  0
   -7.5599   -1.8081    2.6583 F   0  0  0  0  0  0  0  0  0  0  0  0
   -4.5389    0.6300   -1.4282 N   0  0  0  0  0  0  0  0  0  0  0  0
   -3.2769    0.5803   -1.1288 O   0  0  0  0  0  0  0  0  0  0  0  0
   -1.0902    1.0217    1.0144 C   0  0  0  0  0  0  0  0  0  0  0  0
   -0.1951    1.3909   -0.1499 C   0  0  0  0  0  0  0  0  0  0  0  0
    2.9554   -1.2124   -0.4429 H   0  0  0  0  0  0  0  0  0  0  0  0
    4.8026    1.2403   -0.8901 H   0  0  0  0  0  0  0  0  0  0  0  0
    6.2197   -0.1904   -2.3392 H   0  0  0  0  0  0  0  0  0  0  0  0
    5.0693   -1.6155   -2.1618 H   0  0  0  0  0  0  0  0  0  0  0  0
    5.4463   -1.4691    0.4335 H   0  0  0  0  0  0  0  0  0  0  0  0
    6.9377    1.4589   -1.3701 H   0  0  0  0  0  0  0  0  0  0  0  0
    9.0431    2.6118   -0.6321 H   0  0  0  0  0  0  0  0  0  0  0  0
   10.2052    1.7764    1.3856 H   0  0  0  0  0  0  0  0  0  0  0  0
    9.2966   -0.1513    2.6320 H   0  0  0  0  0  0  0  0  0  0  0  0
    7.2738   -1.2316    1.8920 H   0  0  0  0  0  0  0  0  0  0  0  0
    0.8442   -1.3784    0.8983 H   0  0  0  0  0  0  0  0  0  0  0  0
    1.0002   -1.5023   -0.9426 H   0  0  0  0  0  0  0  0  0  0  0  0
   -1.2157   -2.2395   -0.0616 H   0  0  0  0  0  0  0  0  0  0  0  0
   -1.2695   -0.9392   -1.2655 H   0  0  0  0  0  0  0  0  0  0  0  0
   -1.9435   -0.8148    1.6311 H   0  0  0  0  0  0  0  0  0  0  0  0
   -6.9532    0.8454   -2.2815 H   0  0  0  0  0  0  0  0  0  0  0  0
   -9.4614    0.6150   -2.3116 H   0  0  0  0  0  0  0  0  0  0  0  0
  -10.6005   -0.4859   -0.4672 H   0  0  0  0  0  0  0  0  0  0  0  0
   -9.3122   -1.3628    1.4041 H   0  0  0  0  0  0  0  0  0  0  0  0
   -0.5306    0.9605    1.9716 H   0  0  0  0  0  0  0  0  0  0  0  0
   -1.8813    1.7930    1.1271 H   0  0  0  0  0  0  0  0  0  0  0  0
   -0.8535    1.3374   -1.0637 H   0  0  0  0  0  0  0  0  0  0  0  0
    0.1747    2.4356   -0.0958 H   0  0  0  0  0  0  0  0  0  0  0  0
  1  2  2  0
  2  3  1  0
  3  4  1  0
  4  5  1  0
  5  6  1  0
  6  7  1  0
  7  8  2  0
  8  9  1  0
  9 10  2  0
 10 11  1  0
 11 12  2  0
  2 13  1  0
 13 14  1  0
 14 15  1  0
 15 16  1  0
 16 17  1  0
 17 18  2  0
 18 19  1  0
 19 20  1  0
 20 21  2  0
 21 22  1  0
 22 23  2  0
 23 24  1  0
 24 25  2  0
 25 26  1  0
 26 27  1  0
 26 28  1  0
 26 29  1  0
 19 30  2  0
 30 31  1  0
 16 32  1  0
 32 33  1  0
  6  4  1  0
 12  7  1  0
 33 13  1  0
 31 17  1  0
 25 20  1  0
  3 34  1  0
  4 35  1  0
  5 36  1  0
  5 37  1  0
  6 38  1  0
  8 39  1  0
  9 40  1  0
 10 41  1  0
 11 42  1  0
 12 43  1  0
 14 44  1  0
 14 45  1  0
 15 46  1  0
 15 47  1  0
 16 48  1  0
 21 49  1  0
 22 50  1  0
 23 51  1  0
 24 52  1  0
 32 53  1  0
 32 54  1  0
 33 55  1  0
 33 56  1  0
M  END
$$$$
