@<TRIPOS>MOLECULE
*****
 56 60 0 0 0
SMALL
GASTEIGER

@<TRIPOS>ATOM
      1 O           2.4819    1.9892   -0.6022 O.2     1  UNL1       -0.2526
      2 C           2.2214    0.7667   -0.4731 C.2     1  UNL1        0.3024
      3 N           3.2397   -0.2173   -0.5591 N.am    1  UNL1       -0.2958
      4 C           4.6158    0.1367   -0.7975 C.3     1  UNL1        0.0320
      5 C           5.4713   -0.6849   -1.6882 C.3     1  UNL1       -0.0254
      6 C           5.7432   -0.6341   -0.2190 C.3     1  UNL1        0.0043
      7 C           6.9865    0.0616    0.2040 C.ar    1  UNL1       -0.0425
      8 C           7.4949    1.1420   -0.4947 C.ar    1  UNL1       -0.0582
      9 C           8.6475    1.7705   -0.0872 C.ar    1  UNL1       -0.0615
     10 C           9.2964    1.3051    1.0383 C.ar    1  UNL1       -0.0617
     11 C           8.7998    0.2289    1.7441 C.ar    1  UNL1       -0.0615
     12 C           7.6563   -0.3797    1.3232 C.ar    1  UNL1       -0.0582
     13 N           0.8583    0.4258   -0.2376 N.am    1  UNL1       -0.2856
     14 C           0.5254   -0.9666   -0.0812 C.3     1  UNL1        0.0168
     15 C          -0.9487   -1.1730   -0.2090 C.3     1  UNL1       -0.0257
     16 C          -1.7794   -0.2832    0.6782 C.3     1  UNL1        0.0410
     17 C          -3.0993   -0.0384    0.0170 C.ar    1  UNL1        0.2309
     18 N          -4.3364   -0.3788    0.4256 N.ar    1  UNL1       -0.1911
     19 C          -5.2581    0.0234   -0.4534 C.ar    1  UNL1        0.2026
     20 C          -6.7102   -0.1300   -0.4183 C.ar    1  UNL1        0.0341
     21 C          -7.4836    0.3633   -1.4798 C.ar    1  UNL1       -0.0504
     22 C          -8.8561    0.2304   -1.4834 C.ar    1  UNL1       -0.0611
     23 C          -9.5286   -0.3823   -0.4639 C.ar    1  UNL1       -0.0612
     24 C          -8.7841   -0.8700    0.5824 C.ar    1  UNL1       -0.0494
     25 C          -7.3996   -0.7449    0.6030 C.ar    1  UNL1        0.0656
     26 C          -6.6540   -1.2790    1.7650 C.3     1  UNL1        0.4181
     27 F          -5.9763   -0.2631    2.4196 F       1  UNL1       -0.1659
     28 F          -5.8102   -2.3141    1.4048 F       1  UNL1       -0.1659
     29 F          -7.5599   -1.8081    2.6583 F       1  UNL1       -0.1659
     30 N          -4.5389    0.6300   -1.4282 N.ar    1  UNL1       -0.0561
     31 O          -3.2769    0.5803   -1.1288 O.2     1  UNL1       -0.3374
     32 C          -1.0902    1.0217    1.0144 C.3     1  UNL1       -0.0257
     33 C          -0.1951    1.3909   -0.1499 C.3     1  UNL1        0.0168
     34 H           2.9554   -1.2124   -0.4429 H       1  UNL1        0.1505
     35 H           4.8026    1.2403   -0.8901 H       1  UNL1        0.0505
     36 H           6.2197   -0.1904   -2.3392 H       1  UNL1        0.0290
     37 H           5.0693   -1.6155   -2.1618 H       1  UNL1        0.0290
     38 H           5.4463   -1.4691    0.4335 H       1  UNL1        0.0367
     39 H           6.9377    1.4589   -1.3701 H       1  UNL1        0.0620
     40 H           9.0431    2.6118   -0.6321 H       1  UNL1        0.0618
     41 H          10.2052    1.7764    1.3856 H       1  UNL1        0.0618
     42 H           9.2966   -0.1513    2.6320 H       1  UNL1        0.0618
     43 H           7.2738   -1.2316    1.8920 H       1  UNL1        0.0620
     44 H           0.8442   -1.3784    0.8983 H       1  UNL1        0.0465
     45 H           1.0002   -1.5023   -0.9426 H       1  UNL1        0.0465
     46 H          -1.2157   -2.2395   -0.0616 H       1  UNL1        0.0288
     47 H          -1.2695   -0.9392   -1.2655 H       1  UNL1        0.0288
     48 H          -1.9435   -0.8148    1.6311 H       1  UNL1        0.0397
     49 H          -6.9532    0.8454   -2.2815 H       1  UNL1        0.0625
     50 H          -9.4614    0.6150   -2.3116 H       1  UNL1        0.0618
     51 H         -10.6005   -0.4859   -0.4672 H       1  UNL1        0.0618
     52 H          -9.3122   -1.3628    1.4041 H       1  UNL1        0.0623
     53 H          -0.5306    0.9605    1.9716 H       1  UNL1        0.0288
     54 H          -1.8813    1.7930    1.1271 H       1  UNL1        0.0288
     55 H          -0.8535    1.3374   -1.0637 H       1  UNL1        0.0465
     56 H           0.1747    2.4356   -0.0958 H       1  UNL1        0.0465
@<TRIPOS>BOND
     1     1     2    2
     2     2     3   am
     3     3     4    1
     4     4     5    1
     5     5     6    1
     6     6     7    1
     7     7     8   ar
     8     8     9   ar
     9     9    10   ar
    10    10    11   ar
    11    11    12   ar
    12     2    13   am
    13    13    14    1
    14    14    15    1
    15    15    16    1
    16    16    17    1
    17    17    18   ar
    18    18    19   ar
    19    19    20    1
    20    20    21   ar
    21    21    22   ar
    22    22    23   ar
    23    23    24   ar
    24    24    25   ar
    25    25    26    1
    26    26    27    1
    27    26    28    1
    28    26    29    1
    29    19    30   ar
    30    30    31   ar
    31    16    32    1
    32    32    33    1
    33     6     4    1
    34    12     7   ar
    35    33    13    1
    36    31    17   ar
    37    25    20   ar
    38     3    34    1
    39     4    35    1
    40     5    36    1
    41     5    37    1
    42     6    38    1
    43     8    39    1
    44     9    40    1
    45    10    41    1
    46    11    42    1
    47    12    43    1
    48    14    44    1
    49    14    45    1
    50    15    46    1
    51    15    47    1
    52    16    48    1
    53    21    49    1
    54    22    50    1
    55    23    51    1
    56    24    52    1
    57    32    53    1
    58    32    54    1
    59    33    55    1
    60    33    56    1
