
     RDKit          3D

 53 58  0  0  0  0  0  0  0  0999 V2000
    3.6379    0.4646    3.4518 C   0  0  0  0  0  0  0  0  0  0  0  0
    4.2980   -0.2761    2.4300 O   0  0  0  0  0  0  0  0  0  0  0  0
    3.5325   -0.7438    1.3579 C   0  0  0  0  0  0  0  0  0  0  0  0
    2.1571   -0.4895    1.2938 C   0  0  0  0  0  0  0  0  0  0  0  0
    1.4226   -0.9603    0.2270 C   0  0  0  0  0  0  0  0  0  0  0  0
    0.0171   -0.6915    0.1621 N   0  0  0  0  0  0  0  0  0  0  0  0
   -0.9045   -1.1326   -0.8204 C   0  0  0  0  0  0  0  0  0  0  0  0
   -0.6741   -1.8336   -1.8576 O   0  0  0  0  0  0  0  0  0  0  0  0
   -2.2680   -0.6757   -0.5191 C   0  0  0  0  0  0  0  0  0  0  0  0
   -3.5841   -0.6983   -0.9307 C   0  0  0  0  0  0  0  0  0  0  0  0
   -4.1528   -1.3582   -2.1355 C   0  0  0  0  0  0  0  0  0  0  0  0
   -4.2321   -0.5899   -3.4132 C   0  0  0  0  0  0  0  0  0  0  0  0
   -5.4708   -0.9624   -2.6620 C   0  0  0  0  0  0  0  0  0  0  0  0
   -4.2313    0.0160    0.0126 N   0  0  0  0  0  0  0  0  0  0  0  0
   -3.4107    0.4471    0.9273 N   0  0  0  0  0  0  0  0  0  0  0  0
   -3.7112    1.2556    2.1188 C   0  0  0  0  0  0  0  0  0  0  0  0
   -2.1589    0.0394    0.6397 C   0  0  0  0  0  0  0  0  0  0  0  0
   -0.7516    0.1018    1.1072 C   0  0  0  0  0  0  0  0  0  0  0  0
   -0.2692    1.5211    0.9580 C   0  0  0  0  0  0  0  0  0  0  0  0
   -0.0622    2.3099    2.0646 C   0  0  0  0  0  0  0  0  0  0  0  0
    0.3821    3.6148    1.9120 C   0  0  0  0  0  0  0  0  0  0  0  0
    0.6277    4.1592    0.6734 C   0  0  0  0  0  0  0  0  0  0  0  0
    1.1922    5.8283    0.5522 Cl  0  0  0  0  0  0  0  0  0  0  0  0
    0.4231    3.3770   -0.4376 C   0  0  0  0  0  0  0  0  0  0  0  0
   -0.0190    2.0801   -0.2758 C   0  0  0  0  0  0  0  0  0  0  0  0
    2.0665   -1.6732   -0.7531 C   0  0  0  0  0  0  0  0  0  0  0  0
    3.4219   -1.9336   -0.7065 C   0  0  0  0  0  0  0  0  0  0  0  0
    4.1627   -1.4613    0.3648 C   0  0  0  0  0  0  0  0  0  0  0  0
    5.4274   -1.8743    0.1190 N   0  0  0  0  0  0  0  0  0  0  0  0
    5.4353   -2.5456   -1.0204 N   0  0  0  0  0  0  0  0  0  0  0  0
    4.2233   -2.5997   -1.5502 N   0  0  0  0  0  0  0  0  0  0  0  0
    3.8271   -3.2508   -2.8010 C   0  0  0  0  0  0  0  0  0  0  0  0
    3.1161    1.3454    3.0261 H   0  0  0  0  0  0  0  0  0  0  0  0
    4.4265    0.7756    4.1677 H   0  0  0  0  0  0  0  0  0  0  0  0
    2.9524   -0.2127    3.9969 H   0  0  0  0  0  0  0  0  0  0  0  0
    1.7248    0.0802    2.1166 H   0  0  0  0  0  0  0  0  0  0  0  0
   -3.8744   -2.4403   -2.2815 H   0  0  0  0  0  0  0  0  0  0  0  0
   -3.8630    0.4637   -3.3539 H   0  0  0  0  0  0  0  0  0  0  0  0
   -4.0349   -1.1033   -4.3738 H   0  0  0  0  0  0  0  0  0  0  0  0
   -6.1352   -1.7568   -3.0872 H   0  0  0  0  0  0  0  0  0  0  0  0
   -6.0686   -0.1335   -2.2182 H   0  0  0  0  0  0  0  0  0  0  0  0
   -2.9919    1.0148    2.9157 H   0  0  0  0  0  0  0  0  0  0  0  0
   -4.7563    1.0706    2.3784 H   0  0  0  0  0  0  0  0  0  0  0  0
   -3.5512    2.3225    1.8208 H   0  0  0  0  0  0  0  0  0  0  0  0
   -0.6274   -0.2155    2.1445 H   0  0  0  0  0  0  0  0  0  0  0  0
   -0.2388    1.9383    3.0836 H   0  0  0  0  0  0  0  0  0  0  0  0
    0.5462    4.2416    2.8000 H   0  0  0  0  0  0  0  0  0  0  0  0
    0.6074    3.7777   -1.4189 H   0  0  0  0  0  0  0  0  0  0  0  0
   -0.1680    1.4937   -1.1931 H   0  0  0  0  0  0  0  0  0  0  0  0
    1.5476   -2.0682   -1.6140 H   0  0  0  0  0  0  0  0  0  0  0  0
    3.1527   -2.5045   -3.3147 H   0  0  0  0  0  0  0  0  0  0  0  0
    4.6706   -3.4086   -3.4703 H   0  0  0  0  0  0  0  0  0  0  0  0
    3.2114   -4.1451   -2.6141 H   0  0  0  0  0  0  0  0  0  0  0  0
  1  2  1  0
  2  3  1  0
  3  4  2  0
  4  5  1  0
  5  6  1  0
  6  7  1  0
  7  8  2  0
  7  9  1  0
  9 10  1  0
 10 11  1  0
 11 12  1  0
 12 13  1  0
 10 14  2  0
 14 15  1  0
 15 16  1  0
 15 17  1  0
 17 18  1  0
 18 19  1  0
 19 20  2  0
 20 21  1  0
 21 22  2  0
 22 23  1  0
 22 24  1  0
 24 25  2  0
  5 26  2  0
 26 27  1  0
 27 28  2  0
 28 29  1  0
 29 30  2  0
 30 31  1  0
 31 32  1  0
 28  3  1  0
 18  6  1  0
 25 19  1  0
 31 27  1  0
 17  9  2  0
 13 11  1  0
  1 33  1  0
  1 34  1  0
  1 35  1  0
  4 36  1  0
 11 37  1  0
 12 38  1  0
 12 39  1  0
 13 40  1  0
 13 41  1  0
 16 42  1  0
 16 43  1  0
 16 44  1  0
 18 45  1  0
 20 46  1  0
 21 47  1  0
 24 48  1  0
 25 49  1  0
 26 50  1  0
 32 51  1  0
 32 52  1  0
 32 53  1  0
M  END
$$$$
