@<TRIPOS>MOLECULE
*****
 53 58 0 0 0
SMALL
GASTEIGER

@<TRIPOS>ATOM
      1 C           3.6379    0.4646    3.4518 C.3     1  UNL1        0.0789
      2 O           4.2980   -0.2761    2.4300 O.3     1  UNL1       -0.4928
      3 C           3.5325   -0.7438    1.3579 C.ar    1  UNL1        0.1510
      4 C           2.1571   -0.4895    1.2938 C.ar    1  UNL1        0.0038
      5 C           1.4226   -0.9603    0.2270 C.ar    1  UNL1        0.0432
      6 N           0.0171   -0.6915    0.1621 N.am    1  UNL1       -0.2541
      7 C          -0.9045   -1.1326   -0.8204 C.2     1  UNL1        0.2553
      8 O          -0.6741   -1.8336   -1.8576 O.2     1  UNL1       -0.2695
      9 C          -2.2680   -0.6757   -0.5191 C.ar    1  UNL1        0.0834
     10 C          -3.5841   -0.6983   -0.9307 C.ar    1  UNL1        0.0785
     11 C          -4.1528   -1.3582   -2.1355 C.3     1  UNL1        0.0039
     12 C          -4.2321   -0.5899   -3.4132 C.3     1  UNL1       -0.0441
     13 C          -5.4708   -0.9624   -2.6620 C.3     1  UNL1       -0.0441
     14 N          -4.2313    0.0160    0.0126 N.ar    1  UNL1       -0.1751
     15 N          -3.4107    0.4471    0.9273 N.ar    1  UNL1       -0.2682
     16 C          -3.7112    1.2556    2.1188 C.3     1  UNL1        0.0306
     17 C          -2.1589    0.0394    0.6397 C.ar    1  UNL1        0.0765
     18 C          -0.7516    0.1018    1.1072 C.3     1  UNL1        0.0988
     19 C          -0.2692    1.5211    0.9580 C.ar    1  UNL1       -0.0207
     20 C          -0.0622    2.3099    2.0646 C.ar    1  UNL1       -0.0550
     21 C           0.3821    3.6148    1.9120 C.ar    1  UNL1       -0.0431
     22 C           0.6277    4.1592    0.6734 C.ar    1  UNL1        0.0410
     23 CL          1.1922    5.8283    0.5522 Cl      1  UNL1       -0.0835
     24 C           0.4231    3.3770   -0.4376 C.ar    1  UNL1       -0.0431
     25 C          -0.0190    2.0801   -0.2758 C.ar    1  UNL1       -0.0550
     26 C           2.0665   -1.6732   -0.7531 C.ar    1  UNL1       -0.0128
     27 C           3.4219   -1.9336   -0.7065 C.ar    1  UNL1        0.0940
     28 C           4.1627   -1.4613    0.3648 C.ar    1  UNL1        0.1542
     29 N           5.4274   -1.8743    0.1190 N.ar    1  UNL1       -0.1258
     30 N           5.4353   -2.5456   -1.0204 N.ar    1  UNL1       -0.0647
     31 N           4.2233   -2.5997   -1.5502 N.ar    1  UNL1       -0.2468
     32 C           3.8271   -3.2508   -2.8010 C.3     1  UNL1        0.0325
     33 H           3.1161    1.3454    3.0261 H       1  UNL1        0.0660
     34 H           4.4265    0.7756    4.1677 H       1  UNL1        0.0660
     35 H           2.9524   -0.2127    3.9969 H       1  UNL1        0.0660
     36 H           1.7248    0.0802    2.1166 H       1  UNL1        0.0673
     37 H          -3.8744   -2.4403   -2.2815 H       1  UNL1        0.0365
     38 H          -3.8630    0.4637   -3.3539 H       1  UNL1        0.0272
     39 H          -4.0349   -1.1033   -4.3738 H       1  UNL1        0.0272
     40 H          -6.1352   -1.7568   -3.0872 H       1  UNL1        0.0272
     41 H          -6.0686   -0.1335   -2.2182 H       1  UNL1        0.0272
     42 H          -2.9919    1.0148    2.9157 H       1  UNL1        0.0473
     43 H          -4.7563    1.0706    2.3784 H       1  UNL1        0.0473
     44 H          -3.5512    2.3225    1.8208 H       1  UNL1        0.0473
     45 H          -0.6274   -0.2155    2.1445 H       1  UNL1        0.0620
     46 H          -0.2388    1.9383    3.0836 H       1  UNL1        0.0621
     47 H           0.5462    4.2416    2.8000 H       1  UNL1        0.0632
     48 H           0.6074    3.7777   -1.4189 H       1  UNL1        0.0632
     49 H          -0.1680    1.4937   -1.1931 H       1  UNL1        0.0621
     50 H           1.5476   -2.0682   -1.6140 H       1  UNL1        0.0658
     51 H           3.1527   -2.5045   -3.3147 H       1  UNL1        0.0473
     52 H           4.6706   -3.4086   -3.4703 H       1  UNL1        0.0473
     53 H           3.2114   -4.1451   -2.6141 H       1  UNL1        0.0473
@<TRIPOS>BOND
     1     1     2    1
     2     2     3    1
     3     3     4   ar
     4     4     5   ar
     5     5     6    1
     6     6     7   am
     7     7     8    2
     8     7     9    1
     9     9    10   ar
    10    10    11    1
    11    11    12    1
    12    12    13    1
    13    10    14   ar
    14    14    15   ar
    15    15    16    1
    16    15    17   ar
    17    17    18    1
    18    18    19    1
    19    19    20   ar
    20    20    21   ar
    21    21    22   ar
    22    22    23    1
    23    22    24   ar
    24    24    25   ar
    25     5    26   ar
    26    26    27   ar
    27    27    28   ar
    28    28    29   ar
    29    29    30   ar
    30    30    31   ar
    31    31    32    1
    32    28     3   ar
    33    18     6    1
    34    25    19   ar
    35    31    27   ar
    36    17     9   ar
    37    13    11    1
    38     1    33    1
    39     1    34    1
    40     1    35    1
    41     4    36    1
    42    11    37    1
    43    12    38    1
    44    12    39    1
    45    13    40    1
    46    13    41    1
    47    16    42    1
    48    16    43    1
    49    16    44    1
    50    18    45    1
    51    20    46    1
    52    21    47    1
    53    24    48    1
    54    25    49    1
    55    26    50    1
    56    32    51    1
    57    32    52    1
    58    32    53    1
