
     RDKit          3D

 33 35  0  0  0  0  0  0  0  0999 V2000
   -3.6149   -0.9263    1.0578 C   0  0  0  0  0  0  0  0  0  0  0  0
   -2.4511   -1.0566    0.2323 N   0  0  0  0  0  0  0  0  0  0  0  0
   -1.8837    0.2288   -0.1224 C   0  0  0  0  0  0  0  0  0  0  0  0
   -0.5416    0.4750   -0.4467 C   0  0  0  0  0  0  0  0  0  0  0  0
   -0.0513    1.7051   -0.8521 C   0  0  0  0  0  0  0  0  0  0  0  0
   -0.9998    2.7049   -0.9108 C   0  0  0  0  0  0  0  0  0  0  0  0
   -0.4246    4.2767   -1.4127 Cl  0  0  0  0  0  0  0  0  0  0  0  0
   -2.3258    2.4999   -0.5957 C   0  0  0  0  0  0  0  0  0  0  0  0
   -2.8086    1.2759   -0.1974 C   0  0  0  0  0  0  0  0  0  0  0  0
    0.5746   -0.4945   -0.3717 C   0  0  0  0  0  0  0  0  0  0  0  0
    0.4524   -1.7477   -0.6934 N   0  0  0  0  0  0  0  0  0  0  0  0
   -0.7018   -2.4911   -1.1672 C   0  0  0  0  0  0  0  0  0  0  0  0
   -1.8665   -2.2978   -0.2405 C   0  0  0  0  0  0  0  0  0  0  0  0
   -2.5400   -3.2509    0.2879 O   0  0  0  0  0  0  0  0  0  0  0  0
    1.8702   -0.0333    0.0785 C   0  0  0  0  0  0  0  0  0  0  0  0
    2.8768   -1.0003   -0.0850 C   0  0  0  0  0  0  0  0  0  0  0  0
    4.1840   -0.8571    0.3181 C   0  0  0  0  0  0  0  0  0  0  0  0
    4.5796    0.3094    0.9342 C   0  0  0  0  0  0  0  0  0  0  0  0
    3.6331    1.2824    1.1174 C   0  0  0  0  0  0  0  0  0  0  0  0
    2.3501    1.0632    0.6883 C   0  0  0  0  0  0  0  0  0  0  0  0
   -3.4918   -0.1583    1.8531 H   0  0  0  0  0  0  0  0  0  0  0  0
   -3.7059   -1.8835    1.6256 H   0  0  0  0  0  0  0  0  0  0  0  0
   -4.5755   -0.8548    0.5048 H   0  0  0  0  0  0  0  0  0  0  0  0
    0.9714    1.7992   -1.1230 H   0  0  0  0  0  0  0  0  0  0  0  0
   -3.0595    3.2819   -0.6422 H   0  0  0  0  0  0  0  0  0  0  0  0
   -3.8038    0.9767    0.0751 H   0  0  0  0  0  0  0  0  0  0  0  0
   -0.4233   -3.5575   -1.1044 H   0  0  0  0  0  0  0  0  0  0  0  0
   -0.9573   -2.2284   -2.2050 H   0  0  0  0  0  0  0  0  0  0  0  0
    2.7158   -1.9775   -0.5572 H   0  0  0  0  0  0  0  0  0  0  0  0
    4.9506   -1.6018    0.1898 H   0  0  0  0  0  0  0  0  0  0  0  0
    5.5754    0.5092    1.2801 H   0  0  0  0  0  0  0  0  0  0  0  0
    3.8700    2.2155    1.5898 H   0  0  0  0  0  0  0  0  0  0  0  0
    1.6230    1.8137    0.8950 H   0  0  0  0  0  0  0  0  0  0  0  0
  1  2  1  0
  2  3  1  0
  3  4  2  0
  4  5  1  0
  5  6  2  0
  6  7  1  0
  6  8  1  0
  8  9  2  0
  4 10  1  0
 10 11  2  0
 11 12  1  0
 12 13  1  0
 13 14  2  0
 10 15  1  0
 15 16  2  0
 16 17  1  0
 17 18  2  0
 18 19  1  0
 19 20  2  0
 13  2  1  0
 20 15  1  0
  9  3  1  0
  1 21  1  0
  1 22  1  0
  1 23  1  0
  5 24  1  0
  8 25  1  0
  9 26  1  0
 12 27  1  0
 12 28  1  0
 16 29  1  0
 17 30  1  0
 18 31  1  0
 19 32  1  0
 20 33  1  0
M  END
$$$$
