@<TRIPOS>MOLECULE
*****
 60 64 0 0 0
SMALL
GASTEIGER

@<TRIPOS>ATOM
      1 O           1.7287   -1.0891   -3.3893 O.2     1  UNL1       -0.2817
      2 C           2.2284   -1.2197   -2.2499 C.2     1  UNL1        0.2496
      3 C           3.5851   -1.6084   -1.8927 C.2     1  UNL1        0.2916
      4 O           4.5239   -1.8903   -2.6767 O.2     1  UNL1       -0.2661
      5 N           3.6872   -1.6203   -0.4765 N.am    1  UNL1       -0.2582
      6 C           4.8781   -1.9547    0.3229 C.3     1  UNL1        0.0656
      7 C           5.6571   -0.7395    0.5721 C.ar    1  UNL1        0.1004
      8 C           6.6623   -0.2447   -0.2201 C.ar    1  UNL1        0.0503
      9 N           7.0969    0.8735    0.3775 N.ar    1  UNL1       -0.2489
     10 C           8.1545    1.7061   -0.1310 C.3     1  UNL1        0.0714
     11 C           7.5772    2.7766   -1.0548 C.3     1  UNL1        0.1096
     12 F           8.6156    3.5652   -1.5312 F       1  UNL1       -0.2472
     13 N           6.4086    1.0922    1.4991 N.ar    1  UNL1       -0.0653
     14 N           5.5399    0.1105    1.6077 N.ar    1  UNL1       -0.1329
     15 C           2.4088   -1.2436    0.0139 C.ar    1  UNL1        0.0482
     16 C           1.9744   -1.1012    1.3383 C.ar    1  UNL1       -0.0377
     17 C           0.6692   -0.7199    1.5785 C.ar    1  UNL1       -0.0335
     18 C          -0.2380   -0.4697    0.5697 C.ar    1  UNL1        0.1063
     19 S          -1.9069    0.0144    0.9204 S.O2    1  UNL1        0.0612
     20 O          -1.8579    0.6806    2.2887 O.2     1  UNL1       -0.1528
     21 O          -2.2749    1.0429   -0.0651 O.2     1  UNL1       -0.1528
     22 N          -2.8592   -1.3690    0.9536 N.3     1  UNL1       -0.1703
     23 C          -2.4101   -2.2588    2.0056 C.3     1  UNL1        0.0210
     24 C          -3.6512   -2.6273    2.8000 C.3     1  UNL1       -0.0370
     25 C          -4.6105   -1.4675    2.4906 C.3     1  UNL1       -0.0313
     26 C          -4.2538   -1.2390    1.0422 C.3     1  UNL1        0.0659
     27 C          -4.8906    0.0018    0.5526 C.3     1  UNL1        0.1067
     28 O          -4.6760    0.2629   -0.8084 O.3     1  UNL1       -0.4904
     29 C          -5.1915    1.3727   -1.4454 C.ar    1  UNL1        0.1206
     30 C          -4.9628    1.5996   -2.7822 C.ar    1  UNL1       -0.0199
     31 C          -5.4579    2.6939   -3.4583 C.ar    1  UNL1       -0.0583
     32 C          -6.2286    3.6072   -2.7312 C.ar    1  UNL1       -0.0615
     33 C          -6.4776    3.4139   -1.3963 C.ar    1  UNL1       -0.0583
     34 C          -5.9611    2.3083   -0.7725 C.ar    1  UNL1       -0.0199
     35 C           0.1938   -0.6110   -0.7299 C.ar    1  UNL1       -0.0226
     36 C           1.5083   -0.9952   -0.9905 C.ar    1  UNL1        0.0502
     37 H           5.4436   -2.7759   -0.1211 H       1  UNL1        0.0534
     38 H           4.4743   -2.3364    1.2984 H       1  UNL1        0.0534
     39 H           7.0434   -0.6608   -1.1476 H       1  UNL1        0.0846
     40 H           8.8630    1.0709   -0.7129 H       1  UNL1        0.0535
     41 H           8.7130    2.1817    0.7015 H       1  UNL1        0.0535
     42 H           7.0254    2.2878   -1.8697 H       1  UNL1        0.0633
     43 H           6.8741    3.4014   -0.4672 H       1  UNL1        0.0633
     44 H           2.6875   -1.2981    2.1352 H       1  UNL1        0.0637
     45 H           0.3342   -0.6066    2.6015 H       1  UNL1        0.0638
     46 H          -1.7428   -1.7520    2.7422 H       1  UNL1        0.0444
     47 H          -1.9744   -3.1920    1.6337 H       1  UNL1        0.0444
     48 H          -3.4699   -2.7301    3.8692 H       1  UNL1        0.0279
     49 H          -4.1111   -3.5525    2.3922 H       1  UNL1        0.0279
     50 H          -5.6555   -1.7632    2.5904 H       1  UNL1        0.0282
     51 H          -4.3324   -0.5650    3.0661 H       1  UNL1        0.0282
     52 H          -4.7200   -2.0927    0.4647 H       1  UNL1        0.0513
     53 H          -6.0031   -0.1251    0.6788 H       1  UNL1        0.0713
     54 H          -4.6528    0.8987    1.1948 H       1  UNL1        0.0713
     55 H          -4.3666    0.8870   -3.3312 H       1  UNL1        0.0654
     56 H          -5.2745    2.8700   -4.5155 H       1  UNL1        0.0619
     57 H          -6.6301    4.4700   -3.2256 H       1  UNL1        0.0618
     58 H          -7.0716    4.1320   -0.8662 H       1  UNL1        0.0619
     59 H          -6.1556    2.1448    0.2970 H       1  UNL1        0.0654
     60 H          -0.4877   -0.4234   -1.5403 H       1  UNL1        0.0645
@<TRIPOS>BOND
     1     1     2    2
     2     2     3    1
     3     3     4    2
     4     3     5   am
     5     5     6    1
     6     6     7    1
     7     7     8   ar
     8     8     9   ar
     9     9    10    1
    10    10    11    1
    11    11    12    1
    12     9    13   ar
    13    13    14   ar
    14     5    15    1
    15    15    16   ar
    16    16    17   ar
    17    17    18   ar
    18    18    19    1
    19    19    20    2
    20    19    21    2
    21    19    22    1
    22    22    23    1
    23    23    24    1
    24    24    25    1
    25    25    26    1
    26    26    27    1
    27    27    28    1
    28    28    29    1
    29    29    30   ar
    30    30    31   ar
    31    31    32   ar
    32    32    33   ar
    33    33    34   ar
    34    18    35   ar
    35    35    36   ar
    36    36     2    1
    37    14     7   ar
    38    36    15   ar
    39    26    22    1
    40    34    29   ar
    41     6    37    1
    42     6    38    1
    43     8    39    1
    44    10    40    1
    45    10    41    1
    46    11    42    1
    47    11    43    1
    48    16    44    1
    49    17    45    1
    50    23    46    1
    51    23    47    1
    52    24    48    1
    53    24    49    1
    54    25    50    1
    55    25    51    1
    56    26    52    1
    57    27    53    1
    58    27    54    1
    59    30    55    1
    60    31    56    1
    61    32    57    1
    62    33    58    1
    63    34    59    1
    64    35    60    1
