@<TRIPOS>MOLECULE
*****
 28 30 0 0 0
SMALL
GASTEIGER

@<TRIPOS>ATOM
      1 O           5.2490    0.2676   -1.3589 O.2     1  UNL1       -0.2451
      2 C           4.9163   -0.0177   -0.1897 C.2     1  UNL1        0.3368
      3 O           5.9228   -0.2468    0.7286 O.3     1  UNL1       -0.4771
      4 C           3.5005   -0.1058    0.1930 C.ar    1  UNL1        0.0595
      5 C           3.2500   -0.4270    1.4982 C.ar    1  UNL1       -0.0467
      6 C           1.9146   -0.5085    1.8576 C.ar    1  UNL1       -0.0466
      7 C           0.9211   -0.2678    0.9051 C.ar    1  UNL1        0.0208
      8 S          -0.8453   -0.2807    0.9976 S.2     1  UNL1       -0.0903
      9 C          -1.1522    0.1410   -0.7017 C.ar    1  UNL1        0.0245
     10 C          -2.4551    0.3076   -1.3459 C.3     1  UNL1        0.0564
     11 N          -3.5267    0.0794   -0.4021 N.ar    1  UNL1       -0.3320
     12 C          -4.1268   -1.1029   -0.1401 C.ar    1  UNL1        0.0244
     13 C          -5.1044   -0.9114    0.8220 C.ar    1  UNL1        0.0454
     14 N          -5.0826    0.3816    1.1284 N.ar    1  UNL1       -0.2441
     15 C          -4.1297    0.9674    0.3859 C.ar    1  UNL1        0.0962
     16 C           0.1240    0.2621   -1.2211 C.ar    1  UNL1        0.0375
     17 BR          0.2712    0.7327   -3.1286 Br      1  UNL1       -0.0488
     18 C           1.1578    0.0504   -0.3879 C.ar    1  UNL1        0.0043
     19 C           2.5252    0.1265   -0.7257 C.ar    1  UNL1       -0.0385
     20 H           6.8510    0.1611    0.5880 H       1  UNL1        0.2954
     21 H           4.0040   -0.6141    2.2391 H       1  UNL1        0.0626
     22 H           1.5602   -0.7510    2.8468 H       1  UNL1        0.0629
     23 H          -2.4852    1.3149   -1.7950 H       1  UNL1        0.0547
     24 H          -2.5504   -0.4297   -2.1693 H       1  UNL1        0.0547
     25 H          -3.9055   -2.0587   -0.5885 H       1  UNL1        0.0825
     26 H          -5.7706   -1.6433    1.2596 H       1  UNL1        0.0845
     27 H          -3.8918    2.0200    0.4296 H       1  UNL1        0.1029
     28 H           2.8585    0.3716   -1.7252 H       1  UNL1        0.0632
@<TRIPOS>BOND
     1     1     2    2
     2     2     3    1
     3     2     4    1
     4     4     5   ar
     5     5     6   ar
     6     6     7   ar
     7     7     8   ar
     8     8     9   ar
     9     9    10    1
    10    10    11    1
    11    11    12   ar
    12    12    13   ar
    13    13    14   ar
    14    14    15   ar
    15     9    16   ar
    16    16    17    1
    17    16    18   ar
    18    18    19   ar
    19    19     4   ar
    20    18     7   ar
    21    15    11   ar
    22     3    20    1
    23     5    21    1
    24     6    22    1
    25    10    23    1
    26    10    24    1
    27    12    25    1
    28    13    26    1
    29    15    27    1
    30    19    28    1
