
     RDKit          3D

 28 30  0  0  0  0  0  0  0  0999 V2000
    5.2490    0.2676   -1.3589 O   0  0  0  0  0  0  0  0  0  0  0  0
    4.9163   -0.0177   -0.1897 C   0  0  0  0  0  0  0  0  0  0  0  0
    5.9228   -0.2468    0.7286 O   0  0  0  0  0  0  0  0  0  0  0  0
    3.5005   -0.1058    0.1930 C   0  0  0  0  0  0  0  0  0  0  0  0
    3.2500   -0.4270    1.4982 C   0  0  0  0  0  0  0  0  0  0  0  0
    1.9146   -0.5085    1.8576 C   0  0  0  0  0  0  0  0  0  0  0  0
    0.9211   -0.2678    0.9051 C   0  0  0  0  0  0  0  0  0  0  0  0
   -0.8453   -0.2807    0.9976 S   0  0  0  0  0  0  0  0  0  0  0  0
   -1.1522    0.1410   -0.7017 C   0  0  0  0  0  0  0  0  0  0  0  0
   -2.4551    0.3076   -1.3459 C   0  0  0  0  0  0  0  0  0  0  0  0
   -3.5267    0.0794   -0.4021 N   0  0  0  0  0  0  0  0  0  0  0  0
   -4.1268   -1.1029   -0.1401 C   0  0  0  0  0  0  0  0  0  0  0  0
   -5.1044   -0.9114    0.8220 C   0  0  0  0  0  0  0  0  0  0  0  0
   -5.0826    0.3816    1.1284 N   0  0  0  0  0  0  0  0  0  0  0  0
   -4.1297    0.9674    0.3859 C   0  0  0  0  0  0  0  0  0  0  0  0
    0.1240    0.2621   -1.2211 C   0  0  0  0  0  0  0  0  0  0  0  0
    0.2712    0.7327   -3.1286 Br  0  0  0  0  0  0  0  0  0  0  0  0
    1.1578    0.0504   -0.3879 C   0  0  0  0  0  0  0  0  0  0  0  0
    2.5252    0.1265   -0.7257 C   0  0  0  0  0  0  0  0  0  0  0  0
    6.8510    0.1611    0.5880 H   0  0  0  0  0  0  0  0  0  0  0  0
    4.0040   -0.6141    2.2391 H   0  0  0  0  0  0  0  0  0  0  0  0
    1.5602   -0.7510    2.8468 H   0  0  0  0  0  0  0  0  0  0  0  0
   -2.4852    1.3149   -1.7950 H   0  0  0  0  0  0  0  0  0  0  0  0
   -2.5504   -0.4297   -2.1693 H   0  0  0  0  0  0  0  0  0  0  0  0
   -3.9055   -2.0587   -0.5885 H   0  0  0  0  0  0  0  0  0  0  0  0
   -5.7706   -1.6433    1.2596 H   0  0  0  0  0  0  0  0  0  0  0  0
   -3.8918    2.0200    0.4296 H   0  0  0  0  0  0  0  0  0  0  0  0
    2.8585    0.3716   -1.7252 H   0  0  0  0  0  0  0  0  0  0  0  0
  1  2  2  0
  2  3  1  0
  2  4  1  0
  4  5  2  0
  5  6  1  0
  6  7  2  0
  7  8  1  0
  8  9  1  0
  9 10  1  0
 10 11  1  0
 11 12  1  0
 12 13  2  0
 13 14  1  0
 14 15  2  0
  9 16  2  0
 16 17  1  0
 16 18  1  0
 18 19  2  0
 19  4  1  0
 18  7  1  0
 15 11  1  0
  3 20  1  0
  5 21  1  0
  6 22  1  0
 10 23  1  0
 10 24  1  0
 12 25  1  0
 13 26  1  0
 15 27  1  0
 19 28  1  0
M  END
$$$$
