@<TRIPOS>MOLECULE
*****
 51 55 0 0 0
SMALL
GASTEIGER

@<TRIPOS>ATOM
      1 C           3.3943   -4.3108   -0.5936 C.3     1  UNL1       -0.0455
      2 C           3.0916   -3.7278    0.7893 C.3     1  UNL1        0.0396
      3 N           3.0663   -2.2850    0.6249 N.ar    1  UNL1       -0.2589
      4 N           4.0762   -1.4401    0.7407 N.ar    1  UNL1       -0.1755
      5 C           3.6709   -0.1815    0.5189 C.ar    1  UNL1        0.0660
      6 C           4.4714    1.0657    0.5492 C.3     1  UNL1       -0.0203
      7 C           2.2883   -0.2954    0.2463 C.ar    1  UNL1        0.0305
      8 C           1.9359   -1.6022    0.3161 C.ar    1  UNL1        0.1293
      9 C           0.5056   -1.6716    0.0118 C.2     1  UNL1        0.2700
     10 O          -0.1215   -2.8043    0.0051 O.2     1  UNL1       -0.2679
     11 N           0.0108   -0.3767   -0.2449 N.am    1  UNL1       -0.2530
     12 C          -1.3615   -0.0899   -0.6209 C.ar    1  UNL1        0.0545
     13 C          -1.7531    1.2057   -0.8763 C.ar    1  UNL1       -0.0324
     14 C          -3.0423    1.5335   -1.2344 C.ar    1  UNL1       -0.0041
     15 C          -3.4491    2.9457   -1.5074 C.3     1  UNL1       -0.0361
     16 C          -3.9711    0.5165   -1.3389 C.ar    1  UNL1        0.1641
     17 N          -5.2835    0.4640   -1.6563 N.ar    1  UNL1       -0.1292
     18 N          -5.7090   -0.7789   -1.6092 N.ar    1  UNL1       -0.1340
     19 C          -4.6652   -1.5681   -1.2550 C.ar    1  UNL1        0.1347
     20 C          -4.7019   -3.0397   -1.0841 C.3     1  UNL1       -0.0041
     21 N          -3.6079   -0.7555   -1.0935 N.ar    1  UNL1       -0.2846
     22 C          -2.3446   -1.0361   -0.7475 C.ar    1  UNL1        0.0344
     23 C           1.0932    0.4879   -0.0635 C.3     1  UNL1        0.0881
     24 C           0.9355    1.7120    0.6873 C.ar    1  UNL1        0.0131
     25 C           0.1610    1.7118    1.8109 C.ar    1  UNL1       -0.0523
     26 C           0.0130    2.8833    2.5554 C.ar    1  UNL1       -0.0429
     27 C           0.6435    4.0510    2.1688 C.ar    1  UNL1        0.0437
     28 CL          0.4494    5.5332    3.1212 Cl      1  UNL1       -0.0835
     29 C           1.4287    4.0657    1.0357 C.ar    1  UNL1       -0.0078
     30 C           1.5485    2.8702    0.3209 C.ar    1  UNL1        0.1300
     31 F           2.3391    2.9767   -0.8012 F       1  UNL1       -0.2051
     32 H           3.0479   -5.3526   -0.6477 H       1  UNL1        0.0247
     33 H           4.4974   -4.2061   -0.7230 H       1  UNL1        0.0247
     34 H           2.8564   -3.6711   -1.3230 H       1  UNL1        0.0247
     35 H           3.8594   -4.0460    1.5296 H       1  UNL1        0.0506
     36 H           2.0903   -4.0998    1.0645 H       1  UNL1        0.0506
     37 H           4.5694    1.4948   -0.4877 H       1  UNL1        0.0293
     38 H           5.5135    0.8783    0.8726 H       1  UNL1        0.0293
     39 H           4.0697    1.8118    1.2688 H       1  UNL1        0.0293
     40 H          -1.0356    1.9784   -0.7971 H       1  UNL1        0.0640
     41 H          -3.4985    3.4551   -0.5136 H       1  UNL1        0.0279
     42 H          -2.7125    3.4775   -2.1358 H       1  UNL1        0.0279
     43 H          -4.4532    2.9732   -1.9292 H       1  UNL1        0.0279
     44 H          -3.9047   -3.5340   -1.6898 H       1  UNL1        0.0308
     45 H          -5.6555   -3.4506   -1.4270 H       1  UNL1        0.0308
     46 H          -4.4945   -3.3095   -0.0322 H       1  UNL1        0.0308
     47 H          -2.1196   -2.0746   -0.5647 H       1  UNL1        0.0833
     48 H           1.2985    0.8689   -1.1376 H       1  UNL1        0.0607
     49 H          -0.3767    0.8478    2.2002 H       1  UNL1        0.0622
     50 H          -0.5880    2.9258    3.4467 H       1  UNL1        0.0632
     51 H           1.9242    4.9732    0.7272 H       1  UNL1        0.0661
@<TRIPOS>BOND
     1     1     2    1
     2     2     3    1
     3     3     4   ar
     4     4     5   ar
     5     5     6    1
     6     5     7   ar
     7     7     8   ar
     8     8     9    1
     9     9    10    2
    10     9    11   am
    11    11    12    1
    12    12    13   ar
    13    13    14   ar
    14    14    15    1
    15    14    16   ar
    16    16    17   ar
    17    17    18   ar
    18    18    19   ar
    19    19    20    1
    20    19    21   ar
    21    21    22   ar
    22    11    23    1
    23    23    24    1
    24    24    25   ar
    25    25    26   ar
    26    26    27   ar
    27    27    28    1
    28    27    29   ar
    29    29    30   ar
    30    30    31    1
    31     8     3   ar
    32    22    12   ar
    33    30    24   ar
    34    23     7    1
    35    21    16   ar
    36     1    32    1
    37     1    33    1
    38     1    34    1
    39     2    35    1
    40     2    36    1
    41     6    37    1
    42     6    38    1
    43     6    39    1
    44    13    40    1
    45    15    41    1
    46    15    42    1
    47    15    43    1
    48    20    44    1
    49    20    45    1
    50    20    46    1
    51    22    47    1
    52    23    48    1
    53    25    49    1
    54    26    50    1
    55    29    51    1
