@<TRIPOS>MOLECULE
*****
 29 28 0 0 0
SMALL
GASTEIGER

@<TRIPOS>ATOM
      1 O           4.2019    2.1177    0.5503 O.3     1  UNL1       -0.4806
      2 C           3.6510    1.1389   -0.2657 C.2     1  UNL1        0.3047
      3 O           3.9819    1.0177   -1.4942 O.2     1  UNL1       -0.2510
      4 C           2.6335    0.1888    0.3063 C.3     1  UNL1        0.0448
      5 C           2.1789   -0.7740   -0.7429 C.3     1  UNL1       -0.0430
      6 C           1.1467   -1.7436   -0.1769 C.3     1  UNL1       -0.0526
      7 C          -0.0651   -0.9914    0.3343 C.3     1  UNL1       -0.0530
      8 C          -0.6884   -0.2223   -0.7852 C.3     1  UNL1       -0.0526
      9 C          -1.9111    0.5686   -0.3856 C.3     1  UNL1       -0.0430
     10 C          -3.0072   -0.3233    0.1596 C.3     1  UNL1        0.0448
     11 C          -4.1999    0.4755    0.5468 C.2     1  UNL1        0.3047
     12 O          -4.2781    1.8561    0.4178 O.3     1  UNL1       -0.4806
     13 O          -5.2599   -0.0197    1.0309 O.2     1  UNL1       -0.2510
     14 H           5.1839    2.3620    0.3678 H       1  UNL1        0.2951
     15 H           3.1646   -0.3945    1.0832 H       1  UNL1        0.0377
     16 H           1.8422    0.7666    0.7869 H       1  UNL1        0.0377
     17 H           3.0734   -1.4016   -1.0119 H       1  UNL1        0.0270
     18 H           1.8321   -0.3218   -1.6832 H       1  UNL1        0.0270
     19 H           0.8063   -2.4359   -0.9666 H       1  UNL1        0.0265
     20 H           1.6251   -2.3481    0.6076 H       1  UNL1        0.0265
     21 H           0.1772   -0.3425    1.1944 H       1  UNL1        0.0265
     22 H          -0.7900   -1.7712    0.6794 H       1  UNL1        0.0265
     23 H          -0.8982   -0.9001   -1.6327 H       1  UNL1        0.0265
     24 H           0.0601    0.5308   -1.1423 H       1  UNL1        0.0265
     25 H          -2.2408    1.1261   -1.2807 H       1  UNL1        0.0270
     26 H          -1.6125    1.3198    0.3740 H       1  UNL1        0.0270
     27 H          -3.3075   -0.9845   -0.7040 H       1  UNL1        0.0377
     28 H          -2.6474   -0.9769    0.9630 H       1  UNL1        0.0377
     29 H          -4.6527    2.4829    1.1280 H       1  UNL1        0.2951
@<TRIPOS>BOND
     1     1     2    1
     2     2     3    2
     3     2     4    1
     4     4     5    1
     5     5     6    1
     6     6     7    1
     7     7     8    1
     8     8     9    1
     9     9    10    1
    10    10    11    1
    11    11    12    1
    12    11    13    2
    13     1    14    1
    14     4    15    1
    15     4    16    1
    16     5    17    1
    17     5    18    1
    18     6    19    1
    19     6    20    1
    20     7    21    1
    21     7    22    1
    22     8    23    1
    23     8    24    1
    24     9    25    1
    25     9    26    1
    26    10    27    1
    27    10    28    1
    28    12    29    1
