
     RDKit          3D

 60 61  0  0  0  0  0  0  0  0999 V2000
   -6.5402    0.6233   -1.3178 C   0  0  0  0  0  0  0  0  0  0  0  0
   -6.6588   -0.5001   -0.2915 C   0  0  0  0  0  0  0  0  0  0  0  0
   -6.6907   -1.8065   -1.0816 C   0  0  0  0  0  0  0  0  0  0  0  0
   -7.8816   -0.2847    0.4072 N   0  0  0  0  0  0  0  0  0  0  0  0
   -7.9903   -0.0851    1.6635 C   0  0  0  0  0  0  0  0  0  0  0  0
   -9.3170    0.1149    2.2005 N   0  0  0  0  0  0  0  0  0  0  0  0
   -6.8606   -0.0553    2.5211 N   0  0  0  0  0  0  0  0  0  0  0  0
   -5.6983   -0.2392    1.9828 C   0  0  0  0  0  0  0  0  0  0  0  0
   -4.5136   -0.2237    2.7815 N   0  0  0  0  0  0  0  0  0  0  0  0
   -5.5321   -0.4608    0.5980 N   0  0  0  0  0  0  0  0  0  0  0  0
   -4.2523   -0.6437    0.1131 O   0  0  0  0  0  0  0  0  0  0  0  0
   -3.5506    0.5325    0.0169 C   0  0  0  0  0  0  0  0  0  0  0  0
   -2.1508    0.2137   -0.5354 C   0  0  0  0  0  0  0  0  0  0  0  0
   -1.3921    1.5092   -0.6360 C   0  0  0  0  0  0  0  0  0  0  0  0
   -0.1034    1.4399   -1.1123 O   0  0  0  0  0  0  0  0  0  0  0  0
    1.0115    0.8291   -0.6059 C   0  0  0  0  0  0  0  0  0  0  0  0
    1.0724    0.1359    0.5779 C   0  0  0  0  0  0  0  0  0  0  0  0
    2.2376   -0.4398    0.9910 C   0  0  0  0  0  0  0  0  0  0  0  0
    3.4334   -0.3700    0.2588 C   0  0  0  0  0  0  0  0  0  0  0  0
    4.5386   -1.0936    0.8010 C   0  0  0  0  0  0  0  0  0  0  0  0
    4.2594   -2.0358    1.6769 O   0  0  0  0  0  0  0  0  0  0  0  0
    5.9270   -0.9443    0.5335 C   0  0  0  0  0  0  0  0  0  0  0  0
    6.5163   -0.0674   -0.2047 C   0  0  0  0  0  0  0  0  0  0  0  0
    7.9850   -0.0420   -0.3951 C   0  0  0  0  0  0  0  0  0  0  0  0
    8.5183    0.9570   -1.2222 C   0  0  0  0  0  0  0  0  0  0  0  0
    9.8708    1.0153   -1.4239 C   0  0  0  0  0  0  0  0  0  0  0  0
   10.7326    0.1162   -0.8354 C   0  0  0  0  0  0  0  0  0  0  0  0
   10.2061   -0.8577   -0.0284 C   0  0  0  0  0  0  0  0  0  0  0  0
    8.8235   -0.9357    0.1920 C   0  0  0  0  0  0  0  0  0  0  0  0
    3.3605    0.3201   -0.9168 C   0  0  0  0  0  0  0  0  0  0  0  0
    2.1931    0.9151   -1.3608 C   0  0  0  0  0  0  0  0  0  0  0  0
    0.6843    0.0000    0.0000 Cl  0  0  0  0  0  0  0  0  0  0  0  0
   -6.3831    1.5782   -0.7787 H   0  0  0  0  0  0  0  0  0  0  0  0
   -5.7326    0.4769   -2.0345 H   0  0  0  0  0  0  0  0  0  0  0  0
   -7.5128    0.7532   -1.8644 H   0  0  0  0  0  0  0  0  0  0  0  0
   -7.2793   -1.6397   -2.0204 H   0  0  0  0  0  0  0  0  0  0  0  0
   -5.6579   -2.0486   -1.3994 H   0  0  0  0  0  0  0  0  0  0  0  0
   -7.1781   -2.6136   -0.5351 H   0  0  0  0  0  0  0  0  0  0  0  0
   -9.4178    0.8944    2.8813 H   0  0  0  0  0  0  0  0  0  0  0  0
  -10.1080   -0.4920    1.9124 H   0  0  0  0  0  0  0  0  0  0  0  0
   -3.8935   -1.0414    2.8195 H   0  0  0  0  0  0  0  0  0  0  0  0
   -4.2962    0.6255    3.3176 H   0  0  0  0  0  0  0  0  0  0  0  0
   -4.0110    1.3151   -0.5984 H   0  0  0  0  0  0  0  0  0  0  0  0
   -3.3551    0.9055    1.0525 H   0  0  0  0  0  0  0  0  0  0  0  0
   -1.6909   -0.5234    0.1213 H   0  0  0  0  0  0  0  0  0  0  0  0
   -2.2962   -0.2464   -1.5613 H   0  0  0  0  0  0  0  0  0  0  0  0
   -1.4227    2.0294    0.3567 H   0  0  0  0  0  0  0  0  0  0  0  0
   -1.9787    2.1228   -1.3925 H   0  0  0  0  0  0  0  0  0  0  0  0
    0.2076    0.0605    1.1904 H   0  0  0  0  0  0  0  0  0  0  0  0
    2.2108   -0.9661    1.9317 H   0  0  0  0  0  0  0  0  0  0  0  0
    6.6307   -1.6797    1.0178 H   0  0  0  0  0  0  0  0  0  0  0  0
    5.9447    0.7236   -0.6800 H   0  0  0  0  0  0  0  0  0  0  0  0
    7.8556    1.6694   -1.6909 H   0  0  0  0  0  0  0  0  0  0  0  0
   10.3035    1.7949   -2.0714 H   0  0  0  0  0  0  0  0  0  0  0  0
   11.8150    0.1587   -0.9938 H   0  0  0  0  0  0  0  0  0  0  0  0
   10.8673   -1.5891    0.4550 H   0  0  0  0  0  0  0  0  0  0  0  0
    8.4697   -1.7428    0.8514 H   0  0  0  0  0  0  0  0  0  0  0  0
    4.2105    0.3783   -1.5656 H   0  0  0  0  0  0  0  0  0  0  0  0
    2.1446    1.4593   -2.2884 H   0  0  0  0  0  0  0  0  0  0  0  0
   -0.6843    0.0000    0.0000 H   0  0  0  0  0  0  0  0  0  0  0  0
  1  2  1  0
  2  3  1  0
  2  4  1  0
  4  5  2  0
  5  6  1  0
  5  7  1  0
  7  8  2  0
  8  9  1  0
  8 10  1  0
 10 11  1  0
 11 12  1  0
 12 13  1  0
 13 14  1  0
 14 15  1  0
 15 16  1  0
 16 17  2  0
 17 18  1  0
 18 19  2  0
 19 20  1  0
 20 21  2  0
 20 22  1  0
 22 23  2  0
 23 24  1  0
 24 25  2  0
 25 26  1  0
 26 27  2  0
 27 28  1  0
 28 29  2  0
 19 30  1  0
 30 31  2  0
 10  2  1  0
 31 16  1  0
 29 24  1  0
  1 33  1  0
  1 34  1  0
  1 35  1  0
  3 36  1  0
  3 37  1  0
  3 38  1  0
  6 39  1  0
  6 40  1  0
  9 41  1  0
  9 42  1  0
 12 43  1  0
 12 44  1  0
 13 45  1  0
 13 46  1  0
 14 47  1  0
 14 48  1  0
 17 49  1  0
 18 50  1  0
 22 51  1  0
 23 52  1  0
 25 53  1  0
 26 54  1  0
 27 55  1  0
 28 56  1  0
 29 57  1  0
 30 58  1  0
 31 59  1  0
 32 60  1  0
M  END
$$$$
