@<TRIPOS>MOLECULE
*****
 60 61 0 0 0
SMALL
GASTEIGER

@<TRIPOS>ATOM
      1 C          -6.5402    0.6233   -1.3178 C.3     1  UNL1        0.0108
      2 C          -6.6588   -0.5001   -0.2915 C.3     1  UNL1        0.2648
      3 C          -6.6907   -1.8065   -1.0816 C.3     1  UNL1        0.0108
      4 N          -7.8816   -0.2847    0.4072 N.2     1  UNL1       -0.0662
      5 C          -7.9903   -0.0851    1.6635 C.cat   1  UNL1        0.4202
      6 N          -9.3170    0.1149    2.2005 N.pl3   1  UNL1       -0.2468
      7 N          -6.8606   -0.0553    2.5211 N.2     1  UNL1       -0.0050
      8 C          -5.6983   -0.2392    1.9828 C.2     1  UNL1        0.4149
      9 N          -4.5136   -0.2237    2.7815 N.pl3   1  UNL1       -0.2472
     10 N          -5.5321   -0.4608    0.5980 N.3     1  UNL1       -0.0841
     11 O          -4.2523   -0.6437    0.1131 O.3     1  UNL1       -0.2128
     12 C          -3.5506    0.5325    0.0169 C.3     1  UNL1        0.0932
     13 C          -2.1508    0.2137   -0.5354 C.3     1  UNL1        0.0086
     14 C          -1.3921    1.5092   -0.6360 C.3     1  UNL1        0.0918
     15 O          -0.1034    1.4399   -1.1123 O.3     1  UNL1       -0.4919
     16 C           1.0115    0.8291   -0.6059 C.ar    1  UNL1        0.1205
     17 C           1.0724    0.1359    0.5779 C.ar    1  UNL1       -0.0193
     18 C           2.2376   -0.4398    0.9910 C.ar    1  UNL1       -0.0475
     19 C           3.4334   -0.3700    0.2588 C.ar    1  UNL1        0.0219
     20 C           4.5386   -1.0936    0.8010 C.2     1  UNL1        0.1861
     21 O           4.2594   -2.0358    1.6769 O.2     1  UNL1       -0.2873
     22 C           5.9270   -0.9443    0.5335 C.2     1  UNL1       -0.0138
     23 C           6.5163   -0.0674   -0.2047 C.2     1  UNL1       -0.0510
     24 C           7.9850   -0.0420   -0.3951 C.ar    1  UNL1       -0.0249
     25 C           8.5183    0.9570   -1.2222 C.ar    1  UNL1       -0.0546
     26 C           9.8708    1.0153   -1.4239 C.ar    1  UNL1       -0.0612
     27 C          10.7326    0.1162   -0.8354 C.ar    1  UNL1       -0.0617
     28 C          10.2061   -0.8577   -0.0284 C.ar    1  UNL1       -0.0612
     29 C           8.8235   -0.9357    0.1920 C.ar    1  UNL1       -0.0546
     30 C           3.3605    0.3201   -0.9168 C.ar    1  UNL1       -0.0475
     31 C           2.1931    0.9151   -1.3608 C.ar    1  UNL1       -0.0193
     32 CL          0.6843    0.0000    0.0000 Cl      2  UNL2       -0.1454
     33 H          -6.3831    1.5782   -0.7787 H       1  UNL1        0.0301
     34 H          -5.7326    0.4769   -2.0345 H       1  UNL1        0.0301
     35 H          -7.5128    0.7532   -1.8644 H       1  UNL1        0.0301
     36 H          -7.2793   -1.6397   -2.0204 H       1  UNL1        0.0301
     37 H          -5.6579   -2.0486   -1.3994 H       1  UNL1        0.0301
     38 H          -7.1781   -2.6136   -0.5351 H       1  UNL1        0.0301
     39 H          -9.4178    0.8944    2.8813 H       1  UNL1        0.2415
     40 H         -10.1080   -0.4920    1.9124 H       1  UNL1        0.2415
     41 H          -3.8935   -1.0414    2.8195 H       1  UNL1        0.2414
     42 H          -4.2962    0.6255    3.3176 H       1  UNL1        0.2414
     43 H          -4.0110    1.3151   -0.5984 H       1  UNL1        0.0600
     44 H          -3.3551    0.9055    1.0525 H       1  UNL1        0.0600
     45 H          -1.6909   -0.5234    0.1213 H       1  UNL1        0.0321
     46 H          -2.2962   -0.2464   -1.5613 H       1  UNL1        0.0321
     47 H          -1.4227    2.0294    0.3567 H       1  UNL1        0.0697
     48 H          -1.9787    2.1228   -1.3925 H       1  UNL1        0.0697
     49 H           0.2076    0.0605    1.1904 H       1  UNL1        0.0654
     50 H           2.2108   -0.9661    1.9317 H       1  UNL1        0.0626
     51 H           6.6307   -1.6797    1.0178 H       1  UNL1        0.0656
     52 H           5.9447    0.7236   -0.6800 H       1  UNL1        0.0625
     53 H           7.8556    1.6694   -1.6909 H       1  UNL1        0.0623
     54 H          10.3035    1.7949   -2.0714 H       1  UNL1        0.0618
     55 H          11.8150    0.1587   -0.9938 H       1  UNL1        0.0618
     56 H          10.8673   -1.5891    0.4550 H       1  UNL1        0.0618
     57 H           8.4697   -1.7428    0.8514 H       1  UNL1        0.0623
     58 H           4.2105    0.3783   -1.5656 H       1  UNL1        0.0626
     59 H           2.1446    1.4593   -2.2884 H       1  UNL1        0.0654
     60 H          -0.6843    0.0000    0.0000 H       1  UNL1        0.1454
@<TRIPOS>BOND
     1     1     2    1
     2     2     3    1
     3     2     4    1
     4     4     5    2
     5     5     6    1
     6     5     7    1
     7     7     8    2
     8     8     9    1
     9     8    10    1
    10    10    11    1
    11    11    12    1
    12    12    13    1
    13    13    14    1
    14    14    15    1
    15    15    16    1
    16    16    17   ar
    17    17    18   ar
    18    18    19   ar
    19    19    20    1
    20    20    21    2
    21    20    22    1
    22    22    23    2
    23    23    24    1
    24    24    25   ar
    25    25    26   ar
    26    26    27   ar
    27    27    28   ar
    28    28    29   ar
    29    19    30   ar
    30    30    31   ar
    31    10     2    1
    32    31    16   ar
    33    29    24   ar
    34     1    33    1
    35     1    34    1
    36     1    35    1
    37     3    36    1
    38     3    37    1
    39     3    38    1
    40     6    39    1
    41     6    40    1
    42     9    41    1
    43     9    42    1
    44    12    43    1
    45    12    44    1
    46    13    45    1
    47    13    46    1
    48    14    47    1
    49    14    48    1
    50    17    49    1
    51    18    50    1
    52    22    51    1
    53    23    52    1
    54    25    53    1
    55    26    54    1
    56    27    55    1
    57    28    56    1
    58    29    57    1
    59    30    58    1
    60    31    59    1
    61    32    60    1
