@<TRIPOS>MOLECULE
*****
 46 48 0 0 0
SMALL
GASTEIGER

@<TRIPOS>ATOM
      1 C           7.7467   -0.4908    1.2337 C.3     1  UNL1        0.0788
      2 O           6.9262    0.2421    0.3453 O.3     1  UNL1       -0.4950
      3 C           5.5583    0.0385    0.4105 C.ar    1  UNL1        0.1221
      4 C           4.9861   -0.8330    1.2909 C.ar    1  UNL1       -0.0193
      5 C           3.6202   -1.0417    1.3620 C.ar    1  UNL1       -0.0491
      6 C           2.7949   -0.3412    0.5081 C.ar    1  UNL1        0.0012
      7 C           1.4435   -0.5424    0.5727 C.ar    1  UNL1       -0.0418
      8 C           0.5939    0.1298   -0.2545 C.ar    1  UNL1        0.0216
      9 C          -0.8467   -0.0280   -0.2846 C.ar    1  UNL1        0.1082
     10 N          -1.7026    1.0089   -0.2022 N.ar    1  UNL1       -0.1682
     11 N          -2.9568    0.6080   -0.2649 N.ar    1  UNL1       -0.2444
     12 C          -4.1658    1.4161   -0.2106 C.3     1  UNL1        0.0573
     13 C          -3.8320    2.7419    0.4744 C.3     1  UNL1       -0.0402
     14 C          -5.2586    0.7632    0.5828 C.3     1  UNL1       -0.0402
     15 C          -4.6588    1.7733   -1.5987 C.3     1  UNL1       -0.0402
     16 C          -2.9379   -0.7221   -0.3923 C.ar    1  UNL1        0.1279
     17 N          -4.0419   -1.6022   -0.4976 N.pl3   1  UNL1       -0.3427
     18 C          -1.6100   -1.1571   -0.4092 C.ar    1  UNL1        0.1031
     19 C          -1.1666   -2.5345   -0.5508 C.2     1  UNL1        0.2470
     20 N           0.1931   -2.8833   -0.6298 N.am    1  UNL1       -0.3252
     21 O          -2.0236   -3.4495   -0.6076 O.2     1  UNL1       -0.2702
     22 C           1.1951    1.0237   -1.1552 C.ar    1  UNL1        0.0375
     23 N           2.5223    1.2048   -1.2000 N.ar    1  UNL1       -0.2542
     24 C           3.3611    0.5538   -0.3984 C.ar    1  UNL1        0.0745
     25 C           4.7100    0.7311   -0.4373 C.ar    1  UNL1        0.0060
     26 H           7.7027   -1.5478    0.9353 H       1  UNL1        0.0660
     27 H           7.3344   -0.3488    2.2515 H       1  UNL1        0.0660
     28 H           8.7950   -0.1311    1.1622 H       1  UNL1        0.0660
     29 H           5.6085   -1.4019    1.9789 H       1  UNL1        0.0654
     30 H           3.1943   -1.7481    2.0799 H       1  UNL1        0.0625
     31 H           1.0736   -1.2313    1.3069 H       1  UNL1        0.0631
     32 H          -4.8002    3.2460    0.6877 H       1  UNL1        0.0253
     33 H          -3.2933    2.5896    1.4247 H       1  UNL1        0.0253
     34 H          -3.2449    3.4005   -0.1785 H       1  UNL1        0.0253
     35 H          -4.8953   -0.0832    1.1974 H       1  UNL1        0.0253
     36 H          -5.7564    1.4839    1.2867 H       1  UNL1        0.0253
     37 H          -6.0725    0.3924   -0.0762 H       1  UNL1        0.0253
     38 H          -5.3171    1.0027   -2.0083 H       1  UNL1        0.0253
     39 H          -3.8016    2.0074   -2.2698 H       1  UNL1        0.0253
     40 H          -5.2466    2.7177   -1.4929 H       1  UNL1        0.0253
     41 H          -4.0901   -2.4230    0.1453 H       1  UNL1        0.1437
     42 H          -4.8035   -1.4780   -1.1754 H       1  UNL1        0.1437
     43 H           0.6557   -3.3536    0.2002 H       1  UNL1        0.1453
     44 H           0.7910   -2.7142   -1.4503 H       1  UNL1        0.1453
     45 H           0.5854    1.5887   -1.8374 H       1  UNL1        0.0836
     46 H           5.1309    1.4228   -1.1398 H       1  UNL1        0.0676
@<TRIPOS>BOND
     1     1     2    1
     2     2     3    1
     3     3     4   ar
     4     4     5   ar
     5     5     6   ar
     6     6     7   ar
     7     7     8   ar
     8     8     9    1
     9     9    10   ar
    10    10    11   ar
    11    11    12    1
    12    12    13    1
    13    12    14    1
    14    12    15    1
    15    11    16   ar
    16    16    17    1
    17    16    18   ar
    18    18    19    1
    19    19    20   am
    20    19    21    2
    21     8    22   ar
    22    22    23   ar
    23    23    24   ar
    24    24    25   ar
    25    25     3   ar
    26    24     6   ar
    27    18     9   ar
    28     1    26    1
    29     1    27    1
    30     1    28    1
    31     4    29    1
    32     5    30    1
    33     7    31    1
    34    13    32    1
    35    13    33    1
    36    13    34    1
    37    14    35    1
    38    14    36    1
    39    14    37    1
    40    15    38    1
    41    15    39    1
    42    15    40    1
    43    17    41    1
    44    17    42    1
    45    20    43    1
    46    20    44    1
    47    22    45    1
    48    25    46    1
