@<TRIPOS>MOLECULE
*****
 52 55 0 0 0
SMALL
GASTEIGER

@<TRIPOS>ATOM
      1 C          -8.5298    1.2928   -1.7015 C.3     1  UNL1        0.0365
      2 O          -7.8150    1.3998   -0.4991 O.3     1  UNL1       -0.3814
      3 C          -6.8501    0.3803   -0.4186 C.3     1  UNL1        0.0628
      4 C          -6.1287    0.6014    0.8929 C.3     1  UNL1        0.0353
      5 N          -5.0868   -0.3837    1.1318 N.am    1  UNL1       -0.3091
      6 C          -3.9801   -0.5731    0.2616 C.2     1  UNL1        0.2447
      7 O          -3.9351    0.1667   -0.7564 O.2     1  UNL1       -0.2702
      8 C          -2.9576   -1.5804    0.5490 C.ar    1  UNL1        0.0444
      9 C          -3.2911   -2.9335    0.6293 C.ar    1  UNL1       -0.0490
     10 C          -2.3052   -3.8477    0.8923 C.ar    1  UNL1       -0.0605
     11 C          -0.9917   -3.4750    1.0806 C.ar    1  UNL1       -0.0539
     12 C          -0.6282   -2.1426    1.0075 C.ar    1  UNL1       -0.0137
     13 C           0.6793   -1.7590    1.1923 C.ar    1  UNL1       -0.0116
     14 C           0.9980   -0.4267    1.1105 C.ar    1  UNL1        0.1291
     15 O           2.2864    0.0475    1.2810 O.3     1  UNL1       -0.4553
     16 C           3.1035    0.1712    0.1767 C.ar    1  UNL1        0.1390
     17 C           2.6202   -0.1816   -1.0607 C.ar    1  UNL1       -0.0006
     18 C           3.4048   -0.0713   -2.1823 C.ar    1  UNL1        0.0318
     19 N           4.6833    0.3971   -2.0550 N.ar    1  UNL1       -0.2546
     20 C           5.1481    0.7402   -0.8407 C.ar    1  UNL1        0.0779
     21 C           6.4523    1.2180   -0.7174 C.ar    1  UNL1        0.0061
     22 C           6.9838    1.5844    0.4919 C.ar    1  UNL1        0.1221
     23 O           8.2743    2.0599    0.6305 O.3     1  UNL1       -0.4950
     24 C           9.1782    2.2192   -0.4448 C.3     1  UNL1        0.0788
     25 C           6.2107    1.4799    1.6273 C.ar    1  UNL1       -0.0192
     26 C           4.9051    1.0081    1.5488 C.ar    1  UNL1       -0.0456
     27 C           4.4015    0.6487    0.3188 C.ar    1  UNL1        0.0429
     28 C           0.0008    0.4871    0.8465 C.ar    1  UNL1       -0.0187
     29 C          -1.3086    0.1124    0.6605 C.ar    1  UNL1       -0.0498
     30 C          -1.6400   -1.2124    0.7387 C.ar    1  UNL1       -0.0056
     31 H          -9.0583    0.3257   -1.8083 H       1  UNL1        0.0523
     32 H          -9.2591    2.1307   -1.7334 H       1  UNL1        0.0523
     33 H          -7.8072    1.4339   -2.5416 H       1  UNL1        0.0523
     34 H          -7.2742   -0.6211   -0.5288 H       1  UNL1        0.0575
     35 H          -6.1600    0.5904   -1.2848 H       1  UNL1        0.0575
     36 H          -6.8698    0.5501    1.6939 H       1  UNL1        0.0485
     37 H          -5.7287    1.6384    0.8704 H       1  UNL1        0.0485
     38 H          -5.1434   -0.9982    1.9953 H       1  UNL1        0.1491
     39 H          -4.3094   -3.2286    0.4838 H       1  UNL1        0.0625
     40 H          -2.5225   -4.9222    0.9643 H       1  UNL1        0.0618
     41 H          -0.2361   -4.2201    1.2871 H       1  UNL1        0.0624
     42 H           1.4691   -2.4603    1.3998 H       1  UNL1        0.0660
     43 H           1.6223   -0.5483   -1.1630 H       1  UNL1        0.0670
     44 H           3.0908   -0.3291   -3.1829 H       1  UNL1        0.0831
     45 H           7.0568    1.2989   -1.6093 H       1  UNL1        0.0676
     46 H           8.5958    2.6766   -1.2853 H       1  UNL1        0.0660
     47 H           9.6367    1.2468   -0.7428 H       1  UNL1        0.0660
     48 H           9.9762    2.9134   -0.0783 H       1  UNL1        0.0660
     49 H           6.5890    1.7593    2.6145 H       1  UNL1        0.0654
     50 H           4.3071    0.9288    2.4368 H       1  UNL1        0.0626
     51 H           0.2395    1.5595    0.7778 H       1  UNL1        0.0654
     52 H          -2.0969    0.8476    0.4538 H       1  UNL1        0.0625
@<TRIPOS>BOND
     1     1     2    1
     2     2     3    1
     3     3     4    1
     4     4     5    1
     5     5     6   am
     6     6     7    2
     7     6     8    1
     8     8     9   ar
     9     9    10   ar
    10    10    11   ar
    11    11    12   ar
    12    12    13   ar
    13    13    14   ar
    14    14    15    1
    15    15    16    1
    16    16    17   ar
    17    17    18   ar
    18    18    19   ar
    19    19    20   ar
    20    20    21   ar
    21    21    22   ar
    22    22    23    1
    23    23    24    1
    24    22    25   ar
    25    25    26   ar
    26    26    27   ar
    27    14    28   ar
    28    28    29   ar
    29    29    30   ar
    30    30     8   ar
    31    30    12   ar
    32    27    16   ar
    33    27    20   ar
    34     1    31    1
    35     1    32    1
    36     1    33    1
    37     3    34    1
    38     3    35    1
    39     4    36    1
    40     4    37    1
    41     5    38    1
    42     9    39    1
    43    10    40    1
    44    11    41    1
    45    13    42    1
    46    17    43    1
    47    18    44    1
    48    21    45    1
    49    24    46    1
    50    24    47    1
    51    24    48    1
    52    25    49    1
    53    26    50    1
    54    28    51    1
    55    29    52    1
