
     RDKit          3D

 52 55  0  0  0  0  0  0  0  0999 V2000
   -8.5298    1.2928   -1.7015 C   0  0  0  0  0  0  0  0  0  0  0  0
   -7.8150    1.3998   -0.4991 O   0  0  0  0  0  0  0  0  0  0  0  0
   -6.8501    0.3803   -0.4186 C   0  0  0  0  0  0  0  0  0  0  0  0
   -6.1287    0.6014    0.8929 C   0  0  0  0  0  0  0  0  0  0  0  0
   -5.0868   -0.3837    1.1318 N   0  0  0  0  0  0  0  0  0  0  0  0
   -3.9801   -0.5731    0.2616 C   0  0  0  0  0  0  0  0  0  0  0  0
   -3.9351    0.1667   -0.7564 O   0  0  0  0  0  0  0  0  0  0  0  0
   -2.9576   -1.5804    0.5490 C   0  0  0  0  0  0  0  0  0  0  0  0
   -3.2911   -2.9335    0.6293 C   0  0  0  0  0  0  0  0  0  0  0  0
   -2.3052   -3.8477    0.8923 C   0  0  0  0  0  0  0  0  0  0  0  0
   -0.9917   -3.4750    1.0806 C   0  0  0  0  0  0  0  0  0  0  0  0
   -0.6282   -2.1426    1.0075 C   0  0  0  0  0  0  0  0  0  0  0  0
    0.6793   -1.7590    1.1923 C   0  0  0  0  0  0  0  0  0  0  0  0
    0.9980   -0.4267    1.1105 C   0  0  0  0  0  0  0  0  0  0  0  0
    2.2864    0.0475    1.2810 O   0  0  0  0  0  0  0  0  0  0  0  0
    3.1035    0.1712    0.1767 C   0  0  0  0  0  0  0  0  0  0  0  0
    2.6202   -0.1816   -1.0607 C   0  0  0  0  0  0  0  0  0  0  0  0
    3.4048   -0.0713   -2.1823 C   0  0  0  0  0  0  0  0  0  0  0  0
    4.6833    0.3971   -2.0550 N   0  0  0  0  0  0  0  0  0  0  0  0
    5.1481    0.7402   -0.8407 C   0  0  0  0  0  0  0  0  0  0  0  0
    6.4523    1.2180   -0.7174 C   0  0  0  0  0  0  0  0  0  0  0  0
    6.9838    1.5844    0.4919 C   0  0  0  0  0  0  0  0  0  0  0  0
    8.2743    2.0599    0.6305 O   0  0  0  0  0  0  0  0  0  0  0  0
    9.1782    2.2192   -0.4448 C   0  0  0  0  0  0  0  0  0  0  0  0
    6.2107    1.4799    1.6273 C   0  0  0  0  0  0  0  0  0  0  0  0
    4.9051    1.0081    1.5488 C   0  0  0  0  0  0  0  0  0  0  0  0
    4.4015    0.6487    0.3188 C   0  0  0  0  0  0  0  0  0  0  0  0
    0.0008    0.4871    0.8465 C   0  0  0  0  0  0  0  0  0  0  0  0
   -1.3086    0.1124    0.6605 C   0  0  0  0  0  0  0  0  0  0  0  0
   -1.6400   -1.2124    0.7387 C   0  0  0  0  0  0  0  0  0  0  0  0
   -9.0583    0.3257   -1.8083 H   0  0  0  0  0  0  0  0  0  0  0  0
   -9.2591    2.1307   -1.7334 H   0  0  0  0  0  0  0  0  0  0  0  0
   -7.8072    1.4339   -2.5416 H   0  0  0  0  0  0  0  0  0  0  0  0
   -7.2742   -0.6211   -0.5288 H   0  0  0  0  0  0  0  0  0  0  0  0
   -6.1600    0.5904   -1.2848 H   0  0  0  0  0  0  0  0  0  0  0  0
   -6.8698    0.5501    1.6939 H   0  0  0  0  0  0  0  0  0  0  0  0
   -5.7287    1.6384    0.8704 H   0  0  0  0  0  0  0  0  0  0  0  0
   -5.1434   -0.9982    1.9953 H   0  0  0  0  0  0  0  0  0  0  0  0
   -4.3094   -3.2286    0.4838 H   0  0  0  0  0  0  0  0  0  0  0  0
   -2.5225   -4.9222    0.9643 H   0  0  0  0  0  0  0  0  0  0  0  0
   -0.2361   -4.2201    1.2871 H   0  0  0  0  0  0  0  0  0  0  0  0
    1.4691   -2.4603    1.3998 H   0  0  0  0  0  0  0  0  0  0  0  0
    1.6223   -0.5483   -1.1630 H   0  0  0  0  0  0  0  0  0  0  0  0
    3.0908   -0.3291   -3.1829 H   0  0  0  0  0  0  0  0  0  0  0  0
    7.0568    1.2989   -1.6093 H   0  0  0  0  0  0  0  0  0  0  0  0
    8.5958    2.6766   -1.2853 H   0  0  0  0  0  0  0  0  0  0  0  0
    9.6367    1.2468   -0.7428 H   0  0  0  0  0  0  0  0  0  0  0  0
    9.9762    2.9134   -0.0783 H   0  0  0  0  0  0  0  0  0  0  0  0
    6.5890    1.7593    2.6145 H   0  0  0  0  0  0  0  0  0  0  0  0
    4.3071    0.9288    2.4368 H   0  0  0  0  0  0  0  0  0  0  0  0
    0.2395    1.5595    0.7778 H   0  0  0  0  0  0  0  0  0  0  0  0
   -2.0969    0.8476    0.4538 H   0  0  0  0  0  0  0  0  0  0  0  0
  1  2  1  0
  2  3  1  0
  3  4  1  0
  4  5  1  0
  5  6  1  0
  6  7  2  0
  6  8  1  0
  8  9  2  0
  9 10  1  0
 10 11  2  0
 11 12  1  0
 12 13  2  0
 13 14  1  0
 14 15  1  0
 15 16  1  0
 16 17  2  0
 17 18  1  0
 18 19  2  0
 19 20  1  0
 20 21  2  0
 21 22  1  0
 22 23  1  0
 23 24  1  0
 22 25  2  0
 25 26  1  0
 26 27  2  0
 14 28  2  0
 28 29  1  0
 29 30  2  0
 30  8  1  0
 30 12  1  0
 27 16  1  0
 27 20  1  0
  1 31  1  0
  1 32  1  0
  1 33  1  0
  3 34  1  0
  3 35  1  0
  4 36  1  0
  4 37  1  0
  5 38  1  0
  9 39  1  0
 10 40  1  0
 11 41  1  0
 13 42  1  0
 17 43  1  0
 18 44  1  0
 21 45  1  0
 24 46  1  0
 24 47  1  0
 24 48  1  0
 25 49  1  0
 26 50  1  0
 28 51  1  0
 29 52  1  0
M  END
$$$$
