
     RDKit          3D

 56 59  0  0  0  0  0  0  0  0999 V2000
    6.1347   -3.8331    1.9737 C   0  0  0  0  0  0  0  0  0  0  0  0
    4.9162   -3.1644    1.8872 O   0  0  0  0  0  0  0  0  0  0  0  0
    4.6304   -2.0454    1.1579 C   0  0  0  0  0  0  0  0  0  0  0  0
    3.3586   -1.4659    1.1476 C   0  0  0  0  0  0  0  0  0  0  0  0
    3.0823   -0.3662    0.4307 N   0  0  0  0  0  0  0  0  0  0  0  0
    3.9932    0.2563   -0.3233 C   0  0  0  0  0  0  0  0  0  0  0  0
    3.6534    1.3815   -1.0406 C   0  0  0  0  0  0  0  0  0  0  0  0
    2.3193    1.8351   -0.9298 N   0  0  0  0  0  0  0  0  0  0  0  0
    1.2091    1.0041   -1.2715 C   0  0  0  0  0  0  0  0  0  0  0  0
    1.4425   -0.1334   -2.0020 C   0  0  0  0  0  0  0  0  0  0  0  0
    0.4426   -1.0097   -2.3530 C   0  0  0  0  0  0  0  0  0  0  0  0
   -0.8224   -0.7007   -1.9372 C   0  0  0  0  0  0  0  0  0  0  0  0
   -1.8813   -1.5272   -2.2344 F   0  0  0  0  0  0  0  0  0  0  0  0
   -1.1530    0.4367   -1.1878 C   0  0  0  0  0  0  0  0  0  0  0  0
   -2.5428    0.6993   -0.7707 C   0  0  2  0  0  0  0  0  0  0  0  0
   -3.4256    0.8540   -1.9645 C   0  0  0  0  0  0  0  0  0  0  0  0
   -3.0241    1.9134   -2.7774 F   0  0  0  0  0  0  0  0  0  0  0  0
   -2.5456    1.9520    0.0887 C   0  0  0  0  0  0  0  0  0  0  0  0
   -4.1683    2.1825    0.7818 S   0  0  0  0  0  6  0  0  0  0  0  0
   -5.1406    2.7254   -0.2322 O   0  0  0  0  0  0  0  0  0  0  0  0
   -4.0743    3.1304    1.9614 O   0  0  0  0  0  0  0  0  0  0  0  0
   -4.7516    0.6035    1.3096 C   0  0  0  0  0  0  0  0  0  0  0  0
   -4.8368    0.6514    2.8291 C   0  0  0  0  0  0  0  0  0  0  0  0
   -6.1906    0.3969    0.8394 C   0  0  0  0  0  0  0  0  0  0  0  0
   -3.8711   -0.4603    0.8676 C   0  0  0  0  0  0  0  0  0  0  0  0
   -4.0681   -1.7534    1.5115 N   0  0  0  0  0  0  0  0  0  0  0  0
   -2.9699   -0.4354    0.0239 N   0  0  0  0  0  0  0  0  0  0  0  0
   -0.0953    1.2884   -0.8643 C   0  0  0  0  0  0  0  0  0  0  0  0
    4.5471    2.0210   -1.8031 N   0  0  0  0  0  0  0  0  0  0  0  0
    5.8438    1.5561   -1.8838 C   0  0  0  0  0  0  0  0  0  0  0  0
    6.1628    0.4349   -1.1636 C   0  0  0  0  0  0  0  0  0  0  0  0
    7.4361   -0.0494   -1.2234 F   0  0  0  0  0  0  0  0  0  0  0  0
    5.2765   -0.2557   -0.3662 C   0  0  0  0  0  0  0  0  0  0  0  0
    5.5699   -1.3790    0.3624 C   0  0  0  0  0  0  0  0  0  0  0  0
    6.7843   -3.4161    2.7891 H   0  0  0  0  0  0  0  0  0  0  0  0
    6.6972   -3.9018    1.0104 H   0  0  0  0  0  0  0  0  0  0  0  0
    5.9578   -4.9091    2.2779 H   0  0  0  0  0  0  0  0  0  0  0  0
    2.5974   -1.9570    1.7548 H   0  0  0  0  0  0  0  0  0  0  0  0
    2.1424    2.8110   -0.5888 H   0  0  0  0  0  0  0  0  0  0  0  0
    2.4459   -0.4102   -2.3485 H   0  0  0  0  0  0  0  0  0  0  0  0
    0.6280   -1.9083   -2.9339 H   0  0  0  0  0  0  0  0  0  0  0  0
   -4.5059    1.0158   -1.6606 H   0  0  0  0  0  0  0  0  0  0  0  0
   -3.4778   -0.0206   -2.6358 H   0  0  0  0  0  0  0  0  0  0  0  0
   -1.7910    1.9219    0.8924 H   0  0  0  0  0  0  0  0  0  0  0  0
   -2.3317    2.8096   -0.5611 H   0  0  0  0  0  0  0  0  0  0  0  0
   -4.8871   -0.3493    3.2862 H   0  0  0  0  0  0  0  0  0  0  0  0
   -5.7773    1.1798    3.0777 H   0  0  0  0  0  0  0  0  0  0  0  0
   -4.0216    1.2933    3.2561 H   0  0  0  0  0  0  0  0  0  0  0  0
   -6.4368    1.1245    0.0335 H   0  0  0  0  0  0  0  0  0  0  0  0
   -6.9140    0.4240    1.6680 H   0  0  0  0  0  0  0  0  0  0  0  0
   -6.2067   -0.6188    0.3575 H   0  0  0  0  0  0  0  0  0  0  0  0
   -4.6370   -2.4987    1.0784 H   0  0  0  0  0  0  0  0  0  0  0  0
   -3.5861   -1.8441    2.4327 H   0  0  0  0  0  0  0  0  0  0  0  0
   -0.2703    2.1892   -0.3016 H   0  0  0  0  0  0  0  0  0  0  0  0
    6.5535    2.0846   -2.5036 H   0  0  0  0  0  0  0  0  0  0  0  0
    6.5796   -1.7633    0.3170 H   0  0  0  0  0  0  0  0  0  0  0  0
  1  2  1  0
  2  3  1  0
  3  4  2  0
  4  5  1  0
  5  6  2  0
  6  7  1  0
  7  8  1  0
  8  9  1  0
  9 10  2  0
 10 11  1  0
 11 12  2  0
 12 13  1  0
 12 14  1  0
 14 15  1  0
 15 16  1  6
 16 17  1  0
 15 18  1  0
 18 19  1  0
 19 20  2  0
 19 21  2  0
 19 22  1  0
 22 23  1  0
 22 24  1  0
 22 25  1  0
 25 26  1  0
 25 27  2  0
 14 28  2  0
  7 29  2  0
 29 30  1  0
 30 31  2  0
 31 32  1  0
 31 33  1  0
 33 34  2  0
 34  3  1  0
 33  6  1  0
 28  9  1  0
 27 15  1  0
  1 35  1  0
  1 36  1  0
  1 37  1  0
  4 38  1  0
  8 39  1  0
 10 40  1  0
 11 41  1  0
 16 42  1  0
 16 43  1  0
 18 44  1  0
 18 45  1  0
 23 46  1  0
 23 47  1  0
 23 48  1  0
 24 49  1  0
 24 50  1  0
 24 51  1  0
 26 52  1  0
 26 53  1  0
 28 54  1  0
 30 55  1  0
 34 56  1  0
M  END
$$$$
