@<TRIPOS>MOLECULE
*****
 56 59 0 0 0
SMALL
GASTEIGER

@<TRIPOS>ATOM
      1 C           6.1347   -3.8331    1.9737 C.3     1  UNL1        0.0789
      2 O           4.9162   -3.1644    1.8872 O.3     1  UNL1       -0.4936
      3 C           4.6304   -2.0454    1.1579 C.ar    1  UNL1        0.1388
      4 C           3.3586   -1.4659    1.1476 C.ar    1  UNL1        0.0700
      5 N           3.0823   -0.3662    0.4307 N.ar    1  UNL1       -0.2478
      6 C           3.9932    0.2563   -0.3233 C.ar    1  UNL1        0.1138
      7 C           3.6534    1.3815   -1.0406 C.ar    1  UNL1        0.1492
      8 N           2.3193    1.8351   -0.9298 N.pl3   1  UNL1       -0.2977
      9 C           1.2091    1.0041   -1.2715 C.ar    1  UNL1        0.0330
     10 C           1.4425   -0.1334   -2.0020 C.ar    1  UNL1       -0.0378
     11 C           0.4426   -1.0097   -2.3530 C.ar    1  UNL1       -0.0243
     12 C          -0.8224   -0.7007   -1.9372 C.ar    1  UNL1        0.1312
     13 F          -1.8813   -1.5272   -2.2344 F       1  UNL1       -0.2050
     14 C          -1.1530    0.4367   -1.1878 C.ar    1  UNL1        0.0448
     15 C          -2.5428    0.6993   -0.7707 C.3     1  UNL1        0.2263
     16 C          -3.4256    0.8540   -1.9645 C.3     1  UNL1        0.1433
     17 F          -3.0241    1.9134   -2.7774 F       1  UNL1       -0.2438
     18 C          -2.5456    1.9520    0.0887 C.3     1  UNL1        0.1211
     19 S          -4.1683    2.1825    0.7818 S.O2    1  UNL1       -0.0100
     20 O          -5.1406    2.7254   -0.2322 O.2     1  UNL1       -0.1731
     21 O          -4.0743    3.1304    1.9614 O.2     1  UNL1       -0.1731
     22 C          -4.7516    0.6035    1.3096 C.3     1  UNL1        0.1831
     23 C          -4.8368    0.6514    2.8291 C.3     1  UNL1       -0.0288
     24 C          -6.1906    0.3969    0.8394 C.3     1  UNL1       -0.0288
     25 C          -3.8711   -0.4603    0.8676 C.2     1  UNL1        0.3068
     26 N          -4.0681   -1.7534    1.5115 N.pl3   1  UNL1       -0.2488
     27 N          -2.9699   -0.4354    0.0239 N.2     1  UNL1       -0.0698
     28 C          -0.0953    1.2884   -0.8643 C.ar    1  UNL1       -0.0300
     29 N           4.5471    2.0210   -1.8031 N.ar    1  UNL1       -0.2351
     30 C           5.8438    1.5561   -1.8838 C.ar    1  UNL1        0.0656
     31 C           6.1628    0.4349   -1.1636 C.ar    1  UNL1        0.1508
     32 F           7.4361   -0.0494   -1.2234 F       1  UNL1       -0.2032
     33 C           5.2765   -0.2557   -0.3662 C.ar    1  UNL1        0.0439
     34 C           5.5699   -1.3790    0.3624 C.ar    1  UNL1       -0.0064
     35 H           6.7843   -3.4161    2.7891 H       1  UNL1        0.0660
     36 H           6.6972   -3.9018    1.0104 H       1  UNL1        0.0660
     37 H           5.9578   -4.9091    2.2779 H       1  UNL1        0.0660
     38 H           2.5974   -1.9570    1.7548 H       1  UNL1        0.0867
     39 H           2.1424    2.8110   -0.5888 H       1  UNL1        0.1536
     40 H           2.4459   -0.4102   -2.3485 H       1  UNL1        0.0637
     41 H           0.6280   -1.9083   -2.9339 H       1  UNL1        0.0647
     42 H          -4.5059    1.0158   -1.6606 H       1  UNL1        0.0666
     43 H          -3.4778   -0.0206   -2.6358 H       1  UNL1        0.0666
     44 H          -1.7910    1.9219    0.8924 H       1  UNL1        0.0551
     45 H          -2.3317    2.8096   -0.5611 H       1  UNL1        0.0551
     46 H          -4.8871   -0.3493    3.2862 H       1  UNL1        0.0256
     47 H          -5.7773    1.1798    3.0777 H       1  UNL1        0.0256
     48 H          -4.0216    1.2933    3.2561 H       1  UNL1        0.0256
     49 H          -6.4368    1.1245    0.0335 H       1  UNL1        0.0256
     50 H          -6.9140    0.4240    1.6680 H       1  UNL1        0.0256
     51 H          -6.2067   -0.6188    0.3575 H       1  UNL1        0.0256
     52 H          -4.6370   -2.4987    1.0784 H       1  UNL1        0.2881
     53 H          -3.5861   -1.8441    2.4327 H       1  UNL1        0.2881
     54 H          -0.2703    2.1892   -0.3016 H       1  UNL1        0.0641
     55 H           6.5535    2.0846   -2.5036 H       1  UNL1        0.0860
     56 H           6.5796   -1.7633    0.3170 H       1  UNL1        0.0662
@<TRIPOS>BOND
     1     1     2    1
     2     2     3    1
     3     3     4   ar
     4     4     5   ar
     5     5     6   ar
     6     6     7   ar
     7     7     8    1
     8     8     9    1
     9     9    10   ar
    10    10    11   ar
    11    11    12   ar
    12    12    13    1
    13    12    14   ar
    14    14    15    1
    15    15    16    1
    16    16    17    1
    17    15    18    1
    18    18    19    1
    19    19    20    2
    20    19    21    2
    21    19    22    1
    22    22    23    1
    23    22    24    1
    24    22    25    1
    25    25    26    1
    26    25    27    2
    27    14    28   ar
    28     7    29   ar
    29    29    30   ar
    30    30    31   ar
    31    31    32    1
    32    31    33   ar
    33    33    34   ar
    34    34     3   ar
    35    33     6   ar
    36    28     9   ar
    37    27    15    1
    38     1    35    1
    39     1    36    1
    40     1    37    1
    41     4    38    1
    42     8    39    1
    43    10    40    1
    44    11    41    1
    45    16    42    1
    46    16    43    1
    47    18    44    1
    48    18    45    1
    49    23    46    1
    50    23    47    1
    51    23    48    1
    52    24    49    1
    53    24    50    1
    54    24    51    1
    55    26    52    1
    56    26    53    1
    57    28    54    1
    58    30    55    1
    59    34    56    1
