@<TRIPOS>MOLECULE
*****
 45 48 0 0 0
SMALL
GASTEIGER

@<TRIPOS>ATOM
      1 C          -9.1148   -0.2316    0.5789 C.3     1  UNL1        0.0788
      2 O          -7.9316    0.5399    0.5452 O.3     1  UNL1       -0.4951
      3 C          -6.6964   -0.0396    0.2782 C.ar    1  UNL1        0.1221
      4 C          -6.6509   -1.3940    0.0452 C.ar    1  UNL1       -0.0185
      5 C          -5.4197   -1.9336   -0.2141 C.ar    1  UNL1       -0.0380
      6 C          -4.2403   -1.1592   -0.2463 C.ar    1  UNL1        0.0678
      7 CL         -2.7200   -1.9677   -0.5633 Cl      1  UNL1       -0.0815
      8 C          -4.2773    0.1851   -0.0169 C.ar    1  UNL1        0.1302
      9 S          -2.9050    1.2648   -0.0511 S.O2    1  UNL1        0.0739
     10 O          -3.3769    2.6477    0.3244 O.2     1  UNL1       -0.1499
     11 O          -2.3401    1.3344   -1.4604 O.2     1  UNL1       -0.1499
     12 N          -1.6474    0.8083    0.9995 N.pl3   1  UNL1       -0.2162
     13 C          -0.2939    0.5496    0.6067 C.ar    1  UNL1        0.0481
     14 C           0.7116    0.8592    1.5472 C.ar    1  UNL1       -0.0387
     15 C           2.0150    0.6338    1.2876 C.ar    1  UNL1       -0.0507
     16 C           2.4121    0.0802    0.0644 C.ar    1  UNL1        0.0020
     17 C           3.8350   -0.1287   -0.1297 C.ar    1  UNL1        0.0914
     18 C           4.2883   -0.6662   -1.3029 C.ar    1  UNL1        0.0544
     19 N           5.6108   -0.8758   -1.5197 N.ar    1  UNL1       -0.2479
     20 C           6.5121   -0.5601   -0.5856 C.ar    1  UNL1        0.1299
     21 C           7.9024   -0.6584   -0.5254 C.ar    1  UNL1        0.0872
     22 C           8.7805   -1.1912   -1.5984 C.3     1  UNL1       -0.0185
     23 N           8.2243   -0.1733    0.6869 N.ar    1  UNL1       -0.1752
     24 N           7.1494    0.2003    1.3426 N.ar    1  UNL1       -0.2587
     25 C           6.0307   -0.0197    0.5886 C.ar    1  UNL1        0.1752
     26 N           4.7294    0.1929    0.8168 N.ar    1  UNL1       -0.2248
     27 C           1.4350   -0.2178   -0.8439 C.ar    1  UNL1       -0.0507
     28 C           0.0769    0.0109   -0.5892 C.ar    1  UNL1       -0.0387
     29 C          -5.5569    0.7198    0.2486 C.ar    1  UNL1        0.0081
     30 H          -8.9461   -1.1187    1.2572 H       1  UNL1        0.0660
     31 H          -9.9756    0.3592    0.9026 H       1  UNL1        0.0660
     32 H          -9.2558   -0.6730   -0.4412 H       1  UNL1        0.0660
     33 H          -7.5441   -1.9993    0.0664 H       1  UNL1        0.0654
     34 H          -5.3515   -2.9862   -0.3997 H       1  UNL1        0.0634
     35 H          -1.8410    0.6911    2.0469 H       1  UNL1        0.1737
     36 H           0.3925    1.2889    2.4941 H       1  UNL1        0.0637
     37 H           2.7900    0.8780    2.0254 H       1  UNL1        0.0625
     38 H           3.6515   -0.9624   -2.1355 H       1  UNL1        0.0852
     39 H           8.4224   -0.8481   -2.6092 H       1  UNL1        0.0294
     40 H           8.6601   -2.2907   -1.6083 H       1  UNL1        0.0294
     41 H           9.8103   -0.8527   -1.4961 H       1  UNL1        0.0294
     42 H           7.1691    0.6063    2.3048 H       1  UNL1        0.1906
     43 H           1.7214   -0.6457   -1.7935 H       1  UNL1        0.0625
     44 H          -0.6426   -0.2269   -1.3590 H       1  UNL1        0.0637
     45 H          -5.6026    1.7727    0.4311 H       1  UNL1        0.0674
@<TRIPOS>BOND
     1     1     2    1
     2     2     3    1
     3     3     4   ar
     4     4     5   ar
     5     5     6   ar
     6     6     7    1
     7     6     8   ar
     8     8     9    1
     9     9    10    2
    10     9    11    2
    11     9    12    1
    12    12    13    1
    13    13    14   ar
    14    14    15   ar
    15    15    16   ar
    16    16    17    1
    17    17    18   ar
    18    18    19   ar
    19    19    20   ar
    20    20    21   ar
    21    21    22    1
    22    21    23   ar
    23    23    24   ar
    24    24    25   ar
    25    25    26   ar
    26    16    27   ar
    27    27    28   ar
    28     8    29   ar
    29    29     3   ar
    30    28    13   ar
    31    26    17   ar
    32    25    20   ar
    33     1    30    1
    34     1    31    1
    35     1    32    1
    36     4    33    1
    37     5    34    1
    38    12    35    1
    39    14    36    1
    40    15    37    1
    41    18    38    1
    42    22    39    1
    43    22    40    1
    44    22    41    1
    45    24    42    1
    46    27    43    1
    47    28    44    1
    48    29    45    1
