@<TRIPOS>MOLECULE
*****
 68 72 0 0 0
SMALL
GASTEIGER

@<TRIPOS>ATOM
      1 C           0.2169    4.7531    1.3511 C.3     1  UNL1       -0.0653
      2 C           0.1427    3.7978    2.5074 C.3     1  UNL1       -0.0556
      3 C          -0.2729    2.4008    2.0244 C.3     1  UNL1       -0.0478
      4 C          -1.6063    2.5093    1.3823 C.3     1  UNL1       -0.0084
      5 C          -2.1444    1.2151    0.8487 C.ar    1  UNL1        0.0677
      6 N          -2.9866    0.4123    1.5366 N.ar    1  UNL1       -0.1703
      7 N          -3.2949   -0.6801    0.8774 N.ar    1  UNL1       -0.2252
      8 C          -4.1659   -1.7467    1.3189 C.ar    1  UNL1        0.0677
      9 C          -5.4003   -1.8576    0.7059 C.ar    1  UNL1       -0.0362
     10 C          -6.3109   -2.8225    1.0339 C.ar    1  UNL1       -0.0584
     11 C          -5.9599   -3.7234    2.0324 C.ar    1  UNL1       -0.0433
     12 C          -4.7223   -3.6181    2.6522 C.ar    1  UNL1        0.0430
     13 CL         -4.3305   -4.7682    3.8941 Cl      1  UNL1       -0.0835
     14 C          -3.8127   -2.6235    2.2971 C.ar    1  UNL1       -0.0179
     15 C          -2.6362   -0.6121   -0.3005 C.ar    1  UNL1        0.1549
     16 C          -2.7221   -1.6502   -1.3170 C.2     1  UNL1        0.3581
     17 O          -3.4554   -2.6672   -1.0749 O.2     1  UNL1       -0.2432
     18 O          -2.0432   -1.5812   -2.5335 O.3     1  UNL1       -0.4604
     19 C          -2.2138   -2.6584   -3.4336 C.3     1  UNL1        0.0900
     20 C          -3.6605   -2.7731   -3.7831 C.3     1  UNL1       -0.0306
     21 C          -1.9024    0.5794   -0.3410 C.ar    1  UNL1        0.0123
     22 C          -1.0906    0.9957   -1.4974 C.3     1  UNL1        0.0016
     23 C           0.3707    0.8379   -1.3589 C.ar    1  UNL1       -0.0429
     24 C           1.2220    1.9406   -1.3297 C.ar    1  UNL1       -0.0577
     25 C           2.5853    1.7942   -1.1967 C.ar    1  UNL1       -0.0537
     26 C           3.1834    0.5581   -1.0857 C.ar    1  UNL1       -0.0172
     27 C           4.6469    0.4307   -0.9538 C.ar    1  UNL1       -0.0072
     28 C           5.4360    0.7367   -2.0590 C.ar    1  UNL1       -0.0534
     29 C           6.7967    0.6432   -2.0397 C.ar    1  UNL1       -0.0611
     30 C           7.4390    0.2320   -0.8926 C.ar    1  UNL1       -0.0611
     31 C           6.6416   -0.0720    0.2088 C.ar    1  UNL1       -0.0504
     32 C           5.2696    0.0242    0.1837 C.ar    1  UNL1        0.0282
     33 C           4.4966   -0.3004    1.3718 C.ar    1  UNL1        0.1799
     34 N           3.1643   -0.2449    1.5250 N.ar    1  UNL1       -0.1084
     35 N           2.8719   -0.6160    2.7515 N.ar    1  UNL1       -0.0229
     36 N           4.0047   -0.8972    3.3496 N.ar    1  UNL1       -0.0464
     37 N           5.0222   -0.7139    2.5301 N.ar    1  UNL1       -0.2388
     38 C           2.3520   -0.5406   -1.1133 C.ar    1  UNL1       -0.0537
     39 C           0.9806   -0.3913   -1.2470 C.ar    1  UNL1       -0.0577
     40 H          -0.7938    5.0991    1.0859 H       1  UNL1        0.0230
     41 H           0.7748    4.3706    0.4852 H       1  UNL1        0.0230
     42 H           0.7622    5.6590    1.7187 H       1  UNL1        0.0230
     43 H          -0.7000    4.1414    3.1592 H       1  UNL1        0.0263
     44 H           1.0869    3.7438    3.0828 H       1  UNL1        0.0263
     45 H           0.5157    2.0539    1.3488 H       1  UNL1        0.0269
     46 H          -0.2824    1.7372    2.9255 H       1  UNL1        0.0269
     47 H          -1.5491    3.2731    0.5793 H       1  UNL1        0.0329
     48 H          -2.3202    2.9172    2.1321 H       1  UNL1        0.0329
     49 H          -5.6599   -1.1405   -0.0774 H       1  UNL1        0.0639
     50 H          -7.2557   -2.8531    0.5160 H       1  UNL1        0.0619
     51 H          -6.6855   -4.4844    2.2882 H       1  UNL1        0.0632
     52 H          -2.8699   -2.5589    2.7828 H       1  UNL1        0.0653
     53 H          -1.6378   -2.4740   -4.3654 H       1  UNL1        0.0695
     54 H          -1.8684   -3.5815   -2.9160 H       1  UNL1        0.0695
     55 H          -4.1910   -3.5492   -3.1818 H       1  UNL1        0.0262
     56 H          -3.7348   -3.1334   -4.8409 H       1  UNL1        0.0262
     57 H          -4.2097   -1.8305   -3.6317 H       1  UNL1        0.0262
     58 H          -1.2955    2.1208   -1.6554 H       1  UNL1        0.0363
     59 H          -1.4629    0.5894   -2.4769 H       1  UNL1        0.0363
     60 H           0.7686    2.9116   -1.4164 H       1  UNL1        0.0621
     61 H           3.2624    2.6571   -1.1726 H       1  UNL1        0.0624
     62 H           4.9158    1.0592   -2.9550 H       1  UNL1        0.0624
     63 H           7.4028    0.8878   -2.9169 H       1  UNL1        0.0618
     64 H           8.5165    0.1556   -0.8719 H       1  UNL1        0.0618
     65 H           7.1783   -0.3963    1.1072 H       1  UNL1        0.0625
     66 H           6.0518   -0.8589    2.7290 H       1  UNL1        0.1923
     67 H           2.8177   -1.5337   -1.0257 H       1  UNL1        0.0624
     68 H           0.3521   -1.2854   -1.2624 H       1  UNL1        0.0621
@<TRIPOS>BOND
     1     1     2    1
     2     2     3    1
     3     3     4    1
     4     4     5    1
     5     5     6   ar
     6     6     7   ar
     7     7     8    1
     8     8     9   ar
     9     9    10   ar
    10    10    11   ar
    11    11    12   ar
    12    12    13    1
    13    12    14   ar
    14     7    15   ar
    15    15    16    1
    16    16    17    2
    17    16    18    1
    18    18    19    1
    19    19    20    1
    20    15    21   ar
    21    21    22    1
    22    22    23    1
    23    23    24   ar
    24    24    25   ar
    25    25    26   ar
    26    26    27    1
    27    27    28   ar
    28    28    29   ar
    29    29    30   ar
    30    30    31   ar
    31    31    32   ar
    32    32    33    1
    33    33    34   ar
    34    34    35   ar
    35    35    36   ar
    36    36    37   ar
    37    26    38   ar
    38    38    39   ar
    39    21     5   ar
    40    39    23   ar
    41    14     8   ar
    42    32    27   ar
    43    37    33   ar
    44     1    40    1
    45     1    41    1
    46     1    42    1
    47     2    43    1
    48     2    44    1
    49     3    45    1
    50     3    46    1
    51     4    47    1
    52     4    48    1
    53     9    49    1
    54    10    50    1
    55    11    51    1
    56    14    52    1
    57    19    53    1
    58    19    54    1
    59    20    55    1
    60    20    56    1
    61    20    57    1
    62    22    58    1
    63    22    59    1
    64    24    60    1
    65    25    61    1
    66    28    62    1
    67    29    63    1
    68    30    64    1
    69    31    65    1
    70    37    66    1
    71    38    67    1
    72    39    68    1
