
     RDKit          3D

 91 94  0  0  0  0  0  0  0  0999 V2000
    0.8761   -1.8250   -3.6797 C   0  0  0  0  0  0  0  0  0  0  0  0
    2.0329   -1.9449   -2.7463 C   0  0  0  0  0  0  0  0  0  0  0  0
    1.8139   -1.3028   -1.4518 N   0  0  0  0  0  0  0  0  0  0  0  0
    0.5898   -0.6757   -1.1333 C   0  0  0  0  0  0  0  0  0  0  0  0
    0.4227    0.6922   -0.9709 C   0  0  0  0  0  0  0  0  0  0  0  0
   -0.7726    1.2995   -0.6751 C   0  0  0  0  0  0  0  0  0  0  0  0
   -0.9066    2.7454   -0.5143 C   0  0  0  0  0  0  0  0  0  0  0  0
   -2.1107    3.3499   -0.8648 C   0  0  0  0  0  0  0  0  0  0  0  0
   -2.2778    4.7099   -0.7309 C   0  0  0  0  0  0  0  0  0  0  0  0
   -1.2505    5.5146   -0.2432 C   0  0  0  0  0  0  0  0  0  0  0  0
   -1.3953    6.8730   -0.1018 O   0  0  0  0  0  0  0  0  0  0  0  0
   -0.4191    7.7427    0.3781 C   0  0  0  0  0  0  0  0  0  0  0  0
   -0.9112    9.1782    0.4033 C   0  0  0  0  0  0  0  0  0  0  0  0
   -1.2778    9.6549   -0.8304 O   0  0  0  0  0  0  0  0  0  0  0  0
   -0.2777    9.6593   -1.7742 C   0  0  0  0  0  0  0  0  0  0  0  0
   -0.0539    4.9344    0.1080 C   0  0  0  0  0  0  0  0  0  0  0  0
    0.0902    3.5672   -0.0350 C   0  0  0  0  0  0  0  0  0  0  0  0
   -1.8858    0.4606   -0.5325 C   0  0  0  0  0  0  0  0  0  0  0  0
   -1.7659   -0.8929   -0.6846 C   0  0  0  0  0  0  0  0  0  0  0  0
   -2.9407   -1.7763   -0.5296 C   0  0  0  0  0  0  0  0  0  0  0  0
   -3.1146   -2.5680   -1.4751 O   0  0  0  0  0  0  0  0  0  0  0  0
   -3.7699   -1.7110    0.5860 N   0  0  0  0  0  0  0  0  0  0  0  0
   -4.9133   -2.4960    0.8468 C   0  0  0  0  0  0  0  0  0  0  0  0
   -4.7802   -3.9505    0.9473 C   0  0  0  0  0  0  0  0  0  0  0  0
   -4.9294   -4.8491   -0.0761 C   0  0  0  0  0  0  0  0  0  0  0  0
   -5.4071   -4.4663   -1.4206 C   0  0  0  0  0  0  0  0  0  0  0  0
   -4.6904   -6.2003    0.1624 C   0  0  0  0  0  0  0  0  0  0  0  0
   -4.3093   -6.6452    1.4099 C   0  0  0  0  0  0  0  0  0  0  0  0
   -4.0527   -8.0840    1.6718 C   0  0  0  0  0  0  0  0  0  0  0  0
   -4.1735   -5.7258    2.4001 N   0  0  0  0  0  0  0  0  0  0  0  0
   -4.3925   -4.4251    2.2099 C   0  0  0  0  0  0  0  0  0  0  0  0
   -4.2590   -3.5969    3.1439 O   0  0  0  0  0  0  0  0  0  0  0  0
   -0.5536   -1.4522   -0.9790 C   0  0  0  0  0  0  0  0  0  0  0  0
   -0.4492   -2.9110   -1.1307 C   0  0  0  0  0  0  0  0  0  0  0  0
    2.9364   -1.3776   -0.5420 C   0  0  1  0  0  0  0  0  0  0  0  0
    4.1786   -0.7183   -1.0645 C   0  0  0  0  0  0  0  0  0  0  0  0
    5.2604   -0.9571   -0.0001 C   0  0  0  0  0  0  0  0  0  0  0  0
    4.9503    0.0312    1.1050 C   0  0  2  0  0  0  0  0  0  0  0  0
    5.6978   -0.3509    2.3057 N   0  0  0  0  0  0  0  0  0  0  0  0
    5.4481    0.5739    3.3927 C   0  0  0  0  0  0  0  0  0  0  0  0
    7.1230   -0.3400    2.0473 C   0  0  0  0  0  0  0  0  0  0  0  0
    3.4951    0.2077    1.3435 C   0  0  0  0  0  0  0  0  0  0  0  0
    2.6372   -0.9008    0.8273 C   0  0  0  0  0  0  0  0  0  0  0  0
    0.3905   -2.8012   -3.9290 H   0  0  0  0  0  0  0  0  0  0  0  0
    1.2074   -1.4381   -4.6900 H   0  0  0  0  0  0  0  0  0  0  0  0
    0.1458   -1.0935   -3.3029 H   0  0  0  0  0  0  0  0  0  0  0  0
    2.9250   -1.4601   -3.2473 H   0  0  0  0  0  0  0  0  0  0  0  0
    2.3398   -3.0115   -2.6448 H   0  0  0  0  0  0  0  0  0  0  0  0
    1.2923    1.3215   -1.0841 H   0  0  0  0  0  0  0  0  0  0  0  0
   -2.8994    2.7124   -1.2424 H   0  0  0  0  0  0  0  0  0  0  0  0
   -3.1994    5.1881   -0.9954 H   0  0  0  0  0  0  0  0  0  0  0  0
   -0.1282    7.5135    1.4419 H   0  0  0  0  0  0  0  0  0  0  0  0
    0.5100    7.6108   -0.2077 H   0  0  0  0  0  0  0  0  0  0  0  0
   -0.1297    9.7693    0.9008 H   0  0  0  0  0  0  0  0  0  0  0  0
   -1.8092    9.1901    1.0512 H   0  0  0  0  0  0  0  0  0  0  0  0
    0.0756    8.6254   -1.9201 H   0  0  0  0  0  0  0  0  0  0  0  0
   -0.6968   10.1054   -2.7004 H   0  0  0  0  0  0  0  0  0  0  0  0
    0.5911   10.2940   -1.4768 H   0  0  0  0  0  0  0  0  0  0  0  0
    0.7715    5.5526    0.4969 H   0  0  0  0  0  0  0  0  0  0  0  0
    1.0295    3.1283    0.2411 H   0  0  0  0  0  0  0  0  0  0  0  0
   -2.8373    0.9148   -0.3013 H   0  0  0  0  0  0  0  0  0  0  0  0
   -3.4784   -0.9667    1.3109 H   0  0  0  0  0  0  0  0  0  0  0  0
   -5.7319   -2.3120    0.0996 H   0  0  0  0  0  0  0  0  0  0  0  0
   -5.3569   -2.1134    1.8209 H   0  0  0  0  0  0  0  0  0  0  0  0
   -6.3184   -5.0928   -1.6507 H   0  0  0  0  0  0  0  0  0  0  0  0
   -4.6143   -4.7551   -2.1611 H   0  0  0  0  0  0  0  0  0  0  0  0
   -5.7230   -3.4345   -1.5404 H   0  0  0  0  0  0  0  0  0  0  0  0
   -4.8039   -6.9077   -0.6432 H   0  0  0  0  0  0  0  0  0  0  0  0
   -3.0378   -8.1690    2.1017 H   0  0  0  0  0  0  0  0  0  0  0  0
   -4.1045   -8.6171    0.7114 H   0  0  0  0  0  0  0  0  0  0  0  0
   -4.8054   -8.4272    2.3958 H   0  0  0  0  0  0  0  0  0  0  0  0
   -3.8822   -6.0519    3.3646 H   0  0  0  0  0  0  0  0  0  0  0  0
   -0.9720   -3.2900   -2.0184 H   0  0  0  0  0  0  0  0  0  0  0  0
    0.5908   -3.2902   -1.0333 H   0  0  0  0  0  0  0  0  0  0  0  0
   -0.9875   -3.3963   -0.2605 H   0  0  0  0  0  0  0  0  0  0  0  0
    3.1849   -2.4792   -0.4834 H   0  0  0  0  0  0  0  0  0  0  0  0
    4.0987    0.3813   -1.1563 H   0  0  0  0  0  0  0  0  0  0  0  0
    4.5355   -1.1694   -2.0102 H   0  0  0  0  0  0  0  0  0  0  0  0
    6.2540   -0.8299   -0.4290 H   0  0  0  0  0  0  0  0  0  0  0  0
    5.1190   -2.0091    0.3202 H   0  0  0  0  0  0  0  0  0  0  0  0
    5.3705    1.0100    0.7826 H   0  0  0  0  0  0  0  0  0  0  0  0
    4.5959    0.2550    4.0242 H   0  0  0  0  0  0  0  0  0  0  0  0
    5.2912    1.6165    3.0378 H   0  0  0  0  0  0  0  0  0  0  0  0
    6.3857    0.6264    4.0129 H   0  0  0  0  0  0  0  0  0  0  0  0
    7.5023   -1.3121    1.6918 H   0  0  0  0  0  0  0  0  0  0  0  0
    7.6758   -0.1008    2.9870 H   0  0  0  0  0  0  0  0  0  0  0  0
    7.4048    0.4941    1.3462 H   0  0  0  0  0  0  0  0  0  0  0  0
    3.3244    0.2749    2.4437 H   0  0  0  0  0  0  0  0  0  0  0  0
    3.1210    1.1770    0.9382 H   0  0  0  0  0  0  0  0  0  0  0  0
    2.7007   -1.7376    1.5818 H   0  0  0  0  0  0  0  0  0  0  0  0
    1.5707   -0.5462    0.9224 H   0  0  0  0  0  0  0  0  0  0  0  0
  1  2  1  0
  2  3  1  0
  3  4  1  0
  4  5  2  0
  5  6  1  0
  6  7  1  0
  7  8  2  0
  8  9  1  0
  9 10  2  0
 10 11  1  0
 11 12  1  0
 12 13  1  0
 13 14  1  0
 14 15  1  0
 10 16  1  0
 16 17  2  0
  6 18  2  0
 18 19  1  0
 19 20  1  0
 20 21  2  0
 20 22  1  0
 22 23  1  0
 23 24  1  0
 24 25  2  0
 25 26  1  0
 25 27  1  0
 27 28  2  0
 28 29  1  0
 28 30  1  0
 30 31  1  0
 31 32  2  0
 19 33  2  0
 33 34  1  0
  3 35  1  0
 35 36  1  0
 36 37  1  0
 37 38  1  0
 38 39  1  0
 39 40  1  0
 39 41  1  0
 38 42  1  0
 42 43  1  0
 33  4  1  0
 43 35  1  0
 17  7  1  0
 31 24  1  0
  1 44  1  0
  1 45  1  0
  1 46  1  0
  2 47  1  0
  2 48  1  0
  5 49  1  0
  8 50  1  0
  9 51  1  0
 12 52  1  0
 12 53  1  0
 13 54  1  0
 13 55  1  0
 15 56  1  0
 15 57  1  0
 15 58  1  0
 16 59  1  0
 17 60  1  0
 18 61  1  0
 22 62  1  0
 23 63  1  0
 23 64  1  0
 26 65  1  0
 26 66  1  0
 26 67  1  0
 27 68  1  0
 29 69  1  0
 29 70  1  0
 29 71  1  0
 30 72  1  0
 34 73  1  0
 34 74  1  0
 34 75  1  0
 35 76  1  1
 36 77  1  0
 36 78  1  0
 37 79  1  0
 37 80  1  0
 38 81  1  6
 40 82  1  0
 40 83  1  0
 40 84  1  0
 41 85  1  0
 41 86  1  0
 41 87  1  0
 42 88  1  0
 42 89  1  0
 43 90  1  0
 43 91  1  0
M  END
$$$$
