@<TRIPOS>MOLECULE
*****
 91 94 0 0 0
SMALL
GASTEIGER

@<TRIPOS>ATOM
      1 C           0.8761   -1.8250   -3.6797 C.3     1  UNL1       -0.0494
      2 C           2.0329   -1.9449   -2.7463 C.3     1  UNL1        0.0097
      3 N           1.8139   -1.3028   -1.4518 N.pl3   1  UNL1       -0.3269
      4 C           0.5898   -0.6757   -1.1333 C.ar    1  UNL1        0.0342
      5 C           0.4227    0.6922   -0.9709 C.ar    1  UNL1       -0.0326
      6 C          -0.7726    1.2995   -0.6751 C.ar    1  UNL1       -0.0154
      7 C          -0.9066    2.7454   -0.5143 C.ar    1  UNL1       -0.0176
      8 C          -2.1107    3.3499   -0.8648 C.ar    1  UNL1       -0.0506
      9 C          -2.2778    4.7099   -0.7309 C.ar    1  UNL1       -0.0194
     10 C          -1.2505    5.5146   -0.2432 C.ar    1  UNL1        0.1206
     11 O          -1.3953    6.8730   -0.1018 O.3     1  UNL1       -0.4897
     12 C          -0.4191    7.7427    0.3781 C.3     1  UNL1        0.1128
     13 C          -0.9112    9.1782    0.4033 C.3     1  UNL1        0.0813
     14 O          -1.2778    9.6549   -0.8304 O.3     1  UNL1       -0.3796
     15 C          -0.2777    9.6593   -1.7742 C.3     1  UNL1        0.0366
     16 C          -0.0539    4.9344    0.1080 C.ar    1  UNL1       -0.0194
     17 C           0.0902    3.5672   -0.0350 C.ar    1  UNL1       -0.0506
     18 C          -1.8858    0.4606   -0.5325 C.ar    1  UNL1       -0.0415
     19 C          -1.7659   -0.8929   -0.6846 C.ar    1  UNL1        0.0419
     20 C          -2.9407   -1.7763   -0.5296 C.2     1  UNL1        0.2447
     21 O          -3.1146   -2.5680   -1.4751 O.2     1  UNL1       -0.2702
     22 N          -3.7699   -1.7110    0.5860 N.am    1  UNL1       -0.3070
     23 C          -4.9133   -2.4960    0.8468 C.3     1  UNL1        0.0425
     24 C          -4.7802   -3.9505    0.9473 C.ar    1  UNL1        0.0368
     25 C          -4.9294   -4.8491   -0.0761 C.ar    1  UNL1       -0.0390
     26 C          -5.4071   -4.4663   -1.4206 C.3     1  UNL1       -0.0392
     27 C          -4.6904   -6.2003    0.1624 C.ar    1  UNL1       -0.0393
     28 C          -4.3093   -6.6452    1.4099 C.ar    1  UNL1        0.0162
     29 C          -4.0527   -8.0840    1.6718 C.3     1  UNL1       -0.0244
     30 N          -4.1735   -5.7258    2.4001 N.ar    1  UNL1       -0.3262
     31 C          -4.3925   -4.4251    2.2099 C.ar    1  UNL1        0.2539
     32 O          -4.2590   -3.5969    3.1439 O.2     1  UNL1       -0.2675
     33 C          -0.5536   -1.4522   -0.9790 C.ar    1  UNL1       -0.0173
     34 C          -0.4492   -2.9110   -1.1307 C.3     1  UNL1       -0.0372
     35 C           2.9364   -1.3776   -0.5420 C.3     1  UNL1        0.0236
     36 C           4.1786   -0.7183   -1.0645 C.3     1  UNL1       -0.0330
     37 C           5.2604   -0.9571   -0.0001 C.3     1  UNL1       -0.0357
     38 C           4.9503    0.0312    1.1050 C.3     1  UNL1        0.0100
     39 N           5.6978   -0.3509    2.3057 N.3     1  UNL1       -0.3054
     40 C           5.4481    0.5739    3.3927 C.3     1  UNL1       -0.0128
     41 C           7.1230   -0.3400    2.0473 C.3     1  UNL1       -0.0128
     42 C           3.4951    0.2077    1.3435 C.3     1  UNL1       -0.0357
     43 C           2.6372   -0.9008    0.8273 C.3     1  UNL1       -0.0330
     44 H           0.3905   -2.8012   -3.9290 H       1  UNL1        0.0245
     45 H           1.2074   -1.4381   -4.6900 H       1  UNL1        0.0245
     46 H           0.1458   -1.0935   -3.3029 H       1  UNL1        0.0245
     47 H           2.9250   -1.4601   -3.2473 H       1  UNL1        0.0461
     48 H           2.3398   -3.0115   -2.6448 H       1  UNL1        0.0461
     49 H           1.2923    1.3215   -1.0841 H       1  UNL1        0.0642
     50 H          -2.8994    2.7124   -1.2424 H       1  UNL1        0.0625
     51 H          -3.1994    5.1881   -0.9954 H       1  UNL1        0.0654
     52 H          -0.1282    7.5135    1.4419 H       1  UNL1        0.0720
     53 H           0.5100    7.6108   -0.2077 H       1  UNL1        0.0720
     54 H          -0.1297    9.7693    0.9008 H       1  UNL1        0.0593
     55 H          -1.8092    9.1901    1.0512 H       1  UNL1        0.0593
     56 H           0.0756    8.6254   -1.9201 H       1  UNL1        0.0524
     57 H          -0.6968   10.1054   -2.7004 H       1  UNL1        0.0524
     58 H           0.5911   10.2940   -1.4768 H       1  UNL1        0.0524
     59 H           0.7715    5.5526    0.4969 H       1  UNL1        0.0654
     60 H           1.0295    3.1283    0.2411 H       1  UNL1        0.0625
     61 H          -2.8373    0.9148   -0.3013 H       1  UNL1        0.0631
     62 H          -3.4784   -0.9667    1.3109 H       1  UNL1        0.1493
     63 H          -5.7319   -2.3120    0.0996 H       1  UNL1        0.0513
     64 H          -5.3569   -2.1134    1.8209 H       1  UNL1        0.0513
     65 H          -6.3184   -5.0928   -1.6507 H       1  UNL1        0.0278
     66 H          -4.6143   -4.7551   -2.1611 H       1  UNL1        0.0278
     67 H          -5.7230   -3.4345   -1.5404 H       1  UNL1        0.0278
     68 H          -4.8039   -6.9077   -0.6432 H       1  UNL1        0.0637
     69 H          -3.0378   -8.1690    2.1017 H       1  UNL1        0.0292
     70 H          -4.1045   -8.6171    0.7114 H       1  UNL1        0.0292
     71 H          -4.8054   -8.4272    2.3958 H       1  UNL1        0.0292
     72 H          -3.8822   -6.0519    3.3646 H       1  UNL1        0.1686
     73 H          -0.9720   -3.2900   -2.0184 H       1  UNL1        0.0278
     74 H           0.5908   -3.2902   -1.0333 H       1  UNL1        0.0278
     75 H          -0.9875   -3.3963   -0.2605 H       1  UNL1        0.0278
     76 H           3.1849   -2.4792   -0.4834 H       1  UNL1        0.0500
     77 H           4.0987    0.3813   -1.1563 H       1  UNL1        0.0284
     78 H           4.5355   -1.1694   -2.0102 H       1  UNL1        0.0284
     79 H           6.2540   -0.8299   -0.4290 H       1  UNL1        0.0281
     80 H           5.1190   -2.0091    0.3202 H       1  UNL1        0.0281
     81 H           5.3705    1.0100    0.7826 H       1  UNL1        0.0462
     82 H           4.5959    0.2550    4.0242 H       1  UNL1        0.0391
     83 H           5.2912    1.6165    3.0378 H       1  UNL1        0.0391
     84 H           6.3857    0.6264    4.0129 H       1  UNL1        0.0391
     85 H           7.5023   -1.3121    1.6918 H       1  UNL1        0.0391
     86 H           7.6758   -0.1008    2.9870 H       1  UNL1        0.0391
     87 H           7.4048    0.4941    1.3462 H       1  UNL1        0.0391
     88 H           3.3244    0.2749    2.4437 H       1  UNL1        0.0281
     89 H           3.1210    1.1770    0.9382 H       1  UNL1        0.0281
     90 H           2.7007   -1.7376    1.5818 H       1  UNL1        0.0284
     91 H           1.5707   -0.5462    0.9224 H       1  UNL1        0.0284
@<TRIPOS>BOND
     1     1     2    1
     2     2     3    1
     3     3     4    1
     4     4     5   ar
     5     5     6   ar
     6     6     7    1
     7     7     8   ar
     8     8     9   ar
     9     9    10   ar
    10    10    11    1
    11    11    12    1
    12    12    13    1
    13    13    14    1
    14    14    15    1
    15    10    16   ar
    16    16    17   ar
    17     6    18   ar
    18    18    19   ar
    19    19    20    1
    20    20    21    2
    21    20    22   am
    22    22    23    1
    23    23    24    1
    24    24    25   ar
    25    25    26    1
    26    25    27   ar
    27    27    28   ar
    28    28    29    1
    29    28    30   ar
    30    30    31   ar
    31    31    32    2
    32    19    33   ar
    33    33    34    1
    34     3    35    1
    35    35    36    1
    36    36    37    1
    37    37    38    1
    38    38    39    1
    39    39    40    1
    40    39    41    1
    41    38    42    1
    42    42    43    1
    43    33     4   ar
    44    43    35    1
    45    17     7   ar
    46    31    24   ar
    47     1    44    1
    48     1    45    1
    49     1    46    1
    50     2    47    1
    51     2    48    1
    52     5    49    1
    53     8    50    1
    54     9    51    1
    55    12    52    1
    56    12    53    1
    57    13    54    1
    58    13    55    1
    59    15    56    1
    60    15    57    1
    61    15    58    1
    62    16    59    1
    63    17    60    1
    64    18    61    1
    65    22    62    1
    66    23    63    1
    67    23    64    1
    68    26    65    1
    69    26    66    1
    70    26    67    1
    71    27    68    1
    72    29    69    1
    73    29    70    1
    74    29    71    1
    75    30    72    1
    76    34    73    1
    77    34    74    1
    78    34    75    1
    79    35    76    1
    80    36    77    1
    81    36    78    1
    82    37    79    1
    83    37    80    1
    84    38    81    1
    85    40    82    1
    86    40    83    1
    87    40    84    1
    88    41    85    1
    89    41    86    1
    90    41    87    1
    91    42    88    1
    92    42    89    1
    93    43    90    1
    94    43    91    1
