
     RDKit          3D

 45 48  0  0  0  0  0  0  0  0999 V2000
    6.4581   -2.6618    1.4042 C   0  0  0  0  0  0  0  0  0  0  0  0
    5.1123   -2.1782    0.9871 C   0  0  0  0  0  0  0  0  0  0  0  0
    4.0383   -2.8508    0.4467 C   0  0  0  0  0  0  0  0  0  0  0  0
    2.9363   -2.1357    0.1677 C   0  0  0  0  0  0  0  0  0  0  0  0
    2.9038   -0.8275    0.4120 C   0  0  0  0  0  0  0  0  0  0  0  0
    1.8861    0.1900    0.2244 C   0  0  0  0  0  0  0  0  0  0  0  0
    2.1210    1.5022    0.5710 C   0  0  0  0  0  0  0  0  0  0  0  0
    1.1532    2.4829    0.3953 C   0  0  0  0  0  0  0  0  0  0  0  0
    1.0783    3.8047    0.6260 N   0  0  0  0  0  0  0  0  0  0  0  0
   -0.1044    4.2558    0.2646 N   0  0  0  0  0  0  0  0  0  0  0  0
   -0.4844    5.6653    0.3965 C   0  0  0  0  0  0  0  0  0  0  0  0
   -0.8478    3.2520   -0.2150 C   0  0  0  0  0  0  0  0  0  0  0  0
   -0.0547    2.1071   -0.1378 C   0  0  0  0  0  0  0  0  0  0  0  0
   -0.2788    0.8086   -0.4777 C   0  0  0  0  0  0  0  0  0  0  0  0
   -1.5085    0.4420   -1.0173 O   0  0  0  0  0  0  0  0  0  0  0  0
   -1.7154   -0.9054   -1.3601 C   0  0  2  0  0  0  0  0  0  0  0  0
   -2.0988   -0.9828   -2.8228 C   0  0  0  0  0  0  0  0  0  0  0  0
   -2.8508   -1.5111   -0.5727 C   0  0  1  0  0  0  0  0  0  0  0  0
   -2.6117   -1.4761    0.9174 C   0  0  0  0  0  0  0  0  0  0  0  0
   -3.9600   -1.6332    1.4369 N   0  0  0  0  0  0  0  0  0  0  0  0
   -4.8782   -1.1108    0.4878 C   0  0  0  0  0  0  0  0  0  0  0  0
   -6.1241   -1.0408    0.6135 O   0  0  0  0  0  0  0  0  0  0  0  0
   -4.1155   -0.6526   -0.6974 C   0  0  0  0  0  0  0  0  0  0  0  0
    0.6922   -0.1110   -0.2887 N   0  0  0  0  0  0  0  0  0  0  0  0
    4.5343   -0.5266    1.0912 S   0  0  0  0  0  0  0  0  0  0  0  0
    6.5255   -2.8198    2.5008 H   0  0  0  0  0  0  0  0  0  0  0  0
    6.6510   -3.5849    0.8319 H   0  0  0  0  0  0  0  0  0  0  0  0
    7.1715   -1.8409    1.1613 H   0  0  0  0  0  0  0  0  0  0  0  0
    4.1627   -3.9540    0.2776 H   0  0  0  0  0  0  0  0  0  0  0  0
    2.0328   -2.6398   -0.2748 H   0  0  0  0  0  0  0  0  0  0  0  0
    3.0577    1.7904    0.9838 H   0  0  0  0  0  0  0  0  0  0  0  0
    0.2968    6.3228   -0.0225 H   0  0  0  0  0  0  0  0  0  0  0  0
   -0.5971    5.9265    1.4805 H   0  0  0  0  0  0  0  0  0  0  0  0
   -1.4039    5.8032   -0.1785 H   0  0  0  0  0  0  0  0  0  0  0  0
   -1.8706    3.3144   -0.5917 H   0  0  0  0  0  0  0  0  0  0  0  0
   -0.8120   -1.4786   -1.1286 H   0  0  0  0  0  0  0  0  0  0  0  0
   -2.9440   -1.6533   -2.9925 H   0  0  0  0  0  0  0  0  0  0  0  0
   -2.4336    0.0358   -3.1663 H   0  0  0  0  0  0  0  0  0  0  0  0
   -1.2431   -1.3160   -3.4122 H   0  0  0  0  0  0  0  0  0  0  0  0
   -3.0939   -2.5283   -0.8693 H   0  0  0  0  0  0  0  0  0  0  0  0
   -2.1730   -0.4936    1.2417 H   0  0  0  0  0  0  0  0  0  0  0  0
   -1.9585   -2.3196    1.1893 H   0  0  0  0  0  0  0  0  0  0  0  0
   -4.1885   -2.0626    2.3588 H   0  0  0  0  0  0  0  0  0  0  0  0
   -3.8386    0.4234   -0.5938 H   0  0  0  0  0  0  0  0  0  0  0  0
   -4.6223   -0.8313   -1.6482 H   0  0  0  0  0  0  0  0  0  0  0  0
  1  2  1  0
  2  3  2  0
  3  4  1  0
  4  5  2  0
  5  6  1  0
  6  7  2  0
  7  8  1  0
  8  9  2  0
  9 10  1  0
 10 11  1  0
 10 12  1  0
 12 13  2  0
 13 14  1  0
 14 15  1  0
 15 16  1  0
 16 17  1  0
 16 18  1  0
 18 19  1  0
 19 20  1  0
 20 21  1  0
 21 22  2  0
 21 23  1  0
 14 24  2  0
  5 25  1  0
 25  2  1  0
 24  6  1  0
 13  8  1  0
 23 18  1  0
  1 26  1  0
  1 27  1  0
  1 28  1  0
  3 29  1  0
  4 30  1  0
  7 31  1  0
 11 32  1  0
 11 33  1  0
 11 34  1  0
 12 35  1  0
 16 36  1  6
 17 37  1  0
 17 38  1  0
 17 39  1  0
 18 40  1  6
 19 41  1  0
 19 42  1  0
 20 43  1  0
 23 44  1  0
 23 45  1  0
M  END
$$$$
