@<TRIPOS>MOLECULE
*****
 45 48 0 0 0
SMALL
GASTEIGER

@<TRIPOS>ATOM
      1 C           6.4581   -2.6618    1.4042 C.3     1  UNL1       -0.0334
      2 C           5.1123   -2.1782    0.9871 C.ar    1  UNL1       -0.0126
      3 C           4.0383   -2.8508    0.4467 C.ar    1  UNL1       -0.0512
      4 C           2.9363   -2.1357    0.1677 C.ar    1  UNL1       -0.0452
      5 C           2.9038   -0.8275    0.4120 C.ar    1  UNL1        0.0380
      6 C           1.8861    0.1900    0.2244 C.ar    1  UNL1        0.0835
      7 C           2.1210    1.5022    0.5710 C.ar    1  UNL1       -0.0072
      8 C           1.1532    2.4829    0.3953 C.ar    1  UNL1        0.0999
      9 N           1.0783    3.8047    0.6260 N.ar    1  UNL1       -0.1712
     10 N          -0.1044    4.2558    0.2646 N.ar    1  UNL1       -0.2732
     11 C          -0.4844    5.6653    0.3965 C.3     1  UNL1        0.0302
     12 C          -0.8478    3.2520   -0.2150 C.ar    1  UNL1        0.0380
     13 C          -0.0547    2.1071   -0.1378 C.ar    1  UNL1        0.0812
     14 C          -0.2788    0.8086   -0.4777 C.ar    1  UNL1        0.2265
     15 O          -1.5085    0.4420   -1.0173 O.3     1  UNL1       -0.4725
     16 C          -1.7154   -0.9054   -1.3601 C.3     1  UNL1        0.1037
     17 C          -2.0988   -0.9828   -2.8228 C.3     1  UNL1       -0.0274
     18 C          -2.8508   -1.5111   -0.5727 C.3     1  UNL1        0.0196
     19 C          -2.6117   -1.4761    0.9174 C.3     1  UNL1        0.0182
     20 N          -3.9600   -1.6332    1.4369 N.am    1  UNL1       -0.3149
     21 C          -4.8782   -1.1108    0.4878 C.2     1  UNL1        0.2135
     22 O          -6.1241   -1.0408    0.6135 O.2     1  UNL1       -0.2758
     23 C          -4.1155   -0.6526   -0.6974 C.3     1  UNL1        0.0315
     24 N           0.6922   -0.1110   -0.2887 N.ar    1  UNL1       -0.2117
     25 S           4.5343   -0.5266    1.0912 S.2     1  UNL1       -0.0919
     26 H           6.5255   -2.8198    2.5008 H       1  UNL1        0.0283
     27 H           6.6510   -3.5849    0.8319 H       1  UNL1        0.0283
     28 H           7.1715   -1.8409    1.1613 H       1  UNL1        0.0283
     29 H           4.1627   -3.9540    0.2776 H       1  UNL1        0.0626
     30 H           2.0328   -2.6398   -0.2748 H       1  UNL1        0.0630
     31 H           3.0577    1.7904    0.9838 H       1  UNL1        0.0661
     32 H           0.2968    6.3228   -0.0225 H       1  UNL1        0.0473
     33 H          -0.5971    5.9265    1.4805 H       1  UNL1        0.0473
     34 H          -1.4039    5.8032   -0.1785 H       1  UNL1        0.0473
     35 H          -1.8706    3.3144   -0.5917 H       1  UNL1        0.0834
     36 H          -0.8120   -1.4786   -1.1286 H       1  UNL1        0.0734
     37 H          -2.9440   -1.6533   -2.9925 H       1  UNL1        0.0265
     38 H          -2.4336    0.0358   -3.1663 H       1  UNL1        0.0265
     39 H          -1.2431   -1.3160   -3.4122 H       1  UNL1        0.0265
     40 H          -3.0939   -2.5283   -0.8693 H       1  UNL1        0.0356
     41 H          -2.1730   -0.4936    1.2417 H       1  UNL1        0.0466
     42 H          -1.9585   -2.3196    1.1893 H       1  UNL1        0.0466
     43 H          -4.1885   -2.0626    2.3588 H       1  UNL1        0.1487
     44 H          -3.8386    0.4234   -0.5938 H       1  UNL1        0.0363
     45 H          -4.6223   -0.8313   -1.6482 H       1  UNL1        0.0363
@<TRIPOS>BOND
     1     1     2    1
     2     2     3   ar
     3     3     4   ar
     4     4     5   ar
     5     5     6    1
     6     6     7   ar
     7     7     8   ar
     8     8     9   ar
     9     9    10   ar
    10    10    11    1
    11    10    12   ar
    12    12    13   ar
    13    13    14   ar
    14    14    15    1
    15    15    16    1
    16    16    17    1
    17    16    18    1
    18    18    19    1
    19    19    20    1
    20    20    21   am
    21    21    22    2
    22    21    23    1
    23    14    24   ar
    24     5    25   ar
    25    25     2   ar
    26    24     6   ar
    27    13     8   ar
    28    23    18    1
    29     1    26    1
    30     1    27    1
    31     1    28    1
    32     3    29    1
    33     4    30    1
    34     7    31    1
    35    11    32    1
    36    11    33    1
    37    11    34    1
    38    12    35    1
    39    16    36    1
    40    17    37    1
    41    17    38    1
    42    17    39    1
    43    18    40    1
    44    19    41    1
    45    19    42    1
    46    20    43    1
    47    23    44    1
    48    23    45    1
