@<TRIPOS>MOLECULE
*****
 74 81 0 0 0
SMALL
GASTEIGER

@<TRIPOS>ATOM
      1 N         -10.2910    3.1318   -3.1569 N.pl3   1  UNL1       -0.3273
      2 C          -9.5334    2.1301   -2.4834 C.ar    1  UNL1        0.2188
      3 N          -9.9460    0.9112   -2.1499 N.ar    1  UNL1       -0.1129
      4 N          -8.9721    0.2419   -1.5309 N.ar    1  UNL1       -0.1271
      5 C          -7.9051    1.0549   -1.4658 C.ar    1  UNL1        0.1716
      6 C          -6.6514    0.8583   -0.9335 C.ar    1  UNL1        0.0456
      7 C          -6.2675   -0.3347   -0.3223 C.ar    1  UNL1       -0.0392
      8 C          -5.0020   -0.4951    0.1988 C.ar    1  UNL1        0.0088
      9 C          -4.5216   -1.6981    0.8490 C.ar    1  UNL1       -0.0158
     10 C          -4.4748   -2.9190    0.1775 C.ar    1  UNL1       -0.0540
     11 C          -4.0210   -4.0714    0.7852 C.ar    1  UNL1       -0.0612
     12 C          -3.6056   -3.9756    2.1082 C.ar    1  UNL1       -0.0617
     13 C          -3.6390   -2.7834    2.8015 C.ar    1  UNL1       -0.0612
     14 C          -4.0995   -1.6541    2.1583 C.ar    1  UNL1       -0.0540
     15 C          -4.1414    0.5724    0.0875 C.ar    1  UNL1        0.0794
     16 C          -2.8046    0.4822    0.6039 C.ar    1  UNL1        0.0010
     17 C          -2.3922    1.3230    1.5950 C.ar    1  UNL1       -0.0522
     18 C          -1.1208    1.2523    2.0940 C.ar    1  UNL1       -0.0567
     19 C          -0.2084    0.3279    1.6136 C.ar    1  UNL1       -0.0333
     20 C           1.1584    0.2751    2.1794 C.3     1  UNL1        0.0240
     21 N           2.0285    1.1802    1.5112 N.3     1  UNL1       -0.2981
     22 C           2.2156    0.9996    0.1177 C.3     1  UNL1       -0.0001
     23 C           3.3911    0.1123   -0.2458 C.3     1  UNL1       -0.0304
     24 C           4.6400    0.6968    0.3881 C.3     1  UNL1        0.0212
     25 C           5.7779   -0.2276    0.1787 C.ar    1  UNL1        0.1344
     26 N           5.9424   -1.4440    0.7043 N.ar    1  UNL1       -0.1339
     27 N           7.0906   -1.9859    0.2915 N.ar    1  UNL1       -0.1278
     28 C           7.6825   -1.0978   -0.5212 C.ar    1  UNL1        0.1800
     29 C           8.9525   -1.2100   -1.2274 C.ar    1  UNL1        0.1077
     30 C           9.7275   -2.3384   -1.1141 C.ar    1  UNL1       -0.0326
     31 C          10.9420   -2.4691   -1.7763 C.ar    1  UNL1       -0.0582
     32 C          11.3903   -1.4363   -2.5751 C.ar    1  UNL1       -0.0436
     33 C          10.5929   -0.3151   -2.6713 C.ar    1  UNL1        0.0284
     34 N           9.4221   -0.2254   -2.0143 N.ar    1  UNL1       -0.2519
     35 N           6.8813   -0.0221   -0.5915 N.ar    1  UNL1       -0.3237
     36 C           4.4617    0.9006    1.8677 C.3     1  UNL1       -0.0304
     37 C           3.1888    1.5986    2.2121 C.3     1  UNL1       -0.0001
     38 C          -0.6305   -0.5205    0.6117 C.ar    1  UNL1       -0.0567
     39 C          -1.9329   -0.4494    0.0988 C.ar    1  UNL1       -0.0522
     40 N          -4.5321    1.7328   -0.5129 N.ar    1  UNL1       -0.2459
     41 C          -5.7484    1.8955   -1.0172 C.ar    1  UNL1        0.0766
     42 C          -6.1472    3.0878   -1.6346 C.ar    1  UNL1       -0.0189
     43 C          -7.4106    3.2611   -2.1615 C.ar    1  UNL1        0.0164
     44 N          -8.2619    2.2213   -2.0577 N.ar    1  UNL1       -0.2704
     45 H          -9.8414    4.0294   -3.4550 H       1  UNL1        0.1452
     46 H         -11.3001    2.9999   -3.3683 H       1  UNL1        0.1452
     47 H          -6.9642   -1.1496   -0.2520 H       1  UNL1        0.0632
     48 H          -4.8079   -2.9761   -0.8706 H       1  UNL1        0.0624
     49 H          -4.0041   -4.9812    0.2320 H       1  UNL1        0.0618
     50 H          -3.2436   -4.8864    2.6001 H       1  UNL1        0.0618
     51 H          -3.3149   -2.6984    3.8404 H       1  UNL1        0.0618
     52 H          -4.1277   -0.7186    2.6975 H       1  UNL1        0.0624
     53 H          -3.0735    2.0501    1.9895 H       1  UNL1        0.0624
     54 H          -0.8051    1.9341    2.8895 H       1  UNL1        0.0621
     55 H           1.5397   -0.7807    2.1808 H       1  UNL1        0.0476
     56 H           1.1152    0.5796    3.2613 H       1  UNL1        0.0476
     57 H           2.4392    1.9972   -0.3286 H       1  UNL1        0.0427
     58 H           1.3419    0.6108   -0.4027 H       1  UNL1        0.0427
     59 H           3.2771   -0.9148    0.0963 H       1  UNL1        0.0284
     60 H           3.4986    0.1365   -1.3353 H       1  UNL1        0.0284
     61 H           4.8697    1.6408   -0.1656 H       1  UNL1        0.0380
     62 H           9.4046   -3.1572   -0.5001 H       1  UNL1        0.0640
     63 H          11.5587   -3.3547   -1.6927 H       1  UNL1        0.0619
     64 H          12.3311   -1.4859   -3.1143 H       1  UNL1        0.0633
     65 H          10.9500    0.5064   -3.3071 H       1  UNL1        0.0830
     66 H           7.0083    0.8656   -1.1249 H       1  UNL1        0.1686
     67 H           4.5325   -0.1131    2.3388 H       1  UNL1        0.0284
     68 H           5.3033    1.5102    2.2487 H       1  UNL1        0.0284
     69 H           3.3306    2.6898    2.0432 H       1  UNL1        0.0427
     70 H           3.0239    1.4392    3.3148 H       1  UNL1        0.0427
     71 H           0.0176   -1.2693    0.1895 H       1  UNL1        0.0621
     72 H          -2.1728   -1.1530   -0.6830 H       1  UNL1        0.0624
     73 H          -5.4140    3.8833   -1.6843 H       1  UNL1        0.0654
     74 H          -7.6976    4.1909   -2.6339 H       1  UNL1        0.0815
@<TRIPOS>BOND
     1     1     2    1
     2     2     3   ar
     3     3     4   ar
     4     4     5   ar
     5     5     6   ar
     6     6     7   ar
     7     7     8   ar
     8     8     9    1
     9     9    10   ar
    10    10    11   ar
    11    11    12   ar
    12    12    13   ar
    13    13    14   ar
    14     8    15   ar
    15    15    16    1
    16    16    17   ar
    17    17    18   ar
    18    18    19   ar
    19    19    20    1
    20    20    21    1
    21    21    22    1
    22    22    23    1
    23    23    24    1
    24    24    25    1
    25    25    26   ar
    26    26    27   ar
    27    27    28   ar
    28    28    29    1
    29    29    30   ar
    30    30    31   ar
    31    31    32   ar
    32    32    33   ar
    33    33    34   ar
    34    28    35   ar
    35    24    36    1
    36    36    37    1
    37    19    38   ar
    38    38    39   ar
    39    15    40   ar
    40    40    41   ar
    41    41    42   ar
    42    42    43   ar
    43    43    44   ar
    44    44     2   ar
    45    44     5   ar
    46    41     6   ar
    47    14     9   ar
    48    39    16   ar
    49    37    21    1
    50    35    25   ar
    51    34    29   ar
    52     1    45    1
    53     1    46    1
    54     7    47    1
    55    10    48    1
    56    11    49    1
    57    12    50    1
    58    13    51    1
    59    14    52    1
    60    17    53    1
    61    18    54    1
    62    20    55    1
    63    20    56    1
    64    22    57    1
    65    22    58    1
    66    23    59    1
    67    23    60    1
    68    24    61    1
    69    30    62    1
    70    31    63    1
    71    32    64    1
    72    33    65    1
    73    35    66    1
    74    36    67    1
    75    36    68    1
    76    37    69    1
    77    37    70    1
    78    38    71    1
    79    39    72    1
    80    42    73    1
    81    43    74    1
