
     RDKit          3D

 74 81  0  0  0  0  0  0  0  0999 V2000
  -10.2910    3.1318   -3.1569 N   0  0  0  0  0  0  0  0  0  0  0  0
   -9.5334    2.1301   -2.4834 C   0  0  0  0  0  0  0  0  0  0  0  0
   -9.9460    0.9112   -2.1499 N   0  0  0  0  0  0  0  0  0  0  0  0
   -8.9721    0.2419   -1.5309 N   0  0  0  0  0  0  0  0  0  0  0  0
   -7.9051    1.0549   -1.4658 C   0  0  0  0  0  0  0  0  0  0  0  0
   -6.6514    0.8583   -0.9335 C   0  0  0  0  0  0  0  0  0  0  0  0
   -6.2675   -0.3347   -0.3223 C   0  0  0  0  0  0  0  0  0  0  0  0
   -5.0020   -0.4951    0.1988 C   0  0  0  0  0  0  0  0  0  0  0  0
   -4.5216   -1.6981    0.8490 C   0  0  0  0  0  0  0  0  0  0  0  0
   -4.4748   -2.9190    0.1775 C   0  0  0  0  0  0  0  0  0  0  0  0
   -4.0210   -4.0714    0.7852 C   0  0  0  0  0  0  0  0  0  0  0  0
   -3.6056   -3.9756    2.1082 C   0  0  0  0  0  0  0  0  0  0  0  0
   -3.6390   -2.7834    2.8015 C   0  0  0  0  0  0  0  0  0  0  0  0
   -4.0995   -1.6541    2.1583 C   0  0  0  0  0  0  0  0  0  0  0  0
   -4.1414    0.5724    0.0875 C   0  0  0  0  0  0  0  0  0  0  0  0
   -2.8046    0.4822    0.6039 C   0  0  0  0  0  0  0  0  0  0  0  0
   -2.3922    1.3230    1.5950 C   0  0  0  0  0  0  0  0  0  0  0  0
   -1.1208    1.2523    2.0940 C   0  0  0  0  0  0  0  0  0  0  0  0
   -0.2084    0.3279    1.6136 C   0  0  0  0  0  0  0  0  0  0  0  0
    1.1584    0.2751    2.1794 C   0  0  0  0  0  0  0  0  0  0  0  0
    2.0285    1.1802    1.5112 N   0  0  0  0  0  0  0  0  0  0  0  0
    2.2156    0.9996    0.1177 C   0  0  0  0  0  0  0  0  0  0  0  0
    3.3911    0.1123   -0.2458 C   0  0  0  0  0  0  0  0  0  0  0  0
    4.6400    0.6968    0.3881 C   0  0  0  0  0  0  0  0  0  0  0  0
    5.7779   -0.2276    0.1787 C   0  0  0  0  0  0  0  0  0  0  0  0
    5.9424   -1.4440    0.7043 N   0  0  0  0  0  0  0  0  0  0  0  0
    7.0906   -1.9859    0.2915 N   0  0  0  0  0  0  0  0  0  0  0  0
    7.6825   -1.0978   -0.5212 C   0  0  0  0  0  0  0  0  0  0  0  0
    8.9525   -1.2100   -1.2274 C   0  0  0  0  0  0  0  0  0  0  0  0
    9.7275   -2.3384   -1.1141 C   0  0  0  0  0  0  0  0  0  0  0  0
   10.9420   -2.4691   -1.7763 C   0  0  0  0  0  0  0  0  0  0  0  0
   11.3903   -1.4363   -2.5751 C   0  0  0  0  0  0  0  0  0  0  0  0
   10.5929   -0.3151   -2.6713 C   0  0  0  0  0  0  0  0  0  0  0  0
    9.4221   -0.2254   -2.0143 N   0  0  0  0  0  0  0  0  0  0  0  0
    6.8813   -0.0221   -0.5915 N   0  0  0  0  0  0  0  0  0  0  0  0
    4.4617    0.9006    1.8677 C   0  0  0  0  0  0  0  0  0  0  0  0
    3.1888    1.5986    2.2121 C   0  0  0  0  0  0  0  0  0  0  0  0
   -0.6305   -0.5205    0.6117 C   0  0  0  0  0  0  0  0  0  0  0  0
   -1.9329   -0.4494    0.0988 C   0  0  0  0  0  0  0  0  0  0  0  0
   -4.5321    1.7328   -0.5129 N   0  0  0  0  0  0  0  0  0  0  0  0
   -5.7484    1.8955   -1.0172 C   0  0  0  0  0  0  0  0  0  0  0  0
   -6.1472    3.0878   -1.6346 C   0  0  0  0  0  0  0  0  0  0  0  0
   -7.4106    3.2611   -2.1615 C   0  0  0  0  0  0  0  0  0  0  0  0
   -8.2619    2.2213   -2.0577 N   0  0  0  0  0  0  0  0  0  0  0  0
   -9.8414    4.0294   -3.4550 H   0  0  0  0  0  0  0  0  0  0  0  0
  -11.3001    2.9999   -3.3683 H   0  0  0  0  0  0  0  0  0  0  0  0
   -6.9642   -1.1496   -0.2520 H   0  0  0  0  0  0  0  0  0  0  0  0
   -4.8079   -2.9761   -0.8706 H   0  0  0  0  0  0  0  0  0  0  0  0
   -4.0041   -4.9812    0.2320 H   0  0  0  0  0  0  0  0  0  0  0  0
   -3.2436   -4.8864    2.6001 H   0  0  0  0  0  0  0  0  0  0  0  0
   -3.3149   -2.6984    3.8404 H   0  0  0  0  0  0  0  0  0  0  0  0
   -4.1277   -0.7186    2.6975 H   0  0  0  0  0  0  0  0  0  0  0  0
   -3.0735    2.0501    1.9895 H   0  0  0  0  0  0  0  0  0  0  0  0
   -0.8051    1.9341    2.8895 H   0  0  0  0  0  0  0  0  0  0  0  0
    1.5397   -0.7807    2.1808 H   0  0  0  0  0  0  0  0  0  0  0  0
    1.1152    0.5796    3.2613 H   0  0  0  0  0  0  0  0  0  0  0  0
    2.4392    1.9972   -0.3286 H   0  0  0  0  0  0  0  0  0  0  0  0
    1.3419    0.6108   -0.4027 H   0  0  0  0  0  0  0  0  0  0  0  0
    3.2771   -0.9148    0.0963 H   0  0  0  0  0  0  0  0  0  0  0  0
    3.4986    0.1365   -1.3353 H   0  0  0  0  0  0  0  0  0  0  0  0
    4.8697    1.6408   -0.1656 H   0  0  0  0  0  0  0  0  0  0  0  0
    9.4046   -3.1572   -0.5001 H   0  0  0  0  0  0  0  0  0  0  0  0
   11.5587   -3.3547   -1.6927 H   0  0  0  0  0  0  0  0  0  0  0  0
   12.3311   -1.4859   -3.1143 H   0  0  0  0  0  0  0  0  0  0  0  0
   10.9500    0.5064   -3.3071 H   0  0  0  0  0  0  0  0  0  0  0  0
    7.0083    0.8656   -1.1249 H   0  0  0  0  0  0  0  0  0  0  0  0
    4.5325   -0.1131    2.3388 H   0  0  0  0  0  0  0  0  0  0  0  0
    5.3033    1.5102    2.2487 H   0  0  0  0  0  0  0  0  0  0  0  0
    3.3306    2.6898    2.0432 H   0  0  0  0  0  0  0  0  0  0  0  0
    3.0239    1.4392    3.3148 H   0  0  0  0  0  0  0  0  0  0  0  0
    0.0176   -1.2693    0.1895 H   0  0  0  0  0  0  0  0  0  0  0  0
   -2.1728   -1.1530   -0.6830 H   0  0  0  0  0  0  0  0  0  0  0  0
   -5.4140    3.8833   -1.6843 H   0  0  0  0  0  0  0  0  0  0  0  0
   -7.6976    4.1909   -2.6339 H   0  0  0  0  0  0  0  0  0  0  0  0
  1  2  1  0
  2  3  2  0
  3  4  1  0
  4  5  2  0
  5  6  1  0
  6  7  2  0
  7  8  1  0
  8  9  1  0
  9 10  2  0
 10 11  1  0
 11 12  2  0
 12 13  1  0
 13 14  2  0
  8 15  2  0
 15 16  1  0
 16 17  2  0
 17 18  1  0
 18 19  2  0
 19 20  1  0
 20 21  1  0
 21 22  1  0
 22 23  1  0
 23 24  1  0
 24 25  1  0
 25 26  2  0
 26 27  1  0
 27 28  2  0
 28 29  1  0
 29 30  2  0
 30 31  1  0
 31 32  2  0
 32 33  1  0
 33 34  2  0
 28 35  1  0
 24 36  1  0
 36 37  1  0
 19 38  1  0
 38 39  2  0
 15 40  1  0
 40 41  2  0
 41 42  1  0
 42 43  2  0
 43 44  1  0
 44  2  1  0
 44  5  1  0
 41  6  1  0
 14  9  1  0
 39 16  1  0
 37 21  1  0
 35 25  1  0
 34 29  1  0
  1 45  1  0
  1 46  1  0
  7 47  1  0
 10 48  1  0
 11 49  1  0
 12 50  1  0
 13 51  1  0
 14 52  1  0
 17 53  1  0
 18 54  1  0
 20 55  1  0
 20 56  1  0
 22 57  1  0
 22 58  1  0
 23 59  1  0
 23 60  1  0
 24 61  1  0
 30 62  1  0
 31 63  1  0
 32 64  1  0
 33 65  1  0
 35 66  1  0
 36 67  1  0
 36 68  1  0
 37 69  1  0
 37 70  1  0
 38 71  1  0
 39 72  1  0
 42 73  1  0
 43 74  1  0
M  END
$$$$
