@<TRIPOS>MOLECULE
*****
 67 70 0 0 0
SMALL
GASTEIGER

@<TRIPOS>ATOM
      1 C          -5.8071   -7.1962    0.7870 C.3     1  UNL1       -0.0495
      2 C          -4.8762   -6.1039    0.3062 C.3     1  UNL1        0.0090
      3 N          -4.5711   -5.2161    1.4075 N.pl3   1  UNL1       -0.3137
      4 C          -3.6988   -4.1204    1.1280 C.ar    1  UNL1        0.2169
      5 N          -2.3797   -4.3053    1.2864 N.ar    1  UNL1       -0.2221
      6 C          -1.5173   -3.3090    1.0340 C.ar    1  UNL1        0.0466
      7 C          -1.9649   -2.0334    0.5941 C.ar    1  UNL1        0.0948
      8 C          -0.9264   -1.1362    0.1697 C.2     1  UNL1        0.2530
      9 O          -1.0906   -0.2950   -0.7225 O.2     1  UNL1       -0.2697
     10 N           0.3914   -1.1446    0.7554 N.am    1  UNL1       -0.2814
     11 C           1.4095   -0.2302    0.3030 C.ar    1  UNL1        0.0338
     12 C           1.5675    1.0106    0.8763 C.ar    1  UNL1       -0.0386
     13 C           2.5287    1.9138    0.4725 C.ar    1  UNL1       -0.0336
     14 C           3.3551    1.5190   -0.5607 C.ar    1  UNL1        0.1056
     15 S           4.5974    2.5907   -1.1385 S.O2    1  UNL1        0.0610
     16 O           4.1741    4.0223   -0.9886 O.2     1  UNL1       -0.1528
     17 O           4.9075    2.3263   -2.5657 O.2     1  UNL1       -0.1528
     18 N           6.0304    2.2699   -0.2166 N.3     1  UNL1       -0.1722
     19 C           6.4311    0.9091   -0.4387 C.3     1  UNL1        0.0440
     20 C           7.7600    0.5818    0.1706 C.3     1  UNL1        0.0621
     21 O           8.6430    1.6473    0.1937 O.3     1  UNL1       -0.3771
     22 C           8.3695    2.5786   -0.8038 C.3     1  UNL1        0.0621
     23 C           7.0194    3.2368   -0.5945 C.3     1  UNL1        0.0440
     24 C           3.2056    0.2841   -1.1387 C.ar    1  UNL1       -0.0336
     25 C           2.2477   -0.5844   -0.7178 C.ar    1  UNL1       -0.0386
     26 C          -3.2876   -1.8490    0.4428 C.ar    1  UNL1        0.1363
     27 N          -3.9093   -0.6268    0.2060 N.pl3   1  UNL1       -0.3255
     28 C          -3.4835    0.7085    0.2350 C.3     1  UNL1        0.0221
     29 C          -3.5885    1.4620   -1.0877 C.3     1  UNL1       -0.0322
     30 C          -2.8612    2.7886   -0.8452 C.3     1  UNL1       -0.0252
     31 C          -3.6554    3.6025    0.1271 C.3     1  UNL1        0.0554
     32 O          -2.8156    4.6397    0.5859 O.3     1  UNL1       -0.3918
     33 C          -4.1409    2.8641    1.3257 C.3     1  UNL1       -0.0252
     34 C          -4.5893    1.4668    1.0924 C.3     1  UNL1       -0.0322
     35 N          -4.1216   -2.9397    0.7236 N.ar    1  UNL1       -0.1990
     36 H          -6.5246   -7.4908   -0.0090 H       1  UNL1        0.0245
     37 H          -6.3334   -6.8071    1.6815 H       1  UNL1        0.0245
     38 H          -5.1836   -8.0488    1.1237 H       1  UNL1        0.0245
     39 H          -5.3130   -5.5259   -0.5453 H       1  UNL1        0.0459
     40 H          -3.9090   -6.5225   -0.0405 H       1  UNL1        0.0459
     41 H          -4.9588   -5.3517    2.3663 H       1  UNL1        0.1489
     42 H          -0.4633   -3.4647    1.1571 H       1  UNL1        0.0839
     43 H           0.5593   -1.8286    1.5123 H       1  UNL1        0.1551
     44 H           0.8969    1.3029    1.6982 H       1  UNL1        0.0637
     45 H           2.6367    2.9023    0.9465 H       1  UNL1        0.0638
     46 H           5.6660    0.2586    0.0670 H       1  UNL1        0.0466
     47 H           6.4029    0.6162   -1.5064 H       1  UNL1        0.0466
     48 H           7.6369    0.0961    1.1557 H       1  UNL1        0.0573
     49 H           8.2387   -0.2018   -0.4847 H       1  UNL1        0.0573
     50 H           8.4495    2.1526   -1.8246 H       1  UNL1        0.0573
     51 H           9.1418    3.3755   -0.7268 H       1  UNL1        0.0573
     52 H           7.1563    3.9775    0.2196 H       1  UNL1        0.0466
     53 H           6.7587    3.7414   -1.5567 H       1  UNL1        0.0466
     54 H           3.8859    0.0214   -1.9526 H       1  UNL1        0.0638
     55 H           2.1459   -1.5434   -1.1805 H       1  UNL1        0.0637
     56 H          -4.9656   -0.7221   -0.0841 H       1  UNL1        0.1478
     57 H          -2.5478    0.9668    0.7296 H       1  UNL1        0.0498
     58 H          -4.6629    1.7675   -1.2646 H       1  UNL1        0.0284
     59 H          -3.1916    0.9102   -1.9376 H       1  UNL1        0.0284
     60 H          -1.8628    2.5052   -0.4276 H       1  UNL1        0.0291
     61 H          -2.7594    3.3565   -1.7850 H       1  UNL1        0.0291
     62 H          -4.4728    4.1067   -0.4406 H       1  UNL1        0.0593
     63 H          -3.2400    5.5283    0.4847 H       1  UNL1        0.2098
     64 H          -3.4021    2.9137    2.1544 H       1  UNL1        0.0291
     65 H          -5.0361    3.4302    1.7159 H       1  UNL1        0.0291
     66 H          -5.5197    1.3363    0.5513 H       1  UNL1        0.0284
     67 H          -4.5814    0.9092    2.0436 H       1  UNL1        0.0284
@<TRIPOS>BOND
     1     1     2    1
     2     2     3    1
     3     3     4    1
     4     4     5   ar
     5     5     6   ar
     6     6     7   ar
     7     7     8    1
     8     8     9    2
     9     8    10   am
    10    10    11    1
    11    11    12   ar
    12    12    13   ar
    13    13    14   ar
    14    14    15    1
    15    15    16    2
    16    15    17    2
    17    15    18    1
    18    18    19    1
    19    19    20    1
    20    20    21    1
    21    21    22    1
    22    22    23    1
    23    14    24   ar
    24    24    25   ar
    25     7    26   ar
    26    26    27    1
    27    27    28    1
    28    28    29    1
    29    29    30    1
    30    30    31    1
    31    31    32    1
    32    31    33    1
    33    33    34    1
    34    26    35   ar
    35    35     4   ar
    36    25    11   ar
    37    34    28    1
    38    23    18    1
    39     1    36    1
    40     1    37    1
    41     1    38    1
    42     2    39    1
    43     2    40    1
    44     3    41    1
    45     6    42    1
    46    10    43    1
    47    12    44    1
    48    13    45    1
    49    19    46    1
    50    19    47    1
    51    20    48    1
    52    20    49    1
    53    22    50    1
    54    22    51    1
    55    23    52    1
    56    23    53    1
    57    24    54    1
    58    25    55    1
    59    27    56    1
    60    28    57    1
    61    29    58    1
    62    29    59    1
    63    30    60    1
    64    30    61    1
    65    31    62    1
    66    32    63    1
    67    33    64    1
    68    33    65    1
    69    34    66    1
    70    34    67    1
