@<TRIPOS>MOLECULE
*****
 62 65 0 0 0
SMALL
GASTEIGER

@<TRIPOS>ATOM
      1 C           1.0151    0.4127   -0.6076 C.3     1  UNL1       -0.0283
      2 C           1.7820    0.5646   -1.8833 C.3     1  UNL1       -0.0453
      3 C           3.1714    0.0668   -1.4780 C.3     1  UNL1       -0.0050
      4 C           2.9853   -0.6347   -0.1491 C.3     1  UNL1        0.1758
      5 O           3.1063    0.2765    0.9370 O.3     1  UNL1       -0.4500
      6 C           4.2692    0.9878    1.1422 C.2     1  UNL1        0.3049
      7 C           4.3580    1.9252    2.2809 C.3     1  UNL1        0.0333
      8 O           5.3126    0.9250    0.4349 O.2     1  UNL1       -0.2511
      9 C           3.8377   -1.8080    0.0439 C.2     1  UNL1        0.1741
     10 C           4.0890   -3.0071   -0.7537 C.3     1  UNL1       -0.0020
     11 O           4.3626   -1.5657    1.1284 O.2     1  UNL1       -0.2934
     12 C           1.5322   -0.9877   -0.2322 C.3     1  UNL1        0.0179
     13 C           1.2098   -1.9114   -1.3584 C.3     1  UNL1       -0.0552
     14 C           0.8801   -1.3924    1.0254 C.3     1  UNL1       -0.0430
     15 C          -0.5890   -1.5908    0.7061 C.3     1  UNL1       -0.0485
     16 C          -1.1784   -0.2621    0.3726 C.3     1  UNL1       -0.0288
     17 C          -0.4639    0.4692   -0.7314 C.3     1  UNL1       -0.0334
     18 C          -0.8610    1.9366   -0.5231 C.3     1  UNL1       -0.0433
     19 C          -2.3564    2.1326   -0.5634 C.3     1  UNL1       -0.0215
     20 C          -2.6126    3.5297   -0.0046 C.3     1  UNL1       -0.0587
     21 C          -3.1108    1.1251    0.1890 C.2     1  UNL1       -0.0572
     22 C          -4.1485    1.5066    0.9414 C.2     1  UNL1       -0.0192
     23 C          -4.8908    0.4837    1.6869 C.2     1  UNL1        0.1561
     24 O          -5.4500    0.8440    2.7540 O.2     1  UNL1       -0.2927
     25 C          -4.8697   -0.8755    1.0448 C.3     1  UNL1        0.0107
     26 C          -3.4035   -1.2444    0.9303 C.3     1  UNL1       -0.0366
     27 C          -2.6358   -0.2960    0.0438 C.3     1  UNL1       -0.0069
     28 C          -2.9193   -0.6921   -1.3873 C.3     1  UNL1       -0.0555
     29 H           1.4270    1.1791    0.0895 H       1  UNL1        0.0310
     30 H           1.8274    1.6096   -2.2458 H       1  UNL1        0.0270
     31 H           1.4033   -0.0459   -2.7086 H       1  UNL1        0.0270
     32 H           3.8125    0.9728   -1.3576 H       1  UNL1        0.0308
     33 H           3.6111   -0.6099   -2.2515 H       1  UNL1        0.0308
     34 H           4.4901    2.9540    1.8522 H       1  UNL1        0.0342
     35 H           5.2295    1.7507    2.9278 H       1  UNL1        0.0342
     36 H           3.4041    1.9663    2.8652 H       1  UNL1        0.0342
     37 H           4.9669   -3.5439   -0.2862 H       1  UNL1        0.0307
     38 H           4.3500   -2.8174   -1.8140 H       1  UNL1        0.0307
     39 H           3.2286   -3.6981   -0.6447 H       1  UNL1        0.0307
     40 H           0.3144   -1.5810   -1.9253 H       1  UNL1        0.0237
     41 H           2.0883   -2.0566   -2.0168 H       1  UNL1        0.0237
     42 H           0.9787   -2.9278   -0.9285 H       1  UNL1        0.0237
     43 H           0.9236   -0.6180    1.8147 H       1  UNL1        0.0272
     44 H           1.3141   -2.3252    1.4478 H       1  UNL1        0.0272
     45 H          -0.7754   -2.3541   -0.0610 H       1  UNL1        0.0268
     46 H          -1.0630   -1.9168    1.6563 H       1  UNL1        0.0268
     47 H          -1.0827    0.3652    1.3033 H       1  UNL1        0.0312
     48 H          -0.8507    0.2171   -1.7369 H       1  UNL1        0.0307
     49 H          -0.5594    2.1520    0.5430 H       1  UNL1        0.0274
     50 H          -0.3880    2.5979   -1.2459 H       1  UNL1        0.0274
     51 H          -2.6290    2.1559   -1.6464 H       1  UNL1        0.0343
     52 H          -2.5565    3.4453    1.0987 H       1  UNL1        0.0235
     53 H          -1.7567    4.1746   -0.3097 H       1  UNL1        0.0235
     54 H          -3.5810    3.9466   -0.2923 H       1  UNL1        0.0235
     55 H          -4.4000    2.5630    0.9698 H       1  UNL1        0.0652
     56 H          -5.3522   -1.5954    1.7049 H       1  UNL1        0.0345
     57 H          -5.3458   -0.8594    0.0522 H       1  UNL1        0.0345
     58 H          -2.9867   -1.2851    1.9659 H       1  UNL1        0.0278
     59 H          -3.3324   -2.2548    0.4771 H       1  UNL1        0.0278
     60 H          -3.0266    0.1733   -2.0703 H       1  UNL1        0.0238
     61 H          -3.9188   -1.2146   -1.4457 H       1  UNL1        0.0238
     62 H          -2.1863   -1.4376   -1.7707 H       1  UNL1        0.0238
@<TRIPOS>BOND
     1     1     2    1
     2     2     3    1
     3     3     4    1
     4     4     5    1
     5     5     6    1
     6     6     7    1
     7     6     8    2
     8     4     9    1
     9     9    10    1
    10     9    11    2
    11     4    12    1
    12    12    13    1
    13    12    14    1
    14    14    15    1
    15    15    16    1
    16    16    17    1
    17    17    18    1
    18    18    19    1
    19    19    20    1
    20    19    21    1
    21    21    22    2
    22    22    23    1
    23    23    24    2
    24    23    25    1
    25    25    26    1
    26    26    27    1
    27    27    28    1
    28    12     1    1
    29    27    16    1
    30    17     1    1
    31    27    21    1
    32     1    29    1
    33     2    30    1
    34     2    31    1
    35     3    32    1
    36     3    33    1
    37     7    34    1
    38     7    35    1
    39     7    36    1
    40    10    37    1
    41    10    38    1
    42    10    39    1
    43    13    40    1
    44    13    41    1
    45    13    42    1
    46    14    43    1
    47    14    44    1
    48    15    45    1
    49    15    46    1
    50    16    47    1
    51    17    48    1
    52    18    49    1
    53    18    50    1
    54    19    51    1
    55    20    52    1
    56    20    53    1
    57    20    54    1
    58    22    55    1
    59    25    56    1
    60    25    57    1
    61    26    58    1
    62    26    59    1
    63    28    60    1
    64    28    61    1
    65    28    62    1
