
     RDKit          3D

 70 75  0  0  0  0  0  0  0  0999 V2000
    6.6592   -1.6476   -0.5087 C   0  0  0  0  0  0  0  0  0  0  0  0
    5.7544   -0.4701   -0.2060 C   0  0  0  0  0  0  0  0  0  0  0  0
    4.5365   -0.8033    0.3651 N   0  0  0  0  0  0  0  0  0  0  0  0
    3.6901    0.2512    0.6768 C   0  0  0  0  0  0  0  0  0  0  0  0
    3.1171    0.9202   -0.6019 C   0  0  0  0  0  0  0  0  0  0  0  0
    2.3462    1.9350   -0.0840 O   0  0  0  0  0  0  0  0  0  0  0  0
    1.8033    2.8190   -0.9086 C   0  0  0  0  0  0  0  0  0  0  0  0
    0.6926    2.5329   -1.8403 C   0  0  0  0  0  0  0  0  0  0  0  0
   -0.6455    2.4197   -1.2353 N   0  0  0  0  0  0  0  0  0  0  0  0
   -1.5153    1.4194   -1.1552 C   0  0  0  0  0  0  0  0  0  0  0  0
   -2.6278    1.8300   -0.4788 C   0  0  0  0  0  0  0  0  0  0  0  0
   -2.3935    3.1877   -0.1206 C   0  0  0  0  0  0  0  0  0  0  0  0
   -3.1712    4.1086    0.5820 C   0  0  0  0  0  0  0  0  0  0  0  0
   -2.6861    5.3792    0.7689 C   0  0  0  0  0  0  0  0  0  0  0  0
   -1.4629    5.7618    0.2860 C   0  0  0  0  0  0  0  0  0  0  0  0
   -0.6842    4.8339   -0.4127 C   0  0  0  0  0  0  0  0  0  0  0  0
   -1.1761    3.5446   -0.5956 C   0  0  0  0  0  0  0  0  0  0  0  0
   -3.9327    1.1198   -0.2018 C   0  0  0  0  0  0  0  0  0  0  0  0
   -4.1148   -0.1101    0.2148 C   0  0  0  0  0  0  0  0  0  0  0  0
   -5.5725   -0.3124    0.3344 C   0  0  0  0  0  0  0  0  0  0  0  0
   -6.2028   -1.3642    0.7182 O   0  0  0  0  0  0  0  0  0  0  0  0
   -6.2621    0.8300   -0.0331 N   0  0  0  0  0  0  0  0  0  0  0  0
   -5.2704    1.7742   -0.3866 C   0  0  0  0  0  0  0  0  0  0  0  0
   -5.5137    2.9585   -0.7927 O   0  0  0  0  0  0  0  0  0  0  0  0
   -3.0870   -1.1888    0.4070 C   0  0  0  0  0  0  0  0  0  0  0  0
   -1.9300   -1.1917    1.1105 C   0  0  0  0  0  0  0  0  0  0  0  0
   -1.3278   -2.3734    0.9170 N   0  0  0  0  0  0  0  0  0  0  0  0
   -2.0663   -3.1770    0.0953 C   0  0  0  0  0  0  0  0  0  0  0  0
   -1.8883   -4.4751   -0.4126 C   0  0  0  0  0  0  0  0  0  0  0  0
   -2.8573   -4.9721   -1.2407 C   0  0  0  0  0  0  0  0  0  0  0  0
   -3.9777   -4.2718   -1.5945 C   0  0  0  0  0  0  0  0  0  0  0  0
   -4.1388   -3.0155   -1.0967 C   0  0  0  0  0  0  0  0  0  0  0  0
   -3.1819   -2.4704   -0.2504 C   0  0  0  0  0  0  0  0  0  0  0  0
    0.0246   -2.7975    1.3700 C   0  0  0  0  0  0  0  0  0  0  0  0
    1.0437   -2.0945    0.5230 C   0  0  0  0  0  0  0  0  0  0  0  0
    2.3283   -2.2530    0.6301 O   0  0  0  0  0  0  0  0  0  0  0  0
    3.0673   -2.0767    1.7413 C   0  0  0  0  0  0  0  0  0  0  0  0
    4.5557   -1.9324    1.2793 C   0  0  0  0  0  0  0  0  0  0  0  0
    6.3531   -2.0958   -1.4567 H   0  0  0  0  0  0  0  0  0  0  0  0
    7.6962   -1.2222   -0.6165 H   0  0  0  0  0  0  0  0  0  0  0  0
    6.7112   -2.3542    0.3415 H   0  0  0  0  0  0  0  0  0  0  0  0
    5.5631    0.0046   -1.2190 H   0  0  0  0  0  0  0  0  0  0  0  0
    6.3462    0.2984    0.3321 H   0  0  0  0  0  0  0  0  0  0  0  0
    4.3204    1.0605    1.1789 H   0  0  0  0  0  0  0  0  0  0  0  0
    2.8544    0.0896    1.3733 H   0  0  0  0  0  0  0  0  0  0  0  0
    2.4977    0.1802   -1.1508 H   0  0  0  0  0  0  0  0  0  0  0  0
    3.9356    1.3414   -1.1986 H   0  0  0  0  0  0  0  0  0  0  0  0
    1.4411    3.6483   -0.1996 H   0  0  0  0  0  0  0  0  0  0  0  0
    2.6741    3.2877   -1.4963 H   0  0  0  0  0  0  0  0  0  0  0  0
    1.0289    1.7480   -2.5074 H   0  0  0  0  0  0  0  0  0  0  0  0
    0.6695    3.5201   -2.4877 H   0  0  0  0  0  0  0  0  0  0  0  0
   -1.3111    0.3539   -1.5990 H   0  0  0  0  0  0  0  0  0  0  0  0
   -4.1137    3.8651    1.0197 H   0  0  0  0  0  0  0  0  0  0  0  0
   -3.3213    6.0740    1.3212 H   0  0  0  0  0  0  0  0  0  0  0  0
   -1.0680    6.7459    0.4143 H   0  0  0  0  0  0  0  0  0  0  0  0
    0.2376    5.1286   -0.8401 H   0  0  0  0  0  0  0  0  0  0  0  0
   -7.3063    1.0227   -0.0626 H   0  0  0  0  0  0  0  0  0  0  0  0
   -1.5138   -0.3342    1.7928 H   0  0  0  0  0  0  0  0  0  0  0  0
   -1.0151   -5.0106   -0.1338 H   0  0  0  0  0  0  0  0  0  0  0  0
   -2.7422   -5.9836   -1.6520 H   0  0  0  0  0  0  0  0  0  0  0  0
   -4.7564   -4.6434   -2.2516 H   0  0  0  0  0  0  0  0  0  0  0  0
   -4.9909   -2.3969   -1.3500 H   0  0  0  0  0  0  0  0  0  0  0  0
    0.2756   -2.7405    2.3976 H   0  0  0  0  0  0  0  0  0  0  0  0
    0.1673   -3.8716    1.0900 H   0  0  0  0  0  0  0  0  0  0  0  0
    0.8226   -0.9584    0.6177 H   0  0  0  0  0  0  0  0  0  0  0  0
    0.7524   -2.2511   -0.5787 H   0  0  0  0  0  0  0  0  0  0  0  0
    2.8157   -1.3847    2.5082 H   0  0  0  0  0  0  0  0  0  0  0  0
    3.1094   -3.0931    2.2637 H   0  0  0  0  0  0  0  0  0  0  0  0
    4.7834   -2.8344    0.7294 H   0  0  0  0  0  0  0  0  0  0  0  0
    5.1513   -1.8225    2.1619 H   0  0  0  0  0  0  0  0  0  0  0  0
  1  2  1  0
  2  3  1  0
  3  4  1  0
  4  5  1  0
  5  6  1  0
  6  7  1  0
  7  8  1  0
  8  9  1  0
  9 10  1  0
 10 11  2  0
 11 12  1  0
 12 13  2  0
 13 14  1  0
 14 15  2  0
 15 16  1  0
 16 17  2  0
 11 18  1  0
 18 19  2  0
 19 20  1  0
 20 21  2  0
 20 22  1  0
 22 23  1  0
 23 24  2  0
 19 25  1  0
 25 26  2  0
 26 27  1  0
 27 28  1  0
 28 29  2  0
 29 30  1  0
 30 31  2  0
 31 32  1  0
 32 33  2  0
 27 34  1  0
 34 35  1  0
 35 36  1  0
 36 37  1  0
 37 38  1  0
 38  3  1  0
 17  9  1  0
 23 18  1  0
 33 25  1  0
 17 12  1  0
 33 28  1  0
  1 39  1  0
  1 40  1  0
  1 41  1  0
  2 42  1  0
  2 43  1  0
  4 44  1  0
  4 45  1  0
  5 46  1  0
  5 47  1  0
  7 48  1  0
  7 49  1  0
  8 50  1  0
  8 51  1  0
 10 52  1  0
 13 53  1  0
 14 54  1  0
 15 55  1  0
 16 56  1  0
 22 57  1  0
 26 58  1  0
 29 59  1  0
 30 60  1  0
 31 61  1  0
 32 62  1  0
 34 63  1  0
 34 64  1  0
 35 65  1  0
 35 66  1  0
 37 67  1  0
 37 68  1  0
 38 69  1  0
 38 70  1  0
M  END
$$$$
