@<TRIPOS>MOLECULE
*****
 70 75 0 0 0
SMALL
GASTEIGER

@<TRIPOS>ATOM
      1 C           6.6592   -1.6476   -0.5087 C.3     1  UNL1       -0.0524
      2 C           5.7544   -0.4701   -0.2060 C.3     1  UNL1       -0.0038
      3 N           4.5365   -0.8033    0.3651 N.3     1  UNL1       -0.2982
      4 C           3.6901    0.2512    0.6768 C.3     1  UNL1        0.0224
      5 C           3.1171    0.9202   -0.6019 C.3     1  UNL1        0.0604
      6 O           2.3462    1.9350   -0.0840 O.3     1  UNL1       -0.3767
      7 C           1.8033    2.8190   -0.9086 C.3     1  UNL1        0.0656
      8 C           0.6926    2.5329   -1.8403 C.3     1  UNL1        0.0467
      9 N          -0.6455    2.4197   -1.2353 N.ar    1  UNL1       -0.3438
     10 C          -1.5153    1.4194   -1.1552 C.ar    1  UNL1        0.0137
     11 C          -2.6278    1.8300   -0.4788 C.ar    1  UNL1        0.0131
     12 C          -2.3935    3.1877   -0.1206 C.ar    1  UNL1        0.0077
     13 C          -3.1712    4.1086    0.5820 C.ar    1  UNL1       -0.0520
     14 C          -2.6861    5.3792    0.7689 C.ar    1  UNL1       -0.0611
     15 C          -1.4629    5.7618    0.2860 C.ar    1  UNL1       -0.0598
     16 C          -0.6842    4.8339   -0.4127 C.ar    1  UNL1       -0.0376
     17 C          -1.1761    3.5446   -0.5956 C.ar    1  UNL1        0.0497
     18 C          -3.9327    1.1198   -0.2018 C.2     1  UNL1        0.0590
     19 C          -4.1148   -0.1101    0.2148 C.2     1  UNL1        0.0590
     20 C          -5.5725   -0.3124    0.3344 C.2     1  UNL1        0.2519
     21 O          -6.2028   -1.3642    0.7182 O.2     1  UNL1       -0.2697
     22 N          -6.2621    0.8300   -0.0331 N.am    1  UNL1       -0.2483
     23 C          -5.2704    1.7742   -0.3866 C.2     1  UNL1        0.2519
     24 O          -5.5137    2.9585   -0.7927 O.2     1  UNL1       -0.2697
     25 C          -3.0870   -1.1888    0.4070 C.ar    1  UNL1        0.0131
     26 C          -1.9300   -1.1917    1.1105 C.ar    1  UNL1        0.0137
     27 N          -1.3278   -2.3734    0.9170 N.ar    1  UNL1       -0.3438
     28 C          -2.0663   -3.1770    0.0953 C.ar    1  UNL1        0.0497
     29 C          -1.8883   -4.4751   -0.4126 C.ar    1  UNL1       -0.0376
     30 C          -2.8573   -4.9721   -1.2407 C.ar    1  UNL1       -0.0598
     31 C          -3.9777   -4.2718   -1.5945 C.ar    1  UNL1       -0.0611
     32 C          -4.1388   -3.0155   -1.0967 C.ar    1  UNL1       -0.0520
     33 C          -3.1819   -2.4704   -0.2504 C.ar    1  UNL1        0.0077
     34 C           0.0246   -2.7975    1.3700 C.3     1  UNL1        0.0467
     35 C           1.0437   -2.0945    0.5230 C.3     1  UNL1        0.0656
     36 O           2.3283   -2.2530    0.6301 O.3     1  UNL1       -0.3767
     37 C           3.0673   -2.0767    1.7413 C.3     1  UNL1        0.0604
     38 C           4.5557   -1.9324    1.2793 C.3     1  UNL1        0.0224
     39 H           6.3531   -2.0958   -1.4567 H       1  UNL1        0.0242
     40 H           7.6962   -1.2222   -0.6165 H       1  UNL1        0.0242
     41 H           6.7112   -2.3542    0.3415 H       1  UNL1        0.0242
     42 H           5.5631    0.0046   -1.2190 H       1  UNL1        0.0424
     43 H           6.3462    0.2984    0.3321 H       1  UNL1        0.0424
     44 H           4.3204    1.0605    1.1789 H       1  UNL1        0.0449
     45 H           2.8544    0.0896    1.3733 H       1  UNL1        0.0449
     46 H           2.4977    0.1802   -1.1508 H       1  UNL1        0.0572
     47 H           3.9356    1.3414   -1.1986 H       1  UNL1        0.0572
     48 H           1.4411    3.6483   -0.1996 H       1  UNL1        0.0577
     49 H           2.6741    3.2877   -1.4963 H       1  UNL1        0.0577
     50 H           1.0289    1.7480   -2.5074 H       1  UNL1        0.0514
     51 H           0.6695    3.5201   -2.4877 H       1  UNL1        0.0514
     52 H          -1.3111    0.3539   -1.5990 H       1  UNL1        0.0815
     53 H          -4.1137    3.8651    1.0197 H       1  UNL1        0.0624
     54 H          -3.3213    6.0740    1.3212 H       1  UNL1        0.0618
     55 H          -1.0680    6.7459    0.4143 H       1  UNL1        0.0618
     56 H           0.2376    5.1286   -0.8401 H       1  UNL1        0.0638
     57 H          -7.3063    1.0227   -0.0626 H       1  UNL1        0.1581
     58 H          -1.5138   -0.3342    1.7928 H       1  UNL1        0.0815
     59 H          -1.0151   -5.0106   -0.1338 H       1  UNL1        0.0638
     60 H          -2.7422   -5.9836   -1.6520 H       1  UNL1        0.0618
     61 H          -4.7564   -4.6434   -2.2516 H       1  UNL1        0.0618
     62 H          -4.9909   -2.3969   -1.3500 H       1  UNL1        0.0624
     63 H           0.2756   -2.7405    2.3976 H       1  UNL1        0.0514
     64 H           0.1673   -3.8716    1.0900 H       1  UNL1        0.0514
     65 H           0.8226   -0.9584    0.6177 H       1  UNL1        0.0577
     66 H           0.7524   -2.2511   -0.5787 H       1  UNL1        0.0577
     67 H           2.8157   -1.3847    2.5082 H       1  UNL1        0.0572
     68 H           3.1094   -3.0931    2.2637 H       1  UNL1        0.0572
     69 H           4.7834   -2.8344    0.7294 H       1  UNL1        0.0449
     70 H           5.1513   -1.8225    2.1619 H       1  UNL1        0.0449
@<TRIPOS>BOND
     1     1     2    1
     2     2     3    1
     3     3     4    1
     4     4     5    1
     5     5     6    1
     6     6     7    1
     7     7     8    1
     8     8     9    1
     9     9    10   ar
    10    10    11   ar
    11    11    12   ar
    12    12    13   ar
    13    13    14   ar
    14    14    15   ar
    15    15    16   ar
    16    16    17   ar
    17    11    18    1
    18    18    19    2
    19    19    20    1
    20    20    21    2
    21    20    22   am
    22    22    23   am
    23    23    24    2
    24    19    25    1
    25    25    26   ar
    26    26    27   ar
    27    27    28   ar
    28    28    29   ar
    29    29    30   ar
    30    30    31   ar
    31    31    32   ar
    32    32    33   ar
    33    27    34    1
    34    34    35    1
    35    35    36    1
    36    36    37    1
    37    37    38    1
    38    38     3    1
    39    17     9   ar
    40    23    18    1
    41    33    25   ar
    42    17    12   ar
    43    33    28   ar
    44     1    39    1
    45     1    40    1
    46     1    41    1
    47     2    42    1
    48     2    43    1
    49     4    44    1
    50     4    45    1
    51     5    46    1
    52     5    47    1
    53     7    48    1
    54     7    49    1
    55     8    50    1
    56     8    51    1
    57    10    52    1
    58    13    53    1
    59    14    54    1
    60    15    55    1
    61    16    56    1
    62    22    57    1
    63    26    58    1
    64    29    59    1
    65    30    60    1
    66    31    61    1
    67    32    62    1
    68    34    63    1
    69    34    64    1
    70    35    65    1
    71    35    66    1
    72    37    67    1
    73    37    68    1
    74    38    69    1
    75    38    70    1
