
     RDKit          3D

 51 54  0  0  0  0  0  0  0  0999 V2000
   -2.6784   -3.4921   -1.5437 C   0  0  0  0  0  0  0  0  0  0  0  0
   -1.4769   -2.7435   -1.1788 C   0  0  0  0  0  0  0  0  0  0  0  0
   -0.3366   -3.0010   -1.9495 C   0  0  0  0  0  0  0  0  0  0  0  0
    0.8646   -2.3814   -1.7068 C   0  0  0  0  0  0  0  0  0  0  0  0
    0.9384   -1.4852   -0.6753 C   0  0  0  0  0  0  0  0  0  0  0  0
    2.1943   -0.8632   -0.4486 N   0  0  0  0  0  0  0  0  0  0  0  0
    2.8864    0.2895   -0.8603 C   0  0  0  0  0  0  0  0  0  0  0  0
    2.2298    0.9944   -1.6595 O   0  0  0  0  0  0  0  0  0  0  0  0
    4.2287    0.5403   -0.3458 C   0  0  0  0  0  0  0  0  0  0  0  0
    4.9624   -0.2319    0.5144 C   0  0  0  0  0  0  0  0  0  0  0  0
    6.2274    0.1459    0.9103 C   0  0  0  0  0  0  0  0  0  0  0  0
    6.7561    1.3208    0.4290 C   0  0  0  0  0  0  0  0  0  0  0  0
    6.0521    2.1316   -0.4407 C   0  0  0  0  0  0  0  0  0  0  0  0
    4.7691    1.7249   -0.8275 C   0  0  0  0  0  0  0  0  0  0  0  0
    6.6585    3.3908   -0.9353 C   0  0  0  0  0  0  0  0  0  0  0  0
    5.7103    4.2255   -1.4846 F   0  0  0  0  0  0  0  0  0  0  0  0
    7.6670    3.0513   -1.8130 F   0  0  0  0  0  0  0  0  0  0  0  0
    7.2639    3.9844    0.1779 F   0  0  0  0  0  0  0  0  0  0  0  0
   -0.1902   -1.2509    0.0627 C   0  0  0  0  0  0  0  0  0  0  0  0
   -1.4261   -1.8277   -0.1171 C   0  0  0  0  0  0  0  0  0  0  0  0
   -2.5968   -1.5368    0.6784 N   0  0  0  0  0  0  0  0  0  0  0  0
   -3.8886   -1.0500    0.4518 C   0  0  0  0  0  0  0  0  0  0  0  0
   -4.7129   -2.0293    0.0776 N   0  0  0  0  0  0  0  0  0  0  0  0
   -5.9867   -1.8122   -0.2229 C   0  0  0  0  0  0  0  0  0  0  0  0
   -6.6022   -0.5917   -0.1892 C   0  0  0  0  0  0  0  0  0  0  0  0
   -5.7518    0.4160    0.1981 C   0  0  0  0  0  0  0  0  0  0  0  0
   -4.4277    0.2051    0.5145 C   0  0  0  0  0  0  0  0  0  0  0  0
   -3.6340    1.3111    0.9891 C   0  0  0  0  0  0  0  0  0  0  0  0
   -2.3702    1.4137    1.4856 C   0  0  0  0  0  0  0  0  0  0  0  0
   -1.6869    2.5131    1.9515 C   0  0  0  0  0  0  0  0  0  0  0  0
   -2.4116    3.6706    1.8983 N   0  0  0  0  0  0  0  0  0  0  0  0
   -3.6658    3.6584    1.4238 C   0  0  0  0  0  0  0  0  0  0  0  0
   -4.2083    2.5229    1.0036 N   0  0  0  0  0  0  0  0  0  0  0  0
   -2.3895   -4.3254   -2.2601 H   0  0  0  0  0  0  0  0  0  0  0  0
   -3.3551   -2.8676   -2.1222 H   0  0  0  0  0  0  0  0  0  0  0  0
   -3.1228   -4.0606   -0.6990 H   0  0  0  0  0  0  0  0  0  0  0  0
   -0.3656   -3.7084   -2.7770 H   0  0  0  0  0  0  0  0  0  0  0  0
    1.7015   -2.6142   -2.3259 H   0  0  0  0  0  0  0  0  0  0  0  0
    2.6052   -1.5722    0.2329 H   0  0  0  0  0  0  0  0  0  0  0  0
    4.4880   -1.1298    0.8472 H   0  0  0  0  0  0  0  0  0  0  0  0
    6.7374   -0.5292    1.5959 H   0  0  0  0  0  0  0  0  0  0  0  0
    7.7495    1.6145    0.7414 H   0  0  0  0  0  0  0  0  0  0  0  0
    4.2891    2.4200   -1.5109 H   0  0  0  0  0  0  0  0  0  0  0  0
    0.0095   -0.5373    0.8485 H   0  0  0  0  0  0  0  0  0  0  0  0
   -2.4313   -1.7657    1.7010 H   0  0  0  0  0  0  0  0  0  0  0  0
   -6.6638   -2.6353   -0.5329 H   0  0  0  0  0  0  0  0  0  0  0  0
   -7.6314   -0.3671   -0.4252 H   0  0  0  0  0  0  0  0  0  0  0  0
   -6.1716    1.4331    0.2508 H   0  0  0  0  0  0  0  0  0  0  0  0
   -1.8541    0.4896    1.5371 H   0  0  0  0  0  0  0  0  0  0  0  0
   -0.6752    2.4089    2.3122 H   0  0  0  0  0  0  0  0  0  0  0  0
   -4.2770    4.5333    1.3599 H   0  0  0  0  0  0  0  0  0  0  0  0
  1  2  1  0
  2  3  2  0
  3  4  1  0
  4  5  2  0
  5  6  1  0
  6  7  1  0
  7  8  2  0
  7  9  1  0
  9 10  2  0
 10 11  1  0
 11 12  2  0
 12 13  1  0
 13 14  2  0
 13 15  1  0
 15 16  1  0
 15 17  1  0
 15 18  1  0
  5 19  1  0
 19 20  2  0
 20 21  1  0
 21 22  1  0
 22 23  2  0
 23 24  1  0
 24 25  2  0
 25 26  1  0
 26 27  2  0
 27 28  1  0
 28 29  2  0
 29 30  1  0
 30 31  2  0
 31 32  1  0
 32 33  2  0
 20  2  1  0
 27 22  1  0
 33 28  1  0
 14  9  1  0
  1 34  1  0
  1 35  1  0
  1 36  1  0
  3 37  1  0
  4 38  1  0
  6 39  1  0
 10 40  1  0
 11 41  1  0
 12 42  1  0
 14 43  1  0
 19 44  1  0
 21 45  1  0
 24 46  1  0
 25 47  1  0
 26 48  1  0
 29 49  1  0
 30 50  1  0
 32 51  1  0
M  END
$$$$
