@<TRIPOS>MOLECULE
*****
 51 54 0 0 0
SMALL
GASTEIGER

@<TRIPOS>ATOM
      1 C          -2.6784   -3.4921   -1.5437 C.3     1  UNL1       -0.0380
      2 C          -1.4769   -2.7435   -1.1788 C.ar    1  UNL1       -0.0292
      3 C          -0.3366   -3.0010   -1.9495 C.ar    1  UNL1       -0.0553
      4 C           0.8646   -2.3814   -1.7068 C.ar    1  UNL1       -0.0401
      5 C           0.9384   -1.4852   -0.6753 C.ar    1  UNL1        0.0354
      6 N           2.1943   -0.8632   -0.4486 N.am    1  UNL1       -0.2814
      7 C           2.8864    0.2895   -0.8603 C.2     1  UNL1        0.2483
      8 O           2.2298    0.9944   -1.6595 O.2     1  UNL1       -0.2699
      9 C           4.2287    0.5403   -0.3458 C.ar    1  UNL1        0.0376
     10 C           4.9624   -0.2319    0.5144 C.ar    1  UNL1       -0.0496
     11 C           6.2274    0.1459    0.9103 C.ar    1  UNL1       -0.0605
     12 C           6.7561    1.3208    0.4290 C.ar    1  UNL1       -0.0501
     13 C           6.0521    2.1316   -0.4407 C.ar    1  UNL1        0.0555
     14 C           4.7691    1.7249   -0.8275 C.ar    1  UNL1       -0.0380
     15 C           6.6585    3.3908   -0.9353 C.3     1  UNL1        0.4174
     16 F           5.7103    4.2255   -1.4846 F       1  UNL1       -0.1659
     17 F           7.6670    3.0513   -1.8130 F       1  UNL1       -0.1659
     18 F           7.2639    3.9844    0.1779 F       1  UNL1       -0.1659
     19 C          -0.1902   -1.2509    0.0627 C.ar    1  UNL1       -0.0190
     20 C          -1.4261   -1.8277   -0.1171 C.ar    1  UNL1        0.0371
     21 N          -2.5968   -1.5368    0.6784 N.pl3   1  UNL1       -0.2987
     22 C          -3.8886   -1.0500    0.4518 C.ar    1  UNL1        0.1321
     23 N          -4.7129   -2.0293    0.0776 N.ar    1  UNL1       -0.2395
     24 C          -5.9867   -1.8122   -0.2229 C.ar    1  UNL1        0.0297
     25 C          -6.6022   -0.5917   -0.1892 C.ar    1  UNL1       -0.0428
     26 C          -5.7518    0.4160    0.1981 C.ar    1  UNL1       -0.0478
     27 C          -4.4277    0.2051    0.5145 C.ar    1  UNL1        0.0405
     28 C          -3.6340    1.3111    0.9891 C.ar    1  UNL1        0.0774
     29 C          -2.3702    1.4137    1.4856 C.ar    1  UNL1       -0.0174
     30 C          -1.6869    2.5131    1.9515 C.ar    1  UNL1        0.0313
     31 N          -2.4116    3.6706    1.8983 N.ar    1  UNL1       -0.2437
     32 C          -3.6658    3.6584    1.4238 C.ar    1  UNL1        0.1166
     33 N          -4.2083    2.5229    1.0036 N.ar    1  UNL1       -0.2353
     34 H          -2.3895   -4.3254   -2.2601 H       1  UNL1        0.0278
     35 H          -3.3551   -2.8676   -2.1222 H       1  UNL1        0.0278
     36 H          -3.1228   -4.0606   -0.6990 H       1  UNL1        0.0278
     37 H          -0.3656   -3.7084   -2.7770 H       1  UNL1        0.0621
     38 H           1.7015   -2.6142   -2.3259 H       1  UNL1        0.0636
     39 H           2.6052   -1.5722    0.2329 H       1  UNL1        0.1551
     40 H           4.4880   -1.1298    0.8472 H       1  UNL1        0.0625
     41 H           6.7374   -0.5292    1.5959 H       1  UNL1        0.0618
     42 H           7.7495    1.6145    0.7414 H       1  UNL1        0.0623
     43 H           4.2891    2.4200   -1.5109 H       1  UNL1        0.0631
     44 H           0.0095   -0.5373    0.8485 H       1  UNL1        0.0655
     45 H          -2.4313   -1.7657    1.7010 H       1  UNL1        0.1536
     46 H          -6.6638   -2.6353   -0.5329 H       1  UNL1        0.0830
     47 H          -7.6314   -0.3671   -0.4252 H       1  UNL1        0.0633
     48 H          -6.1716    1.4331    0.2508 H       1  UNL1        0.0626
     49 H          -1.8541    0.4896    1.5371 H       1  UNL1        0.0654
     50 H          -0.6752    2.4089    2.3122 H       1  UNL1        0.0831
     51 H          -4.2770    4.5333    1.3599 H       1  UNL1        0.1047
@<TRIPOS>BOND
     1     1     2    1
     2     2     3   ar
     3     3     4   ar
     4     4     5   ar
     5     5     6    1
     6     6     7   am
     7     7     8    2
     8     7     9    1
     9     9    10   ar
    10    10    11   ar
    11    11    12   ar
    12    12    13   ar
    13    13    14   ar
    14    13    15    1
    15    15    16    1
    16    15    17    1
    17    15    18    1
    18     5    19   ar
    19    19    20   ar
    20    20    21    1
    21    21    22    1
    22    22    23   ar
    23    23    24   ar
    24    24    25   ar
    25    25    26   ar
    26    26    27   ar
    27    27    28    1
    28    28    29   ar
    29    29    30   ar
    30    30    31   ar
    31    31    32   ar
    32    32    33   ar
    33    20     2   ar
    34    27    22   ar
    35    33    28   ar
    36    14     9   ar
    37     1    34    1
    38     1    35    1
    39     1    36    1
    40     3    37    1
    41     4    38    1
    42     6    39    1
    43    10    40    1
    44    11    41    1
    45    12    42    1
    46    14    43    1
    47    19    44    1
    48    21    45    1
    49    24    46    1
    50    25    47    1
    51    26    48    1
    52    29    49    1
    53    30    50    1
    54    32    51    1
