@<TRIPOS>MOLECULE
*****
 57 59 0 0 0
SMALL
GASTEIGER

@<TRIPOS>ATOM
      1 C          -1.5043   -2.9186    0.1326 C.3     1  UNL1       -0.0635
      2 C          -2.7921   -2.2831    0.6046 C.3     1  UNL1       -0.0347
      3 C          -3.1600   -0.9781   -0.0225 C.3     1  UNL1        0.0513
      4 N          -2.4168    0.1698    0.2074 N.pl3   1  UNL1       -0.3078
      5 C          -1.0838    0.4700   -0.0769 C.ar    1  UNL1        0.2192
      6 N          -0.1333   -0.3859   -0.4242 N.ar    1  UNL1       -0.1974
      7 C           1.1234   -0.2081   -0.7626 C.ar    1  UNL1        0.1519
      8 N           2.0799   -1.1214   -1.1364 N.pl3   1  UNL1       -0.3230
      9 C           3.0325   -2.0310   -1.5087 C.3     1  UNL1        0.0372
     10 C           3.9711   -2.2918   -0.3252 C.ar    1  UNL1       -0.0123
     11 C           3.7706   -3.3515    0.4899 C.ar    1  UNL1       -0.0542
     12 C           4.6792   -3.4810    1.5937 C.ar    1  UNL1       -0.0433
     13 C           5.6391   -2.5472    1.7131 C.ar    1  UNL1        0.0276
     14 N           5.8409   -1.5025    0.9172 N.ar    1  UNL1       -0.2629
     15 C           4.9546   -1.3887   -0.1547 C.ar    1  UNL1        0.0322
     16 C           1.5203    1.1756   -0.7496 C.ar    1  UNL1        0.1476
     17 N           2.7033    1.7183   -1.0230 N.ar    1  UNL1       -0.2306
     18 C           2.5421    3.0658   -0.8378 C.ar    1  UNL1        0.0985
     19 N           1.2787    3.2945   -0.4617 N.ar    1  UNL1       -0.3123
     20 C           0.7412    4.5704   -0.1652 C.3     1  UNL1        0.0317
     21 C           1.1453    5.5253   -1.2676 C.3     1  UNL1       -0.0444
     22 C           1.3163    5.0171    1.1836 C.3     1  UNL1       -0.0444
     23 C           0.5881    2.1076   -0.3981 C.ar    1  UNL1        0.1674
     24 N          -0.6509    1.7890   -0.0807 N.ar    1  UNL1       -0.1947
     25 C          -4.6636   -0.8023   -0.1403 C.3     1  UNL1        0.0787
     26 C          -5.2033   -2.1223   -0.6898 C.3     1  UNL1       -0.0346
     27 C          -5.4037   -0.4293    1.0615 C.3     1  UNL1       -0.0346
     28 O          -4.8685    0.1286   -1.1832 O.3     1  UNL1       -0.3873
     29 H          -1.3455   -2.7022   -0.9545 H       1  UNL1        0.0230
     30 H          -0.6116   -2.7515    0.7032 H       1  UNL1        0.0230
     31 H          -1.6458   -4.0807    0.1924 H       1  UNL1        0.0230
     32 H          -3.5766   -3.0229    0.7157 H       1  UNL1        0.0281
     33 H          -2.5148   -2.0438    1.7280 H       1  UNL1        0.0281
     34 H          -2.9095   -1.2145   -1.1676 H       1  UNL1        0.0526
     35 H          -2.9161    1.0430    0.6927 H       1  UNL1        0.1493
     36 H           1.3413   -2.1404   -0.6099 H       1  UNL1        0.1479
     37 H           3.7237   -1.6744   -2.3432 H       1  UNL1        0.0512
     38 H           2.6771   -2.9970   -1.8644 H       1  UNL1        0.0512
     39 H           3.0101   -4.0964    0.3902 H       1  UNL1        0.0622
     40 H           4.5473   -4.3332    2.2739 H       1  UNL1        0.0633
     41 H           6.3258   -2.6910    2.5956 H       1  UNL1        0.0829
     42 H           5.0894   -0.5617   -0.8120 H       1  UNL1        0.0833
     43 H           3.3344    3.7563   -0.9980 H       1  UNL1        0.1029
     44 H          -0.3612    4.5987   -0.1069 H       1  UNL1        0.0523
     45 H           2.2585    5.6951   -1.2553 H       1  UNL1        0.0249
     46 H           0.8989    5.0312   -2.2207 H       1  UNL1        0.0249
     47 H           0.5672    6.4787   -1.2181 H       1  UNL1        0.0249
     48 H           0.7148    4.5447    2.0010 H       1  UNL1        0.0249
     49 H           1.2067    6.1032    1.2885 H       1  UNL1        0.0249
     50 H           2.3480    4.6785    1.3477 H       1  UNL1        0.0249
     51 H          -5.9531   -1.9277   -1.5159 H       1  UNL1        0.0258
     52 H          -5.7576   -2.6885    0.0759 H       1  UNL1        0.0258
     53 H          -4.4121   -2.7719   -1.0983 H       1  UNL1        0.0258
     54 H          -5.8859   -1.3905    1.4605 H       1  UNL1        0.0258
     55 H          -4.7452   -0.1281    1.9323 H       1  UNL1        0.0258
     56 H          -6.2665    0.2315    0.9031 H       1  UNL1        0.0258
     57 H          -4.1880   -0.1337   -1.8699 H       1  UNL1        0.2102
@<TRIPOS>BOND
     1     1     2    1
     2     2     3    1
     3     3     4    1
     4     4     5    1
     5     5     6   ar
     6     6     7   ar
     7     7     8    1
     8     8     9    1
     9     9    10    1
    10    10    11   ar
    11    11    12   ar
    12    12    13   ar
    13    13    14   ar
    14    14    15   ar
    15     7    16   ar
    16    16    17   ar
    17    17    18   ar
    18    18    19   ar
    19    19    20    1
    20    20    21    1
    21    20    22    1
    22    19    23   ar
    23    23    24   ar
    24     3    25    1
    25    25    26    1
    26    25    27    1
    27    25    28    1
    28    24     5   ar
    29    15    10   ar
    30    23    16   ar
    31     1    29    1
    32     1    30    1
    33     1    31    1
    34     2    32    1
    35     2    33    1
    36     3    34    1
    37     4    35    1
    38     8    36    1
    39     9    37    1
    40     9    38    1
    41    11    39    1
    42    12    40    1
    43    13    41    1
    44    15    42    1
    45    18    43    1
    46    20    44    1
    47    21    45    1
    48    21    46    1
    49    21    47    1
    50    22    48    1
    51    22    49    1
    52    22    50    1
    53    26    51    1
    54    26    52    1
    55    26    53    1
    56    27    54    1
    57    27    55    1
    58    27    56    1
    59    28    57    1
