@<TRIPOS>MOLECULE
*****
 50 54 0 0 0
SMALL
GASTEIGER

@<TRIPOS>ATOM
      1 C           7.7172    2.3371   -0.3530 C.3     1  UNL1       -0.0209
      2 C           6.3241    2.1231    0.1216 C.ar    1  UNL1        0.0571
      3 C           5.6869    3.1887    0.7245 C.ar    1  UNL1        0.0486
      4 N           4.4312    3.0167    1.1600 N.ar    1  UNL1       -0.2593
      5 C           3.7828    1.8259    1.0199 C.ar    1  UNL1        0.0566
      6 C           4.4051    0.7596    0.4224 C.ar    1  UNL1        0.1263
      7 C           3.7605   -0.5288    0.2406 C.ar    1  UNL1        0.1842
      8 N           4.2840   -1.7600    0.5285 N.ar    1  UNL1       -0.1274
      9 N           3.4354   -2.7113    0.2201 N.ar    1  UNL1       -0.1320
     10 C           2.3406   -2.1433   -0.2738 C.ar    1  UNL1        0.1542
     11 N           2.5465   -0.7907   -0.2580 N.ar    1  UNL1       -0.3066
     12 C           1.4658    0.0369   -0.7472 C.3     1  UNL1        0.0423
     13 C           0.2008   -0.5434   -0.0712 C.3     1  UNL1        0.0338
     14 N          -0.0636   -1.8501   -0.6159 N.am    1  UNL1       -0.2860
     15 C          -1.3699   -2.2328   -0.9556 C.2     1  UNL1        0.2472
     16 O          -1.5417   -3.4134   -1.4472 O.2     1  UNL1       -0.2700
     17 C          -2.5131   -1.3687   -0.7755 C.ar    1  UNL1        0.0370
     18 C          -3.4958   -1.7724    0.1214 C.ar    1  UNL1       -0.0490
     19 C          -4.6169   -1.0067    0.3497 C.ar    1  UNL1       -0.0528
     20 C          -4.7721    0.1987   -0.3310 C.ar    1  UNL1       -0.0113
     21 C          -5.9381    1.0054   -0.1029 C.ar    1  UNL1        0.0193
     22 C          -6.3651    2.2178   -0.5652 C.ar    1  UNL1       -0.0469
     23 C          -7.5304    2.7021   -0.1343 C.ar    1  UNL1       -0.0541
     24 C          -8.2904    2.0210    0.7451 C.ar    1  UNL1       -0.0237
     25 S          -7.2912    0.5303    1.0204 S.2     1  UNL1       -0.0967
     26 C          -3.7978    0.5849   -1.2118 C.ar    1  UNL1       -0.0528
     27 C          -2.6572   -0.1879   -1.4485 C.ar    1  UNL1       -0.0490
     28 C           1.0816   -2.7329   -0.7905 C.3     1  UNL1        0.0834
     29 C           0.8450   -4.1147   -0.2347 C.3     1  UNL1       -0.0393
     30 N           5.6847    0.9603   -0.0131 N.ar    1  UNL1       -0.2457
     31 H           8.4050    1.9376    0.4455 H       1  UNL1        0.0293
     32 H           7.9307    3.4213   -0.4463 H       1  UNL1        0.0293
     33 H           7.9379    1.7827   -1.2844 H       1  UNL1        0.0293
     34 H           6.2155    4.1505    0.8355 H       1  UNL1        0.0848
     35 H           2.7826    1.7780    1.4011 H       1  UNL1        0.0852
     36 H           1.5063    1.0828   -0.4742 H       1  UNL1        0.0508
     37 H           1.3568   -0.0368   -1.8523 H       1  UNL1        0.0508
     38 H           0.5025   -0.6371    1.0110 H       1  UNL1        0.0482
     39 H          -0.6165    0.1704   -0.1583 H       1  UNL1        0.0482
     40 H          -3.3552   -2.7180    0.6471 H       1  UNL1        0.0625
     41 H          -5.3841   -1.3113    1.0416 H       1  UNL1        0.0624
     42 H          -5.6763    2.7417   -1.3044 H       1  UNL1        0.0629
     43 H          -7.8982    3.7016   -0.5057 H       1  UNL1        0.0623
     44 H          -9.2223    2.2021    1.2130 H       1  UNL1        0.0693
     45 H          -3.9364    1.5337   -1.7377 H       1  UNL1        0.0624
     46 H          -1.9153    0.1598   -2.1578 H       1  UNL1        0.0625
     47 H           1.1826   -2.8844   -1.9091 H       1  UNL1        0.0579
     48 H           1.8084   -4.5178    0.1052 H       1  UNL1        0.0252
     49 H           0.1532   -4.1050    0.6360 H       1  UNL1        0.0252
     50 H           0.4739   -4.8029   -1.0296 H       1  UNL1        0.0252
@<TRIPOS>BOND
     1     1     2    1
     2     2     3   ar
     3     3     4   ar
     4     4     5   ar
     5     5     6   ar
     6     6     7    1
     7     7     8   ar
     8     8     9   ar
     9     9    10   ar
    10    10    11   ar
    11    11    12    1
    12    12    13    1
    13    13    14    1
    14    14    15   am
    15    15    16    2
    16    15    17    1
    17    17    18   ar
    18    18    19   ar
    19    19    20   ar
    20    20    21    1
    21    21    22   ar
    22    22    23   ar
    23    23    24   ar
    24    24    25   ar
    25    20    26   ar
    26    26    27   ar
    27    14    28    1
    28    28    29    1
    29     6    30   ar
    30    30     2   ar
    31    11     7   ar
    32    27    17   ar
    33    28    10    1
    34    25    21   ar
    35     1    31    1
    36     1    32    1
    37     1    33    1
    38     3    34    1
    39     5    35    1
    40    12    36    1
    41    12    37    1
    42    13    38    1
    43    13    39    1
    44    18    40    1
    45    19    41    1
    46    22    42    1
    47    23    43    1
    48    24    44    1
    49    26    45    1
    50    27    46    1
    51    28    47    1
    52    29    48    1
    53    29    49    1
    54    29    50    1
