
     RDKit          3D

 37 39  0  0  0  0  0  0  0  0999 V2000
   -5.1615   -0.7917   -2.8456 N   0  0  0  0  0  0  0  0  0  0  0  0
   -4.5258    0.1055   -1.9479 C   0  0  0  0  0  0  0  0  0  0  0  0
   -3.2329   -0.1738   -1.5521 C   0  0  0  0  0  0  0  0  0  0  0  0
   -2.3131   -1.1120   -1.7731 N   0  0  0  0  0  0  0  0  0  0  0  0
   -1.2008   -0.7906   -1.0511 C   0  0  0  0  0  0  0  0  0  0  0  0
   -1.4661    0.3680   -0.3840 N   0  0  0  0  0  0  0  0  0  0  0  0
   -0.4356    0.9264    0.4619 C   0  0  2  0  0  0  0  0  0  0  0  0
    0.6710    1.3270   -0.2385 O   0  0  0  0  0  0  0  0  0  0  0  0
    1.8057    1.1659    0.5029 C   0  0  2  0  0  0  0  0  0  0  0  0
    2.7297    0.0936   -0.0680 C   0  0  0  0  0  0  0  0  0  0  0  0
    3.8760   -0.0780    0.6701 O   0  0  0  0  0  0  0  0  0  0  0  0
    4.8861   -1.2718    0.0314 P   0  0  0  0  0  0  0  0  0  0  0  0
    5.2338   -2.4447    1.2068 O   0  0  0  0  0  0  0  0  0  0  0  0
    4.0697   -2.0530   -1.2352 O   0  0  0  0  0  0  0  0  0  0  0  0
    6.1332   -0.6405   -0.4884 O   0  0  0  0  0  0  0  0  0  0  0  0
    1.3694    0.6353    1.8707 C   0  0  1  0  0  0  0  0  0  0  0  0
    0.9797    1.7438    2.6475 O   0  0  0  0  0  0  0  0  0  0  0  0
    0.1144   -0.1001    1.4314 C   0  0  1  0  0  0  0  0  0  0  0  0
   -0.7522   -0.3628    2.4869 O   0  0  0  0  0  0  0  0  0  0  0  0
   -2.7152    0.7749   -0.6731 C   0  0  0  0  0  0  0  0  0  0  0  0
   -3.3777    1.8601   -0.2358 N   0  0  0  0  0  0  0  0  0  0  0  0
   -4.6191    2.0661   -0.6580 C   0  0  0  0  0  0  0  0  0  0  0  0
   -5.1940    1.1908   -1.5131 N   0  0  0  0  0  0  0  0  0  0  0  0
   -5.7073   -0.8378   -3.7238 H   0  0  0  0  0  0  0  0  0  0  0  0
   -5.0690   -1.8052   -2.5454 H   0  0  0  0  0  0  0  0  0  0  0  0
   -0.3168   -1.4161   -1.0759 H   0  0  0  0  0  0  0  0  0  0  0  0
   -0.7909    1.7653    1.0858 H   0  0  0  0  0  0  0  0  0  0  0  0
    2.3450    2.1177    0.5778 H   0  0  0  0  0  0  0  0  0  0  0  0
    2.1962   -0.8725   -0.0999 H   0  0  0  0  0  0  0  0  0  0  0  0
    2.9981    0.3733   -1.1152 H   0  0  0  0  0  0  0  0  0  0  0  0
    4.4670   -2.5733    1.8313 H   0  0  0  0  0  0  0  0  0  0  0  0
    4.5918   -1.9747   -2.0722 H   0  0  0  0  0  0  0  0  0  0  0  0
    2.1127    0.0008    2.3487 H   0  0  0  0  0  0  0  0  0  0  0  0
    1.7825    2.2679    2.8960 H   0  0  0  0  0  0  0  0  0  0  0  0
    0.4319   -1.0360    0.9106 H   0  0  0  0  0  0  0  0  0  0  0  0
   -0.6438   -1.3376    2.6904 H   0  0  0  0  0  0  0  0  0  0  0  0
   -5.2722    2.8897   -0.3942 H   0  0  0  0  0  0  0  0  0  0  0  0
  1  2  1  0
  2  3  2  0
  3  4  1  0
  4  5  2  0
  5  6  1  0
  6  7  1  0
  7  8  1  0
  8  9  1  0
  9 10  1  0
 10 11  1  0
 11 12  1  0
 12 13  1  0
 12 14  1  0
 12 15  2  0
  9 16  1  0
 16 17  1  0
 16 18  1  0
 18 19  1  0
  6 20  1  0
 20 21  2  0
 21 22  1  0
 22 23  2  0
 23  2  1  0
 20  3  1  0
 18  7  1  0
  1 24  1  0
  1 25  1  0
  5 26  1  0
  7 27  1  1
  9 28  1  1
 10 29  1  0
 10 30  1  0
 13 31  1  0
 14 32  1  0
 16 33  1  1
 17 34  1  0
 18 35  1  6
 19 36  1  0
 22 37  1  0
M  END
$$$$
