
     RDKit          3D

 43 45  0  0  0  0  0  0  0  0999 V2000
   -4.0884   -0.6279    0.6865 C   0  0  0  0  0  0  0  0  0  0  0  0
   -3.5000    0.3180   -0.3048 C   0  0  0  0  0  0  0  0  0  0  0  0
   -4.5612    0.7005   -1.3069 C   0  0  0  0  0  0  0  0  0  0  0  0
   -2.9540    1.4628    0.3206 O   0  0  0  0  0  0  0  0  0  0  0  0
   -1.8708    0.8982    0.9822 C   0  0  2  0  0  0  0  0  0  0  0  0
   -0.7086    1.8445    1.1268 C   0  0  0  0  0  0  0  0  0  0  0  0
    0.3370    1.0714    1.6855 O   0  0  0  0  0  0  0  0  0  0  0  0
    0.9153    0.3172    0.6545 C   0  0  1  0  0  0  0  0  0  0  0  0
    2.1362    1.1024    0.2034 C   0  0  0  0  0  0  0  0  0  0  0  0
    2.9743    1.2196    1.3110 O   0  0  0  0  0  0  0  0  0  0  0  0
    4.3710    2.0723    0.9530 S   0  0  0  0  0  6  0  0  0  0  0  0
    5.0877    1.5637   -0.5128 N   0  0  0  0  0  0  0  0  0  0  0  0
    4.1171    3.5503    0.8562 O   0  0  0  0  0  0  0  0  0  0  0  0
    5.3526    1.8617    2.0694 O   0  0  0  0  0  0  0  0  0  0  0  0
    1.2577   -0.9621    1.0874 O   0  0  0  0  0  0  0  0  0  0  0  0
    1.1156   -1.8186    0.0236 C   0  0  0  0  0  0  0  0  0  0  0  0
    2.4934   -2.3360   -0.3964 C   0  0  0  0  0  0  0  0  0  0  0  0
    0.2756   -3.0360    0.3514 C   0  0  0  0  0  0  0  0  0  0  0  0
    0.4854   -1.1451   -1.0043 O   0  0  0  0  0  0  0  0  0  0  0  0
   -0.0272    0.0318   -0.4648 C   0  0  1  0  0  0  0  0  0  0  0  0
   -1.4301   -0.2053    0.0377 C   0  0  2  0  0  0  0  0  0  0  0  0
   -2.3743   -0.1837   -0.9569 O   0  0  0  0  0  0  0  0  0  0  0  0
   -5.1976   -0.7565    0.5195 H   0  0  0  0  0  0  0  0  0  0  0  0
   -3.6384   -1.6282    0.5972 H   0  0  0  0  0  0  0  0  0  0  0  0
   -3.9968   -0.2933    1.7375 H   0  0  0  0  0  0  0  0  0  0  0  0
   -5.2275   -0.1852   -1.4274 H   0  0  0  0  0  0  0  0  0  0  0  0
   -4.0595    0.8893   -2.2805 H   0  0  0  0  0  0  0  0  0  0  0  0
   -5.1699    1.5362   -0.9589 H   0  0  0  0  0  0  0  0  0  0  0  0
   -2.1241    0.5168    1.9806 H   0  0  0  0  0  0  0  0  0  0  0  0
   -0.3992    2.2969    0.1641 H   0  0  0  0  0  0  0  0  0  0  0  0
   -0.9129    2.6741    1.8296 H   0  0  0  0  0  0  0  0  0  0  0  0
    2.6262    0.6818   -0.6716 H   0  0  0  0  0  0  0  0  0  0  0  0
    1.7608    2.1320   -0.0286 H   0  0  0  0  0  0  0  0  0  0  0  0
    4.4613    1.8399   -1.3072 H   0  0  0  0  0  0  0  0  0  0  0  0
    5.3204    0.5502   -0.5296 H   0  0  0  0  0  0  0  0  0  0  0  0
    3.2936   -1.8054    0.1876 H   0  0  0  0  0  0  0  0  0  0  0  0
    2.6209   -2.2317   -1.4745 H   0  0  0  0  0  0  0  0  0  0  0  0
    2.6171   -3.4109   -0.1432 H   0  0  0  0  0  0  0  0  0  0  0  0
   -0.1417   -2.9802    1.3902 H   0  0  0  0  0  0  0  0  0  0  0  0
   -0.5676   -3.1696   -0.3767 H   0  0  0  0  0  0  0  0  0  0  0  0
    0.8588   -3.9800    0.3093 H   0  0  0  0  0  0  0  0  0  0  0  0
   -0.0164    0.7885   -1.2690 H   0  0  0  0  0  0  0  0  0  0  0  0
   -1.5119   -1.1640    0.5740 H   0  0  0  0  0  0  0  0  0  0  0  0
  1  2  1  0
  2  3  1  0
  2  4  1  0
  4  5  1  0
  5  6  1  0
  6  7  1  0
  7  8  1  0
  8  9  1  6
  9 10  1  0
 10 11  1  0
 11 12  1  0
 11 13  2  0
 11 14  2  0
  8 15  1  0
 15 16  1  0
 16 17  1  0
 16 18  1  0
 16 19  1  0
 19 20  1  0
 20 21  1  0
 21 22  1  0
 22  2  1  0
 21  5  1  0
 20  8  1  0
  1 23  1  0
  1 24  1  0
  1 25  1  0
  3 26  1  0
  3 27  1  0
  3 28  1  0
  5 29  1  1
  6 30  1  0
  6 31  1  0
  9 32  1  0
  9 33  1  0
 12 34  1  0
 12 35  1  0
 17 36  1  0
 17 37  1  0
 17 38  1  0
 18 39  1  0
 18 40  1  0
 18 41  1  0
 20 42  1  6
 21 43  1  1
M  END
$$$$
