@<TRIPOS>MOLECULE
*****
 43 45 0 0 0
SMALL
GASTEIGER

@<TRIPOS>ATOM
      1 C          -4.0884   -0.6279    0.6865 C.3     1  UNL1       -0.0108
      2 C          -3.5000    0.3180   -0.3048 C.3     1  UNL1        0.1656
      3 C          -4.5612    0.7005   -1.3069 C.3     1  UNL1       -0.0108
      4 O          -2.9540    1.4628    0.3206 O.3     1  UNL1       -0.3410
      5 C          -1.8708    0.8982    0.9822 C.3     1  UNL1        0.1140
      6 C          -0.7086    1.8445    1.1268 C.3     1  UNL1        0.0799
      7 O           0.3370    1.0714    1.6855 O.3     1  UNL1       -0.3418
      8 C           0.9153    0.3172    0.6545 C.3     1  UNL1        0.2280
      9 C           2.1362    1.1024    0.2034 C.3     1  UNL1        0.1345
     10 O           2.9743    1.2196    1.3110 O.3     1  UNL1       -0.2196
     11 S           4.3710    2.0723    0.9530 S.O2    1  UNL1        0.1486
     12 N           5.0877    1.5637   -0.5128 N.3     1  UNL1       -0.1833
     13 O           4.1171    3.5503    0.8562 O.2     1  UNL1       -0.1300
     14 O           5.3526    1.8617    2.0694 O.2     1  UNL1       -0.1300
     15 O           1.2577   -0.9621    1.0874 O.3     1  UNL1       -0.3130
     16 C           1.1156   -1.8186    0.0236 C.3     1  UNL1        0.1686
     17 C           2.4934   -2.3360   -0.3964 C.3     1  UNL1       -0.0107
     18 C           0.2756   -3.0360    0.3514 C.3     1  UNL1       -0.0107
     19 O           0.4854   -1.1451   -1.0043 O.3     1  UNL1       -0.3378
     20 C          -0.0272    0.0318   -0.4648 C.3     1  UNL1        0.1466
     21 C          -1.4301   -0.2053    0.0377 C.3     1  UNL1        0.1215
     22 O          -2.3743   -0.1837   -0.9569 O.3     1  UNL1       -0.3406
     23 H          -5.1976   -0.7565    0.5195 H       1  UNL1        0.0281
     24 H          -3.6384   -1.6282    0.5972 H       1  UNL1        0.0281
     25 H          -3.9968   -0.2933    1.7375 H       1  UNL1        0.0281
     26 H          -5.2275   -0.1852   -1.4274 H       1  UNL1        0.0281
     27 H          -4.0595    0.8893   -2.2805 H       1  UNL1        0.0281
     28 H          -5.1699    1.5362   -0.9589 H       1  UNL1        0.0281
     29 H          -2.1241    0.5168    1.9806 H       1  UNL1        0.0647
     30 H          -0.3992    2.2969    0.1641 H       1  UNL1        0.0588
     31 H          -0.9129    2.6741    1.8296 H       1  UNL1        0.0588
     32 H           2.6262    0.6818   -0.6716 H       1  UNL1        0.0639
     33 H           1.7608    2.1320   -0.0286 H       1  UNL1        0.0639
     34 H           4.4613    1.8399   -1.3072 H       1  UNL1        0.1462
     35 H           5.3204    0.5502   -0.5296 H       1  UNL1        0.1462
     36 H           3.2936   -1.8054    0.1876 H       1  UNL1        0.0281
     37 H           2.6209   -2.2317   -1.4745 H       1  UNL1        0.0281
     38 H           2.6171   -3.4109   -0.1432 H       1  UNL1        0.0281
     39 H          -0.1417   -2.9802    1.3902 H       1  UNL1        0.0281
     40 H          -0.5676   -3.1696   -0.3767 H       1  UNL1        0.0281
     41 H           0.8588   -3.9800    0.3093 H       1  UNL1        0.0281
     42 H          -0.0164    0.7885   -1.2690 H       1  UNL1        0.0679
     43 H          -1.5119   -1.1640    0.5740 H       1  UNL1        0.0652
@<TRIPOS>BOND
     1     1     2    1
     2     2     3    1
     3     2     4    1
     4     4     5    1
     5     5     6    1
     6     6     7    1
     7     7     8    1
     8     8     9    1
     9     9    10    1
    10    10    11    1
    11    11    12    1
    12    11    13    2
    13    11    14    2
    14     8    15    1
    15    15    16    1
    16    16    17    1
    17    16    18    1
    18    16    19    1
    19    19    20    1
    20    20    21    1
    21    21    22    1
    22    22     2    1
    23    21     5    1
    24    20     8    1
    25     1    23    1
    26     1    24    1
    27     1    25    1
    28     3    26    1
    29     3    27    1
    30     3    28    1
    31     5    29    1
    32     6    30    1
    33     6    31    1
    34     9    32    1
    35     9    33    1
    36    12    34    1
    37    12    35    1
    38    17    36    1
    39    17    37    1
    40    17    38    1
    41    18    39    1
    42    18    40    1
    43    18    41    1
    44    20    42    1
    45    21    43    1
