
     RDKit          3D

 37 40  0  0  0  0  0  0  0  0999 V2000
   -3.6140   -1.9240    1.4658 C   0  0  0  0  0  0  0  0  0  0  0  0
   -3.0248   -1.3302    0.3024 O   0  0  0  0  0  0  0  0  0  0  0  0
   -3.4186   -0.0522   -0.0617 C   0  0  0  0  0  0  0  0  0  0  0  0
   -4.3512    0.6682    0.6466 C   0  0  0  0  0  0  0  0  0  0  0  0
   -4.7364    1.9375    0.2768 C   0  0  0  0  0  0  0  0  0  0  0  0
   -4.1807    2.5392   -0.8483 C   0  0  0  0  0  0  0  0  0  0  0  0
   -3.2493    1.8295   -1.5623 C   0  0  0  0  0  0  0  0  0  0  0  0
   -2.8670    0.5504   -1.1818 C   0  0  0  0  0  0  0  0  0  0  0  0
   -1.9071   -0.1912   -1.9141 N   0  0  0  0  0  0  0  0  0  0  0  0
   -0.7202   -0.5983   -1.2648 C   0  0  0  0  0  0  0  0  0  0  0  0
    0.3362    0.2853   -1.2866 C   0  0  0  0  0  0  0  0  0  0  0  0
    1.5315   -0.0546   -0.6701 C   0  0  0  0  0  0  0  0  0  0  0  0
    2.6962    0.5942   -0.5383 N   0  0  0  0  0  0  0  0  0  0  0  0
    3.5430   -0.1610    0.1447 C   0  0  0  0  0  0  0  0  0  0  0  0
    4.9309    0.2031    0.4981 C   0  0  0  0  0  0  0  0  0  0  0  0
    5.8083   -0.5814    1.2074 C   0  0  0  0  0  0  0  0  0  0  0  0
    6.9453    0.1487    1.2903 N   0  0  0  0  0  0  0  0  0  0  0  0
    6.7630    1.3358    0.6527 C   0  0  0  0  0  0  0  0  0  0  0  0
    5.5352    1.3263    0.1903 O   0  0  0  0  0  0  0  0  0  0  0  0
    2.9408   -1.3502    0.4851 C   0  0  0  0  0  0  0  0  0  0  0  0
    1.6718   -1.2678   -0.0363 C   0  0  0  0  0  0  0  0  0  0  0  0
    0.5726   -2.1195   -0.0461 C   0  0  0  0  0  0  0  0  0  0  0  0
   -0.5800   -1.7768   -0.6476 N   0  0  0  0  0  0  0  0  0  0  0  0
   -3.2992   -2.9726    1.5146 H   0  0  0  0  0  0  0  0  0  0  0  0
   -3.3323   -1.3140    2.3300 H   0  0  0  0  0  0  0  0  0  0  0  0
   -4.7296   -1.8909    1.3325 H   0  0  0  0  0  0  0  0  0  0  0  0
   -4.7880    0.2148    1.5172 H   0  0  0  0  0  0  0  0  0  0  0  0
   -5.4673    2.4863    0.8426 H   0  0  0  0  0  0  0  0  0  0  0  0
   -4.4999    3.5514   -1.1283 H   0  0  0  0  0  0  0  0  0  0  0  0
   -2.7927    2.2565   -2.4403 H   0  0  0  0  0  0  0  0  0  0  0  0
   -2.0507   -0.4417   -2.9067 H   0  0  0  0  0  0  0  0  0  0  0  0
    0.2817    1.2560   -1.7721 H   0  0  0  0  0  0  0  0  0  0  0  0
    2.8996    1.5306   -0.9091 H   0  0  0  0  0  0  0  0  0  0  0  0
    5.5800   -1.5562    1.5870 H   0  0  0  0  0  0  0  0  0  0  0  0
    7.5229    2.1125    0.5700 H   0  0  0  0  0  0  0  0  0  0  0  0
    3.3583   -2.1724    1.0370 H   0  0  0  0  0  0  0  0  0  0  0  0
    0.6915   -3.0711    0.4543 H   0  0  0  0  0  0  0  0  0  0  0  0
  1  2  1  0
  2  3  1  0
  3  4  2  0
  4  5  1  0
  5  6  2  0
  6  7  1  0
  7  8  2  0
  8  9  1  0
  9 10  1  0
 10 11  2  0
 11 12  1  0
 12 13  1  0
 13 14  1  0
 14 15  1  0
 15 16  2  0
 16 17  1  0
 17 18  2  0
 18 19  1  0
 14 20  2  0
 20 21  1  0
 21 22  1  0
 22 23  2  0
  8  3  1  0
 23 10  1  0
 21 12  2  0
 19 15  1  0
  1 24  1  0
  1 25  1  0
  1 26  1  0
  4 27  1  0
  5 28  1  0
  6 29  1  0
  7 30  1  0
  9 31  1  0
 11 32  1  0
 13 33  1  0
 16 34  1  0
 18 35  1  0
 20 36  1  0
 22 37  1  0
M  END
$$$$
