@<TRIPOS>MOLECULE
*****
 37 40 0 0 0
SMALL
GASTEIGER

@<TRIPOS>ATOM
      1 C          -3.6140   -1.9240    1.4658 C.3     1  UNL1        0.0789
      2 O          -3.0248   -1.3302    0.3024 O.3     1  UNL1       -0.4933
      3 C          -3.4186   -0.0522   -0.0617 C.ar    1  UNL1        0.1412
      4 C          -4.3512    0.6682    0.6466 C.ar    1  UNL1       -0.0181
      5 C          -4.7364    1.9375    0.2768 C.ar    1  UNL1       -0.0582
      6 C          -4.1807    2.5392   -0.8483 C.ar    1  UNL1       -0.0598
      7 C          -3.2493    1.8295   -1.5623 C.ar    1  UNL1       -0.0369
      8 C          -2.8670    0.5504   -1.1818 C.ar    1  UNL1        0.0746
      9 N          -1.9071   -0.1912   -1.9141 N.pl3   1  UNL1       -0.2965
     10 C          -0.7202   -0.5983   -1.2648 C.ar    1  UNL1        0.1249
     11 C           0.3362    0.2853   -1.2866 C.ar    1  UNL1        0.0023
     12 C           1.5315   -0.0546   -0.6701 C.ar    1  UNL1        0.0517
     13 N           2.6962    0.5942   -0.5383 N.ar    1  UNL1       -0.3516
     14 C           3.5430   -0.1610    0.1447 C.ar    1  UNL1        0.0847
     15 C           4.9309    0.2031    0.4981 C.ar    1  UNL1        0.1709
     16 C           5.8083   -0.5814    1.2074 C.ar    1  UNL1        0.0751
     17 N           6.9453    0.1487    1.2903 N.ar    1  UNL1       -0.2239
     18 C           6.7630    1.3358    0.6527 C.ar    1  UNL1        0.1826
     19 O           5.5352    1.3263    0.1903 O.2     1  UNL1       -0.4410
     20 C           2.9408   -1.3502    0.4851 C.ar    1  UNL1       -0.0241
     21 C           1.6718   -1.2678   -0.0363 C.ar    1  UNL1        0.0186
     22 C           0.5726   -2.1195   -0.0461 C.ar    1  UNL1        0.0389
     23 N          -0.5800   -1.7768   -0.6476 N.ar    1  UNL1       -0.2395
     24 H          -3.2992   -2.9726    1.5146 H       1  UNL1        0.0660
     25 H          -3.3323   -1.3140    2.3300 H       1  UNL1        0.0660
     26 H          -4.7296   -1.8909    1.3325 H       1  UNL1        0.0660
     27 H          -4.7880    0.2148    1.5172 H       1  UNL1        0.0655
     28 H          -5.4673    2.4863    0.8426 H       1  UNL1        0.0619
     29 H          -4.4999    3.5514   -1.1283 H       1  UNL1        0.0618
     30 H          -2.7927    2.2565   -2.4403 H       1  UNL1        0.0637
     31 H          -2.0507   -0.4417   -2.9067 H       1  UNL1        0.1537
     32 H           0.2817    1.2560   -1.7721 H       1  UNL1        0.0673
     33 H           2.8996    1.5306   -0.9091 H       1  UNL1        0.1660
     34 H           5.5800   -1.5562    1.5870 H       1  UNL1        0.0869
     35 H           7.5229    2.1125    0.5700 H       1  UNL1        0.1255
     36 H           3.3583   -2.1724    1.0370 H       1  UNL1        0.0646
     37 H           0.6915   -3.0711    0.4543 H       1  UNL1        0.0837
@<TRIPOS>BOND
     1     1     2    1
     2     2     3    1
     3     3     4   ar
     4     4     5   ar
     5     5     6   ar
     6     6     7   ar
     7     7     8   ar
     8     8     9    1
     9     9    10    1
    10    10    11   ar
    11    11    12   ar
    12    12    13   ar
    13    13    14   ar
    14    14    15    1
    15    15    16   ar
    16    16    17   ar
    17    17    18   ar
    18    18    19   ar
    19    14    20   ar
    20    20    21   ar
    21    21    22   ar
    22    22    23   ar
    23     8     3   ar
    24    23    10   ar
    25    21    12   ar
    26    19    15   ar
    27     1    24    1
    28     1    25    1
    29     1    26    1
    30     4    27    1
    31     5    28    1
    32     6    29    1
    33     7    30    1
    34     9    31    1
    35    11    32    1
    36    13    33    1
    37    16    34    1
    38    18    35    1
    39    20    36    1
    40    22    37    1
