@<TRIPOS>MOLECULE
*****
 90 95 0 0 0
SMALL
GASTEIGER

@<TRIPOS>ATOM
      1 C           6.3162    1.9203   -0.6565 C.3     1  UNL1       -0.0387
      2 C           6.4244    0.6423   -1.4275 C.2     1  UNL1       -0.0346
      3 C           5.4291   -0.0992   -1.8720 C.2     1  UNL1        0.0221
      4 C           3.9957    0.0437   -1.7806 C.2     1  UNL1        0.2412
      5 O           3.2680   -0.8571   -2.3252 O.2     1  UNL1       -0.2705
      6 N           3.2870    1.0819   -1.1460 N.am    1  UNL1       -0.3005
      7 C           1.8300    1.1025   -1.1181 C.3     1  UNL1        0.0969
      8 C           1.3310    2.3747   -1.7277 C.3     1  UNL1       -0.0381
      9 C           1.3175    0.8240    0.2369 C.2     1  UNL1        0.2337
     10 O           2.1587    0.6131    1.1740 O.2     1  UNL1       -0.2738
     11 N          -0.0649    0.7920    0.4822 N.am    1  UNL1       -0.3022
     12 C          -0.6302    0.5121    1.8017 C.3     1  UNL1        0.1034
     13 C          -1.3903    1.7611    2.2543 C.3     1  UNL1        0.0013
     14 C          -0.5380    2.9494    2.3682 C.ar    1  UNL1       -0.0201
     15 C          -0.4036    3.9794    1.4602 C.ar    1  UNL1        0.0060
     16 N           0.4906    4.8678    1.9441 N.ar    1  UNL1       -0.3604
     17 C           0.9470    4.4552    3.1394 C.ar    1  UNL1        0.0467
     18 C           1.8516    5.0224    4.0099 C.ar    1  UNL1       -0.0378
     19 C           2.1443    4.3786    5.2094 C.ar    1  UNL1       -0.0598
     20 C           1.5297    3.1926    5.5058 C.ar    1  UNL1       -0.0611
     21 C           0.6329    2.6409    4.6311 C.ar    1  UNL1       -0.0523
     22 C           0.3045    3.2481    3.4138 C.ar    1  UNL1        0.0029
     23 C          -1.6032   -0.5889    1.7471 C.2     1  UNL1        0.2342
     24 O          -2.0362   -1.0963    2.8147 O.2     1  UNL1       -0.2738
     25 N          -2.1193   -1.1474    0.5495 N.am    1  UNL1       -0.3040
     26 C          -3.0790   -2.2421    0.5122 C.3     1  UNL1        0.0847
     27 C          -4.4590   -1.7512    0.8379 C.3     1  UNL1       -0.0247
     28 C          -5.0526   -0.6946   -0.0061 C.3     1  UNL1       -0.0390
     29 C          -5.2560   -0.9448   -1.4471 C.3     1  UNL1       -0.0501
     30 C          -6.3157   -1.9548   -1.7680 C.3     1  UNL1       -0.0528
     31 C          -7.6466   -1.3841   -1.3533 C.3     1  UNL1       -0.0530
     32 C          -7.5240   -0.2452   -0.3742 C.3     1  UNL1       -0.0528
     33 C          -6.4240   -0.4068    0.6087 C.3     1  UNL1       -0.0501
     34 C          -2.8945   -3.0646   -0.6537 C.2     1  UNL1        0.1868
     35 O          -2.1374   -2.6539   -1.5511 O.2     1  UNL1       -0.2923
     36 C          -3.5059   -4.3967   -0.9490 C.3     1  UNL1        0.1492
     37 C          -4.3372   -4.9512    0.1906 C.3     1  UNL1       -0.0266
     38 C          -3.9415   -4.7007   -2.3012 C.3     1  UNL1        0.0847
     39 O          -2.7278   -5.3225   -1.6518 O.3     1  UNL1       -0.3605
     40 C           6.0361   -1.2782   -2.5911 C.3     1  UNL1        0.0033
     41 C           7.4904   -1.1233   -2.4928 C.ar    1  UNL1       -0.0355
     42 C           8.5378   -1.9094   -2.9620 C.ar    1  UNL1       -0.0577
     43 C           9.8429   -1.5392   -2.7347 C.ar    1  UNL1       -0.0615
     44 C          10.1036   -0.3824   -2.0387 C.ar    1  UNL1       -0.0612
     45 C           9.0404    0.3992   -1.5726 C.ar    1  UNL1       -0.0541
     46 C           7.7198    0.0270   -1.8007 C.ar    1  UNL1       -0.0182
     47 H           5.8265    1.7191    0.2948 H       1  UNL1        0.0278
     48 H           5.8514    2.7099   -1.2890 H       1  UNL1        0.0278
     49 H           7.3625    2.2355   -0.3870 H       1  UNL1        0.0278
     50 H           3.7826    1.8525   -0.6917 H       1  UNL1        0.1498
     51 H           1.4522    0.2501   -1.7569 H       1  UNL1        0.0592
     52 H           0.8979    3.0852   -0.9789 H       1  UNL1        0.0252
     53 H           2.1835    2.9123   -2.1809 H       1  UNL1        0.0252
     54 H           0.5884    2.2157   -2.5408 H       1  UNL1        0.0252
     55 H          -0.7280    0.9742   -0.2885 H       1  UNL1        0.1495
     56 H           0.1555    0.3190    2.5105 H       1  UNL1        0.0598
     57 H          -1.9026    1.5164    3.1962 H       1  UNL1        0.0337
     58 H          -2.1711    1.9568    1.4817 H       1  UNL1        0.0337
     59 H          -0.9121    4.1018    0.4928 H       1  UNL1        0.0810
     60 H           0.8011    5.7600    1.4747 H       1  UNL1        0.1653
     61 H           2.3263    5.9551    3.7652 H       1  UNL1        0.0638
     62 H           2.8602    4.8676    5.8574 H       1  UNL1        0.0618
     63 H           1.7576    2.6973    6.4326 H       1  UNL1        0.0618
     64 H           0.1521    1.7117    4.8622 H       1  UNL1        0.0624
     65 H          -1.7874   -0.7466   -0.3429 H       1  UNL1        0.1494
     66 H          -2.8149   -2.8531    1.4385 H       1  UNL1        0.0578
     67 H          -4.4568   -1.3405    1.9013 H       1  UNL1        0.0290
     68 H          -5.1948   -2.5683    0.9184 H       1  UNL1        0.0290
     69 H          -4.5073    0.2849    0.0608 H       1  UNL1        0.0301
     70 H          -4.3356   -1.0710   -2.0556 H       1  UNL1        0.0268
     71 H          -5.6753    0.0332   -1.8649 H       1  UNL1        0.0268
     72 H          -6.2681   -2.0755   -2.8955 H       1  UNL1        0.0265
     73 H          -6.1154   -2.9635   -1.3864 H       1  UNL1        0.0265
     74 H          -8.1499   -0.9934   -2.2577 H       1  UNL1        0.0265
     75 H          -8.3332   -2.1928   -0.9624 H       1  UNL1        0.0265
     76 H          -7.5764    0.7427   -0.8726 H       1  UNL1        0.0265
     77 H          -8.4835   -0.2971    0.2332 H       1  UNL1        0.0265
     78 H          -6.7163   -1.2252    1.3334 H       1  UNL1        0.0268
     79 H          -6.3920    0.5072    1.2590 H       1  UNL1        0.0268
     80 H          -5.3963   -4.6915    0.0630 H       1  UNL1        0.0262
     81 H          -3.9981   -4.5943    1.1841 H       1  UNL1        0.0262
     82 H          -4.3311   -6.0815    0.1568 H       1  UNL1        0.0262
     83 H          -3.6546   -4.1078   -3.1840 H       1  UNL1        0.0593
     84 H          -4.7483   -5.4609   -2.4375 H       1  UNL1        0.0593
     85 H           5.6959   -2.1925   -2.0382 H       1  UNL1        0.0363
     86 H           5.7289   -1.3291   -3.6495 H       1  UNL1        0.0363
     87 H           8.3327   -2.8236   -3.5162 H       1  UNL1        0.0621
     88 H          10.6357   -2.1679   -3.1066 H       1  UNL1        0.0618
     89 H          11.1143   -0.0490   -1.8334 H       1  UNL1        0.0618
     90 H           9.2012    1.3232   -1.0188 H       1  UNL1        0.0624
@<TRIPOS>BOND
     1     1     2    1
     2     2     3    2
     3     3     4    1
     4     4     5    2
     5     4     6   am
     6     6     7    1
     7     7     8    1
     8     7     9    1
     9     9    10    2
    10     9    11   am
    11    11    12    1
    12    12    13    1
    13    13    14    1
    14    14    15   ar
    15    15    16   ar
    16    16    17   ar
    17    17    18   ar
    18    18    19   ar
    19    19    20   ar
    20    20    21   ar
    21    21    22   ar
    22    12    23    1
    23    23    24    2
    24    23    25   am
    25    25    26    1
    26    26    27    1
    27    27    28    1
    28    28    29    1
    29    29    30    1
    30    30    31    1
    31    31    32    1
    32    32    33    1
    33    26    34    1
    34    34    35    2
    35    34    36    1
    36    36    37    1
    37    36    38    1
    38    38    39    1
    39     3    40    1
    40    40    41    1
    41    41    42   ar
    42    42    43   ar
    43    43    44   ar
    44    44    45   ar
    45    45    46   ar
    46    46     2    1
    47    22    14   ar
    48    33    28    1
    49    39    36    1
    50    46    41   ar
    51    22    17   ar
    52     1    47    1
    53     1    48    1
    54     1    49    1
    55     6    50    1
    56     7    51    1
    57     8    52    1
    58     8    53    1
    59     8    54    1
    60    11    55    1
    61    12    56    1
    62    13    57    1
    63    13    58    1
    64    15    59    1
    65    16    60    1
    66    18    61    1
    67    19    62    1
    68    20    63    1
    69    21    64    1
    70    25    65    1
    71    26    66    1
    72    27    67    1
    73    27    68    1
    74    28    69    1
    75    29    70    1
    76    29    71    1
    77    30    72    1
    78    30    73    1
    79    31    74    1
    80    31    75    1
    81    32    76    1
    82    32    77    1
    83    33    78    1
    84    33    79    1
    85    37    80    1
    86    37    81    1
    87    37    82    1
    88    38    83    1
    89    38    84    1
    90    40    85    1
    91    40    86    1
    92    42    87    1
    93    43    88    1
    94    44    89    1
    95    45    90    1
