
     RDKit          3D

 90 95  0  0  0  0  0  0  0  0999 V2000
    6.3162    1.9203   -0.6565 C   0  0  0  0  0  0  0  0  0  0  0  0
    6.4244    0.6423   -1.4275 C   0  0  0  0  0  0  0  0  0  0  0  0
    5.4291   -0.0992   -1.8720 C   0  0  0  0  0  0  0  0  0  0  0  0
    3.9957    0.0437   -1.7806 C   0  0  0  0  0  0  0  0  0  0  0  0
    3.2680   -0.8571   -2.3252 O   0  0  0  0  0  0  0  0  0  0  0  0
    3.2870    1.0819   -1.1460 N   0  0  0  0  0  0  0  0  0  0  0  0
    1.8300    1.1025   -1.1181 C   0  0  2  0  0  0  0  0  0  0  0  0
    1.3310    2.3747   -1.7277 C   0  0  0  0  0  0  0  0  0  0  0  0
    1.3175    0.8240    0.2369 C   0  0  0  0  0  0  0  0  0  0  0  0
    2.1587    0.6131    1.1740 O   0  0  0  0  0  0  0  0  0  0  0  0
   -0.0649    0.7920    0.4822 N   0  0  0  0  0  0  0  0  0  0  0  0
   -0.6302    0.5121    1.8017 C   0  0  1  0  0  0  0  0  0  0  0  0
   -1.3903    1.7611    2.2543 C   0  0  0  0  0  0  0  0  0  0  0  0
   -0.5380    2.9494    2.3682 C   0  0  0  0  0  0  0  0  0  0  0  0
   -0.4036    3.9794    1.4602 C   0  0  0  0  0  0  0  0  0  0  0  0
    0.4906    4.8678    1.9441 N   0  0  0  0  0  0  0  0  0  0  0  0
    0.9470    4.4552    3.1394 C   0  0  0  0  0  0  0  0  0  0  0  0
    1.8516    5.0224    4.0099 C   0  0  0  0  0  0  0  0  0  0  0  0
    2.1443    4.3786    5.2094 C   0  0  0  0  0  0  0  0  0  0  0  0
    1.5297    3.1926    5.5058 C   0  0  0  0  0  0  0  0  0  0  0  0
    0.6329    2.6409    4.6311 C   0  0  0  0  0  0  0  0  0  0  0  0
    0.3045    3.2481    3.4138 C   0  0  0  0  0  0  0  0  0  0  0  0
   -1.6032   -0.5889    1.7471 C   0  0  0  0  0  0  0  0  0  0  0  0
   -2.0362   -1.0963    2.8147 O   0  0  0  0  0  0  0  0  0  0  0  0
   -2.1193   -1.1474    0.5495 N   0  0  0  0  0  0  0  0  0  0  0  0
   -3.0790   -2.2421    0.5122 C   0  0  1  0  0  0  0  0  0  0  0  0
   -4.4590   -1.7512    0.8379 C   0  0  0  0  0  0  0  0  0  0  0  0
   -5.0526   -0.6946   -0.0061 C   0  0  0  0  0  0  0  0  0  0  0  0
   -5.2560   -0.9448   -1.4471 C   0  0  0  0  0  0  0  0  0  0  0  0
   -6.3157   -1.9548   -1.7680 C   0  0  0  0  0  0  0  0  0  0  0  0
   -7.6466   -1.3841   -1.3533 C   0  0  0  0  0  0  0  0  0  0  0  0
   -7.5240   -0.2452   -0.3742 C   0  0  0  0  0  0  0  0  0  0  0  0
   -6.4240   -0.4068    0.6087 C   0  0  0  0  0  0  0  0  0  0  0  0
   -2.8945   -3.0646   -0.6537 C   0  0  0  0  0  0  0  0  0  0  0  0
   -2.1374   -2.6539   -1.5511 O   0  0  0  0  0  0  0  0  0  0  0  0
   -3.5059   -4.3967   -0.9490 C   0  0  1  0  0  0  0  0  0  0  0  0
   -4.3372   -4.9512    0.1906 C   0  0  0  0  0  0  0  0  0  0  0  0
   -3.9415   -4.7007   -2.3012 C   0  0  0  0  0  0  0  0  0  0  0  0
   -2.7278   -5.3225   -1.6518 O   0  0  0  0  0  0  0  0  0  0  0  0
    6.0361   -1.2782   -2.5911 C   0  0  0  0  0  0  0  0  0  0  0  0
    7.4904   -1.1233   -2.4928 C   0  0  0  0  0  0  0  0  0  0  0  0
    8.5378   -1.9094   -2.9620 C   0  0  0  0  0  0  0  0  0  0  0  0
    9.8429   -1.5392   -2.7347 C   0  0  0  0  0  0  0  0  0  0  0  0
   10.1036   -0.3824   -2.0387 C   0  0  0  0  0  0  0  0  0  0  0  0
    9.0404    0.3992   -1.5726 C   0  0  0  0  0  0  0  0  0  0  0  0
    7.7198    0.0270   -1.8007 C   0  0  0  0  0  0  0  0  0  0  0  0
    5.8265    1.7191    0.2948 H   0  0  0  0  0  0  0  0  0  0  0  0
    5.8514    2.7099   -1.2890 H   0  0  0  0  0  0  0  0  0  0  0  0
    7.3625    2.2355   -0.3870 H   0  0  0  0  0  0  0  0  0  0  0  0
    3.7826    1.8525   -0.6917 H   0  0  0  0  0  0  0  0  0  0  0  0
    1.4522    0.2501   -1.7569 H   0  0  0  0  0  0  0  0  0  0  0  0
    0.8979    3.0852   -0.9789 H   0  0  0  0  0  0  0  0  0  0  0  0
    2.1835    2.9123   -2.1809 H   0  0  0  0  0  0  0  0  0  0  0  0
    0.5884    2.2157   -2.5408 H   0  0  0  0  0  0  0  0  0  0  0  0
   -0.7280    0.9742   -0.2885 H   0  0  0  0  0  0  0  0  0  0  0  0
    0.1555    0.3190    2.5105 H   0  0  0  0  0  0  0  0  0  0  0  0
   -1.9026    1.5164    3.1962 H   0  0  0  0  0  0  0  0  0  0  0  0
   -2.1711    1.9568    1.4817 H   0  0  0  0  0  0  0  0  0  0  0  0
   -0.9121    4.1018    0.4928 H   0  0  0  0  0  0  0  0  0  0  0  0
    0.8011    5.7600    1.4747 H   0  0  0  0  0  0  0  0  0  0  0  0
    2.3263    5.9551    3.7652 H   0  0  0  0  0  0  0  0  0  0  0  0
    2.8602    4.8676    5.8574 H   0  0  0  0  0  0  0  0  0  0  0  0
    1.7576    2.6973    6.4326 H   0  0  0  0  0  0  0  0  0  0  0  0
    0.1521    1.7117    4.8622 H   0  0  0  0  0  0  0  0  0  0  0  0
   -1.7874   -0.7466   -0.3429 H   0  0  0  0  0  0  0  0  0  0  0  0
   -2.8149   -2.8531    1.4385 H   0  0  0  0  0  0  0  0  0  0  0  0
   -4.4568   -1.3405    1.9013 H   0  0  0  0  0  0  0  0  0  0  0  0
   -5.1948   -2.5683    0.9184 H   0  0  0  0  0  0  0  0  0  0  0  0
   -4.5073    0.2849    0.0608 H   0  0  0  0  0  0  0  0  0  0  0  0
   -4.3356   -1.0710   -2.0556 H   0  0  0  0  0  0  0  0  0  0  0  0
   -5.6753    0.0332   -1.8649 H   0  0  0  0  0  0  0  0  0  0  0  0
   -6.2681   -2.0755   -2.8955 H   0  0  0  0  0  0  0  0  0  0  0  0
   -6.1154   -2.9635   -1.3864 H   0  0  0  0  0  0  0  0  0  0  0  0
   -8.1499   -0.9934   -2.2577 H   0  0  0  0  0  0  0  0  0  0  0  0
   -8.3332   -2.1928   -0.9624 H   0  0  0  0  0  0  0  0  0  0  0  0
   -7.5764    0.7427   -0.8726 H   0  0  0  0  0  0  0  0  0  0  0  0
   -8.4835   -0.2971    0.2332 H   0  0  0  0  0  0  0  0  0  0  0  0
   -6.7163   -1.2252    1.3334 H   0  0  0  0  0  0  0  0  0  0  0  0
   -6.3920    0.5072    1.2590 H   0  0  0  0  0  0  0  0  0  0  0  0
   -5.3963   -4.6915    0.0630 H   0  0  0  0  0  0  0  0  0  0  0  0
   -3.9981   -4.5943    1.1841 H   0  0  0  0  0  0  0  0  0  0  0  0
   -4.3311   -6.0815    0.1568 H   0  0  0  0  0  0  0  0  0  0  0  0
   -3.6546   -4.1078   -3.1840 H   0  0  0  0  0  0  0  0  0  0  0  0
   -4.7483   -5.4609   -2.4375 H   0  0  0  0  0  0  0  0  0  0  0  0
    5.6959   -2.1925   -2.0382 H   0  0  0  0  0  0  0  0  0  0  0  0
    5.7289   -1.3291   -3.6495 H   0  0  0  0  0  0  0  0  0  0  0  0
    8.3327   -2.8236   -3.5162 H   0  0  0  0  0  0  0  0  0  0  0  0
   10.6357   -2.1679   -3.1066 H   0  0  0  0  0  0  0  0  0  0  0  0
   11.1143   -0.0490   -1.8334 H   0  0  0  0  0  0  0  0  0  0  0  0
    9.2012    1.3232   -1.0188 H   0  0  0  0  0  0  0  0  0  0  0  0
  1  2  1  0
  2  3  2  0
  3  4  1  0
  4  5  2  0
  4  6  1  0
  6  7  1  0
  7  8  1  0
  7  9  1  0
  9 10  2  0
  9 11  1  0
 11 12  1  0
 12 13  1  0
 13 14  1  0
 14 15  2  0
 15 16  1  0
 16 17  1  0
 17 18  2  0
 18 19  1  0
 19 20  2  0
 20 21  1  0
 21 22  2  0
 12 23  1  0
 23 24  2  0
 23 25  1  0
 25 26  1  0
 26 27  1  0
 27 28  1  0
 28 29  1  0
 29 30  1  0
 30 31  1  0
 31 32  1  0
 32 33  1  0
 26 34  1  0
 34 35  2  0
 34 36  1  0
 36 37  1  1
 36 38  1  0
 38 39  1  0
  3 40  1  0
 40 41  1  0
 41 42  2  0
 42 43  1  0
 43 44  2  0
 44 45  1  0
 45 46  2  0
 46  2  1  0
 22 14  1  0
 33 28  1  0
 39 36  1  0
 46 41  1  0
 22 17  1  0
  1 47  1  0
  1 48  1  0
  1 49  1  0
  6 50  1  0
  7 51  1  6
  8 52  1  0
  8 53  1  0
  8 54  1  0
 11 55  1  0
 12 56  1  1
 13 57  1  0
 13 58  1  0
 15 59  1  0
 16 60  1  0
 18 61  1  0
 19 62  1  0
 20 63  1  0
 21 64  1  0
 25 65  1  0
 26 66  1  1
 27 67  1  0
 27 68  1  0
 28 69  1  0
 29 70  1  0
 29 71  1  0
 30 72  1  0
 30 73  1  0
 31 74  1  0
 31 75  1  0
 32 76  1  0
 32 77  1  0
 33 78  1  0
 33 79  1  0
 37 80  1  0
 37 81  1  0
 37 82  1  0
 38 83  1  0
 38 84  1  0
 40 85  1  0
 40 86  1  0
 42 87  1  0
 43 88  1  0
 44 89  1  0
 45 90  1  0
M  END
$$$$
