
     RDKit          3D

 54 57  0  0  0  0  0  0  0  0999 V2000
    9.4139    1.2912    0.9089 O   0  0  0  0  0  0  0  0  0  0  0  0
    8.3336    0.9752    0.3211 C   0  0  0  0  0  0  0  0  0  0  0  0
    7.5878    1.8190   -0.6555 C   0  0  0  0  0  0  0  0  0  0  0  0
    6.1483    2.0198   -0.2280 C   0  0  0  0  0  0  0  0  0  0  0  0
    5.5813    0.6806    0.0695 C   0  0  0  0  0  0  0  0  0  0  0  0
    6.3356   -0.4181    0.4608 C   0  0  0  0  0  0  0  0  0  0  0  0
    7.7490   -0.3085    0.6014 N   0  0  0  0  0  0  0  0  0  0  0  0
    5.7161   -1.6175    0.7138 C   0  0  0  0  0  0  0  0  0  0  0  0
    4.3484   -1.7955    0.5975 C   0  0  0  0  0  0  0  0  0  0  0  0
    3.6436   -0.6702    0.2049 C   0  0  0  0  0  0  0  0  0  0  0  0
    2.2490   -0.8174    0.0769 O   0  0  0  0  0  0  0  0  0  0  0  0
    1.5964   -2.0252    0.3282 C   0  0  0  0  0  0  0  0  0  0  0  0
    0.1042   -1.8080    0.0888 C   0  0  0  0  0  0  0  0  0  0  0  0
   -0.3894   -0.7453    1.0139 C   0  0  0  0  0  0  0  0  0  0  0  0
   -1.8658   -0.5230    0.7887 C   0  0  0  0  0  0  0  0  0  0  0  0
   -2.1082   -0.0951   -0.5925 C   0  0  0  0  0  0  0  0  0  0  0  0
   -1.4851    0.1724   -1.7337 N   0  0  0  0  0  0  0  0  0  0  0  0
   -2.3634    0.5259   -2.6314 N   0  0  0  0  0  0  0  0  0  0  0  0
   -3.5900    0.5029   -2.1122 N   0  0  0  0  0  0  0  0  0  0  0  0
   -3.4168    0.1135   -0.8385 N   0  0  0  0  0  0  0  0  0  0  0  0
   -4.6819    0.0277   -0.0901 C   0  0  0  0  0  0  0  0  0  0  0  0
   -5.2609    1.4034   -0.0482 C   0  0  0  0  0  0  0  0  0  0  0  0
   -6.6284    1.3450    0.5679 C   0  0  0  0  0  0  0  0  0  0  0  0
   -7.4939    0.4635   -0.2858 C   0  0  0  0  0  0  0  0  0  0  0  0
   -6.9816   -0.9534   -0.3943 C   0  0  0  0  0  0  0  0  0  0  0  0
   -5.5203   -1.0077   -0.7553 C   0  0  0  0  0  0  0  0  0  0  0  0
    4.1951    0.5650   -0.0661 C   0  0  0  0  0  0  0  0  0  0  0  0
    8.1074    2.8020   -0.8020 H   0  0  0  0  0  0  0  0  0  0  0  0
    7.5755    1.2366   -1.6200 H   0  0  0  0  0  0  0  0  0  0  0  0
    6.1499    2.6841    0.6727 H   0  0  0  0  0  0  0  0  0  0  0  0
    5.6251    2.5267   -1.0599 H   0  0  0  0  0  0  0  0  0  0  0  0
    8.3553   -1.1213    0.8967 H   0  0  0  0  0  0  0  0  0  0  0  0
    6.3256   -2.4378    1.0115 H   0  0  0  0  0  0  0  0  0  0  0  0
    3.8363   -2.7079    0.7850 H   0  0  0  0  0  0  0  0  0  0  0  0
    1.8072   -2.4294    1.3399 H   0  0  0  0  0  0  0  0  0  0  0  0
    1.9062   -2.8310   -0.3967 H   0  0  0  0  0  0  0  0  0  0  0  0
    0.0308   -1.4681   -0.9628 H   0  0  0  0  0  0  0  0  0  0  0  0
   -0.4759   -2.7559    0.1791 H   0  0  0  0  0  0  0  0  0  0  0  0
   -0.1901   -0.9714    2.0839 H   0  0  0  0  0  0  0  0  0  0  0  0
    0.2054    0.1703    0.8010 H   0  0  0  0  0  0  0  0  0  0  0  0
   -2.3646   -1.4844    1.0315 H   0  0  0  0  0  0  0  0  0  0  0  0
   -2.1871    0.2812    1.5056 H   0  0  0  0  0  0  0  0  0  0  0  0
   -4.4113   -0.2457    0.9579 H   0  0  0  0  0  0  0  0  0  0  0  0
   -5.3723    1.7606   -1.0961 H   0  0  0  0  0  0  0  0  0  0  0  0
   -4.5778    2.0342    0.5425 H   0  0  0  0  0  0  0  0  0  0  0  0
   -7.1251    2.3300    0.6173 H   0  0  0  0  0  0  0  0  0  0  0  0
   -6.5217    0.9544    1.5983 H   0  0  0  0  0  0  0  0  0  0  0  0
   -8.4941    0.3933    0.2097 H   0  0  0  0  0  0  0  0  0  0  0  0
   -7.6715    0.9461   -1.2531 H   0  0  0  0  0  0  0  0  0  0  0  0
   -7.2410   -1.5327    0.5142 H   0  0  0  0  0  0  0  0  0  0  0  0
   -7.5407   -1.4332   -1.2332 H   0  0  0  0  0  0  0  0  0  0  0  0
   -5.3598   -1.0042   -1.8586 H   0  0  0  0  0  0  0  0  0  0  0  0
   -5.1410   -2.0127   -0.4090 H   0  0  0  0  0  0  0  0  0  0  0  0
    3.5327    1.3692   -0.3658 H   0  0  0  0  0  0  0  0  0  0  0  0
  1  2  2  0
  2  3  1  0
  3  4  1  0
  4  5  1  0
  5  6  2  0
  6  7  1  0
  6  8  1  0
  8  9  2  0
  9 10  1  0
 10 11  1  0
 11 12  1  0
 12 13  1  0
 13 14  1  0
 14 15  1  0
 15 16  1  0
 16 17  2  0
 17 18  1  0
 18 19  2  0
 19 20  1  0
 20 21  1  0
 21 22  1  0
 22 23  1  0
 23 24  1  0
 24 25  1  0
 25 26  1  0
 10 27  2  0
  7  2  1  0
 20 16  1  0
 26 21  1  0
 27  5  1  0
  3 28  1  0
  3 29  1  0
  4 30  1  0
  4 31  1  0
  7 32  1  0
  8 33  1  0
  9 34  1  0
 12 35  1  0
 12 36  1  0
 13 37  1  0
 13 38  1  0
 14 39  1  0
 14 40  1  0
 15 41  1  0
 15 42  1  0
 21 43  1  0
 22 44  1  0
 22 45  1  0
 23 46  1  0
 23 47  1  0
 24 48  1  0
 24 49  1  0
 25 50  1  0
 25 51  1  0
 26 52  1  0
 26 53  1  0
 27 54  1  0
M  END
$$$$
