@<TRIPOS>MOLECULE
*****
 54 57 0 0 0
SMALL
GASTEIGER

@<TRIPOS>ATOM
      1 O           9.4139    1.2912    0.9089 O.2     1  UNL1       -0.2755
      2 C           8.3336    0.9752    0.3211 C.2     1  UNL1        0.2175
      3 C           7.5878    1.8190   -0.6555 C.3     1  UNL1        0.0283
      4 C           6.1483    2.0198   -0.2280 C.3     1  UNL1       -0.0175
      5 C           5.5813    0.6806    0.0695 C.ar    1  UNL1       -0.0223
      6 C           6.3356   -0.4181    0.4608 C.ar    1  UNL1        0.0368
      7 N           7.7490   -0.3085    0.6014 N.am    1  UNL1       -0.2852
      8 C           5.7161   -1.6175    0.7138 C.ar    1  UNL1       -0.0368
      9 C           4.3484   -1.7955    0.5975 C.ar    1  UNL1       -0.0182
     10 C           3.6436   -0.6702    0.2049 C.ar    1  UNL1        0.1209
     11 O           2.2490   -0.8174    0.0769 O.3     1  UNL1       -0.4920
     12 C           1.5964   -2.0252    0.3282 C.3     1  UNL1        0.0896
     13 C           0.1042   -1.8080    0.0888 C.3     1  UNL1       -0.0182
     14 C          -0.3894   -0.7453    1.0139 C.3     1  UNL1       -0.0430
     15 C          -1.8658   -0.5230    0.7887 C.3     1  UNL1        0.0090
     16 C          -2.1082   -0.0951   -0.5925 C.ar    1  UNL1        0.1516
     17 N          -1.4851    0.1724   -1.7337 N.ar    1  UNL1       -0.1134
     18 N          -2.3634    0.5259   -2.6314 N.ar    1  UNL1       -0.0230
     19 N          -3.5900    0.5029   -2.1122 N.ar    1  UNL1       -0.0436
     20 N          -3.4168    0.1135   -0.8385 N.ar    1  UNL1       -0.2262
     21 C          -4.6819    0.0277   -0.0901 C.3     1  UNL1        0.0563
     22 C          -5.2609    1.4034   -0.0482 C.3     1  UNL1       -0.0304
     23 C          -6.6284    1.3450    0.5679 C.3     1  UNL1       -0.0511
     24 C          -7.4939    0.4635   -0.2858 C.3     1  UNL1       -0.0529
     25 C          -6.9816   -0.9534   -0.3943 C.3     1  UNL1       -0.0511
     26 C          -5.5203   -1.0077   -0.7553 C.3     1  UNL1       -0.0304
     27 C           4.1951    0.5650   -0.0661 C.ar    1  UNL1       -0.0150
     28 H           8.1074    2.8020   -0.8020 H       1  UNL1        0.0362
     29 H           7.5755    1.2366   -1.6200 H       1  UNL1        0.0362
     30 H           6.1499    2.6841    0.6727 H       1  UNL1        0.0318
     31 H           5.6251    2.5267   -1.0599 H       1  UNL1        0.0318
     32 H           8.3553   -1.1213    0.8967 H       1  UNL1        0.1548
     33 H           6.3256   -2.4378    1.0115 H       1  UNL1        0.0637
     34 H           3.8363   -2.7079    0.7850 H       1  UNL1        0.0655
     35 H           1.8072   -2.4294    1.3399 H       1  UNL1        0.0696
     36 H           1.9062   -2.8310   -0.3967 H       1  UNL1        0.0696
     37 H           0.0308   -1.4681   -0.9628 H       1  UNL1        0.0298
     38 H          -0.4759   -2.7559    0.1791 H       1  UNL1        0.0298
     39 H          -0.1901   -0.9714    2.0839 H       1  UNL1        0.0270
     40 H           0.2054    0.1703    0.8010 H       1  UNL1        0.0270
     41 H          -2.3646   -1.4844    1.0315 H       1  UNL1        0.0344
     42 H          -2.1871    0.2812    1.5056 H       1  UNL1        0.0344
     43 H          -4.4113   -0.2457    0.9579 H       1  UNL1        0.0546
     44 H          -5.3723    1.7606   -1.0961 H       1  UNL1        0.0286
     45 H          -4.5778    2.0342    0.5425 H       1  UNL1        0.0286
     46 H          -7.1251    2.3300    0.6173 H       1  UNL1        0.0266
     47 H          -6.5217    0.9544    1.5983 H       1  UNL1        0.0266
     48 H          -8.4941    0.3933    0.2097 H       1  UNL1        0.0265
     49 H          -7.6715    0.9461   -1.2531 H       1  UNL1        0.0265
     50 H          -7.2410   -1.5327    0.5142 H       1  UNL1        0.0266
     51 H          -7.5407   -1.4332   -1.2332 H       1  UNL1        0.0266
     52 H          -5.3598   -1.0042   -1.8586 H       1  UNL1        0.0286
     53 H          -5.1410   -2.0127   -0.4090 H       1  UNL1        0.0286
     54 H           3.5327    1.3692   -0.3658 H       1  UNL1        0.0657
@<TRIPOS>BOND
     1     1     2    2
     2     2     3    1
     3     3     4    1
     4     4     5    1
     5     5     6   ar
     6     6     7    1
     7     6     8   ar
     8     8     9   ar
     9     9    10   ar
    10    10    11    1
    11    11    12    1
    12    12    13    1
    13    13    14    1
    14    14    15    1
    15    15    16    1
    16    16    17   ar
    17    17    18   ar
    18    18    19   ar
    19    19    20   ar
    20    20    21    1
    21    21    22    1
    22    22    23    1
    23    23    24    1
    24    24    25    1
    25    25    26    1
    26    10    27   ar
    27     7     2   am
    28    20    16   ar
    29    26    21    1
    30    27     5   ar
    31     3    28    1
    32     3    29    1
    33     4    30    1
    34     4    31    1
    35     7    32    1
    36     8    33    1
    37     9    34    1
    38    12    35    1
    39    12    36    1
    40    13    37    1
    41    13    38    1
    42    14    39    1
    43    14    40    1
    44    15    41    1
    45    15    42    1
    46    21    43    1
    47    22    44    1
    48    22    45    1
    49    23    46    1
    50    23    47    1
    51    24    48    1
    52    24    49    1
    53    25    50    1
    54    25    51    1
    55    26    52    1
    56    26    53    1
    57    27    54    1
