@<TRIPOS>MOLECULE
*****
 48 49 0 0 0
SMALL
GASTEIGER

@<TRIPOS>ATOM
      1 O           0.7395    0.6706    1.1724 O.2     1  UNL1       -0.2755
      2 C           0.9360    1.6296    0.3224 C.2     1  UNL1        0.2178
      3 N           2.0838    1.2730   -0.3841 N.am    1  UNL1       -0.3021
      4 CA          2.9146    0.0647   -0.1342 C.3     1  UNL1        0.1202
      5 C           4.3158    0.4872    0.0471 C.2     1  UNL1        0.3253
      6 O           4.5975    1.7069   -0.0273 O.2     1  UNL1       -0.2489
      7 OXT         5.3527   -0.3970    0.2980 O.3     1  UNL1       -0.4793
      8 C           2.8478   -0.9161   -1.2856 C.3     1  UNL1       -0.0241
      9 C           1.4545   -1.4841   -1.4391 C.3     1  UNL1       -0.0509
     10 C           1.0481   -2.3137   -0.2462 C.3     1  UNL1       -0.0530
     11 C          -0.4473   -2.4763   -0.3446 C.3     1  UNL1       -0.0528
     12 C          -0.9501   -3.1332    0.9674 C.3     1  UNL1       -0.0491
     13 C          -2.4370   -2.7208    1.0607 C.3     1  UNL1       -0.0277
     14 C          -2.5247   -1.2215    0.8320 C.ar    1  UNL1       -0.0471
     15 C          -3.3716   -0.9785   -0.2718 C.ar    1  UNL1       -0.0586
     16 C          -3.5517    0.2637   -0.8157 C.ar    1  UNL1       -0.0612
     17 C          -2.8410    1.2628   -0.2050 C.ar    1  UNL1       -0.0585
     18 C          -1.9798    1.0710    0.9035 C.ar    1  UNL1       -0.0464
     19 C          -1.8289   -0.2024    1.4322 C.ar    1  UNL1       -0.0554
     20 C          -1.2917    2.3395    1.2684 C.3     1  UNL1       -0.0158
     21 C          -0.0598    2.6748    0.4081 C.3     1  UNL1        0.0482
     22 C          -0.4791    3.2492   -0.8965 C.3     1  UNL1        0.0021
     23 S          -1.6628    4.6400   -0.6858 S.3     1  UNL1       -0.1775
     24 H           2.4960    1.7876   -1.1381 H       1  UNL1        0.1495
     25 HA          2.6173   -0.4206    0.8099 H       1  UNL1        0.0614
     26 HXT         6.1204   -0.1498    0.9410 H       1  UNL1        0.2951
     27 H           3.2354   -0.4220   -2.1888 H       1  UNL1        0.0288
     28 H           3.5171   -1.7661   -1.0739 H       1  UNL1        0.0288
     29 H           1.3568   -2.1321   -2.3285 H       1  UNL1        0.0266
     30 H           0.7170   -0.6683   -1.5520 H       1  UNL1        0.0266
     31 H           1.2842   -1.9263    0.7276 H       1  UNL1        0.0265
     32 H           1.4550   -3.3668   -0.3687 H       1  UNL1        0.0265
     33 H          -0.7474   -3.1015   -1.2101 H       1  UNL1        0.0265
     34 H          -0.9601   -1.5015   -0.4689 H       1  UNL1        0.0265
     35 H          -0.9233   -4.1963    0.8296 H       1  UNL1        0.0268
     36 H          -0.3763   -2.8020    1.8092 H       1  UNL1        0.0268
     37 H          -2.8280   -3.1142    1.9682 H       1  UNL1        0.0313
     38 H          -2.9215   -3.2692    0.2362 H       1  UNL1        0.0313
     39 H          -3.9431   -1.7992   -0.7473 H       1  UNL1        0.0620
     40 H          -4.2034    0.4455   -1.6608 H       1  UNL1        0.0618
     41 H          -2.9975    2.2673   -0.6263 H       1  UNL1        0.0620
     42 H          -1.2065   -0.3578    2.3802 H       1  UNL1        0.0623
     43 H          -1.9905    3.2284    0.9723 H       1  UNL1        0.0321
     44 H          -1.1542    2.6062    2.3236 H       1  UNL1        0.0321
     45 H           0.3934    3.6052    0.9599 H       1  UNL1        0.0405
     46 H           0.4268    3.6871   -1.4283 H       1  UNL1        0.0381
     47 H          -0.8794    2.5289   -1.6316 H       1  UNL1        0.0381
     48 H          -1.3530    5.3483    0.4896 H       1  UNL1        0.1017
@<TRIPOS>BOND
     1     1     2    2
     2     2     3   am
     3     3     4    1
     4     4     5    1
     5     5     6    2
     6     5     7    1
     7     4     8    1
     8     8     9    1
     9     9    10    1
    10    10    11    1
    11    11    12    1
    12    12    13    1
    13    13    14    1
    14    14    15   ar
    15    15    16   ar
    16    16    17   ar
    17    17    18   ar
    18    18    19   ar
    19    18    20    1
    20    20    21    1
    21    21    22    1
    22    22    23    1
    23    21     2    1
    24    19    14   ar
    25     3    24    1
    26     4    25    1
    27     7    26    1
    28     8    27    1
    29     8    28    1
    30     9    29    1
    31     9    30    1
    32    10    31    1
    33    10    32    1
    34    11    33    1
    35    11    34    1
    36    12    35    1
    37    12    36    1
    38    13    37    1
    39    13    38    1
    40    15    39    1
    41    16    40    1
    42    17    41    1
    43    19    42    1
    44    20    43    1
    45    20    44    1
    46    21    45    1
    47    22    46    1
    48    22    47    1
    49    23    48    1
