@<TRIPOS>MOLECULE
*****
 15 15 0 0 0
SMALL
GASTEIGER

@<TRIPOS>ATOM
      1 O           2.9738    0.5051   -0.2004 O.3     1  UNL1       -0.4771
      2 C           1.9854   -0.4593   -0.0438 C.2     1  UNL1        0.3368
      3 O           2.4623   -1.6291    0.0959 O.2     1  UNL1       -0.2451
      4 C           0.5373   -0.1604   -0.0396 C.ar    1  UNL1        0.0588
      5 C           0.0575    1.1252   -0.1943 C.ar    1  UNL1       -0.0478
      6 C          -1.3107    1.3552   -0.1835 C.ar    1  UNL1       -0.0610
      7 C          -2.1619    0.2763   -0.0159 C.ar    1  UNL1       -0.0617
      8 C          -1.6438   -1.0078    0.1375 C.ar    1  UNL1       -0.0610
      9 C          -0.2888   -1.2368    0.1269 C.ar    1  UNL1       -0.0478
     10 H           3.7705    0.4379    0.4527 H       1  UNL1        0.2954
     11 H           0.7590    1.9570   -0.3249 H       1  UNL1        0.0626
     12 H          -1.6240    2.3883   -0.3100 H       1  UNL1        0.0618
     13 H          -3.2191    0.5055   -0.0143 H       1  UNL1        0.0618
     14 H          -2.3674   -1.8114    0.2649 H       1  UNL1        0.0618
     15 H           0.0700   -2.2458    0.2489 H       1  UNL1        0.0626
@<TRIPOS>BOND
     1     1     2    1
     2     2     3    2
     3     2     4    1
     4     4     5   ar
     5     5     6   ar
     6     6     7   ar
     7     7     8   ar
     8     8     9   ar
     9     9     4   ar
    10     1    10    1
    11     5    11    1
    12     6    12    1
    13     7    13    1
    14     8    14    1
    15     9    15    1
