
     RDKit          3D

 15 15  0  0  0  0  0  0  0  0999 V2000
    2.9738    0.5051   -0.2004 O   0  0  0  0  0  0  0  0  0  0  0  0
    1.9854   -0.4593   -0.0438 C   0  0  0  0  0  0  0  0  0  0  0  0
    2.4623   -1.6291    0.0959 O   0  0  0  0  0  0  0  0  0  0  0  0
    0.5373   -0.1604   -0.0396 C   0  0  0  0  0  0  0  0  0  0  0  0
    0.0575    1.1252   -0.1943 C   0  0  0  0  0  0  0  0  0  0  0  0
   -1.3107    1.3552   -0.1835 C   0  0  0  0  0  0  0  0  0  0  0  0
   -2.1619    0.2763   -0.0159 C   0  0  0  0  0  0  0  0  0  0  0  0
   -1.6438   -1.0078    0.1375 C   0  0  0  0  0  0  0  0  0  0  0  0
   -0.2888   -1.2368    0.1269 C   0  0  0  0  0  0  0  0  0  0  0  0
    3.7705    0.4379    0.4527 H   0  0  0  0  0  0  0  0  0  0  0  0
    0.7590    1.9570   -0.3249 H   0  0  0  0  0  0  0  0  0  0  0  0
   -1.6240    2.3883   -0.3100 H   0  0  0  0  0  0  0  0  0  0  0  0
   -3.2191    0.5055   -0.0143 H   0  0  0  0  0  0  0  0  0  0  0  0
   -2.3674   -1.8114    0.2649 H   0  0  0  0  0  0  0  0  0  0  0  0
    0.0700   -2.2458    0.2489 H   0  0  0  0  0  0  0  0  0  0  0  0
  1  2  1  0
  2  3  2  0
  2  4  1  0
  4  5  2  0
  5  6  1  0
  6  7  2  0
  7  8  1  0
  8  9  2  0
  9  4  1  0
  1 10  1  0
  5 11  1  0
  6 12  1  0
  7 13  1  0
  8 14  1  0
  9 15  1  0
M  END
$$$$
