@<TRIPOS>MOLECULE
*****
 30 32 0 0 0
SMALL
GASTEIGER

@<TRIPOS>ATOM
      1 O          -0.2765   -1.7972   -0.1193 O.2     1  UNL1       -0.2863
      2 C          -0.5025   -0.5639   -0.2007 C.ar    1  UNL1        0.2037
      3 C           0.4944    0.3864   -0.1707 C.ar    1  UNL1        0.0644
      4 C           1.8701    0.0430   -0.0440 C.ar    1  UNL1       -0.0110
      5 C           2.6978    0.7380    0.8386 C.ar    1  UNL1       -0.0504
      6 C           4.0365    0.4289    0.9844 C.ar    1  UNL1       -0.0196
      7 C           4.5775   -0.5998    0.2349 C.ar    1  UNL1        0.1169
      8 O           5.9296   -0.9137    0.3805 O.3     1  UNL1       -0.5068
      9 C           3.7471   -1.2727   -0.6289 C.ar    1  UNL1       -0.0196
     10 C           2.4118   -0.9824   -0.7903 C.ar    1  UNL1       -0.0504
     11 C           0.1076    1.7015   -0.2691 C.ar    1  UNL1        0.1038
     12 O          -1.1591    2.0611   -0.3879 O.2     1  UNL1       -0.4618
     13 C          -2.1380    1.1984   -0.4211 C.ar    1  UNL1        0.1454
     14 C          -3.4635    1.5509   -0.5442 C.ar    1  UNL1        0.0231
     15 C          -4.4912    0.6306   -0.5783 C.ar    1  UNL1        0.1239
     16 O          -5.8300    1.0470   -0.7058 O.3     1  UNL1       -0.5065
     17 C          -4.1618   -0.7055   -0.4834 C.ar    1  UNL1        0.0223
     18 C          -2.8418   -1.0952   -0.3587 C.ar    1  UNL1        0.1347
     19 O          -2.4943   -2.4377   -0.2620 O.3     1  UNL1       -0.5058
     20 C          -1.8124   -0.1488   -0.3259 C.ar    1  UNL1        0.1060
     21 H           2.3315    1.5505    1.4499 H       1  UNL1        0.0625
     22 H           4.6753    0.9828    1.6812 H       1  UNL1        0.0654
     23 H           6.6608   -0.5129   -0.1710 H       1  UNL1        0.2921
     24 H           4.2159   -2.0814   -1.2043 H       1  UNL1        0.0654
     25 H           1.8297   -1.5706   -1.4999 H       1  UNL1        0.0625
     26 H           0.8436    2.4866   -0.2512 H       1  UNL1        0.1037
     27 H          -3.7298    2.5932   -0.6190 H       1  UNL1        0.0691
     28 H          -6.2403    1.5037    0.1226 H       1  UNL1        0.2921
     29 H          -4.9595   -1.4340   -0.5090 H       1  UNL1        0.0691
     30 H          -2.3283   -2.7870    0.6805 H       1  UNL1        0.2922
@<TRIPOS>BOND
     1     1     2    2
     2     2     3   ar
     3     3     4    1
     4     4     5   ar
     5     5     6   ar
     6     6     7   ar
     7     7     8    1
     8     7     9   ar
     9     9    10   ar
    10     3    11   ar
    11    11    12   ar
    12    12    13   ar
    13    13    14   ar
    14    14    15   ar
    15    15    16    1
    16    15    17   ar
    17    17    18   ar
    18    18    19    1
    19    18    20   ar
    20    20     2   ar
    21    10     4   ar
    22    20    13   ar
    23     5    21    1
    24     6    22    1
    25     8    23    1
    26     9    24    1
    27    10    25    1
    28    11    26    1
    29    14    27    1
    30    16    28    1
    31    17    29    1
    32    19    30    1
