@<TRIPOS>MOLECULE
*****
 56 61 0 0 0
SMALL
GASTEIGER

@<TRIPOS>ATOM
      1 C           9.1620    0.6873    0.4135 C.3     1  UNL1        0.0788
      2 O           8.2245    0.9638   -0.6110 O.3     1  UNL1       -0.4950
      3 C           6.8866    0.6898   -0.3411 C.ar    1  UNL1        0.1237
      4 C           5.9345    0.9471   -1.3206 C.ar    1  UNL1       -0.0190
      5 C           4.6026    0.6818   -1.0710 C.ar    1  UNL1       -0.0439
      6 C           4.1913    0.1623    0.1397 C.ar    1  UNL1        0.0662
      7 C           2.9529   -0.1862    0.6357 C.ar    1  UNL1        0.1922
      8 N           1.7444   -0.0572   -0.0962 N.ar    1  UNL1       -0.2413
      9 C           0.9226    1.0231   -0.1393 C.ar    1  UNL1        0.3362
     10 O           1.1270    2.0964    0.4857 O.2     1  UNL1       -0.2459
     11 N          -0.1186    0.7771   -0.9333 N.ar    1  UNL1       -0.2874
     12 C          -1.2098    1.6793   -1.2359 C.3     1  UNL1        0.0532
     13 C          -2.3413    1.5565   -0.2846 C.ar    1  UNL1       -0.0272
     14 C          -2.3639    2.3219    0.8614 C.ar    1  UNL1       -0.0568
     15 C          -3.3907    2.2573    1.7919 C.ar    1  UNL1       -0.0611
     16 C          -4.4238    1.3698    1.5209 C.ar    1  UNL1       -0.0543
     17 C          -4.4408    0.5887    0.3915 C.ar    1  UNL1        0.0049
     18 C          -5.5565   -0.3307    0.1563 C.3     1  UNL1        0.2142
     19 C          -5.5519   -0.9293   -1.2244 C.3     1  UNL1       -0.0116
     20 O          -5.5409   -1.3960    1.0963 O.2     1  UNL1       -0.4308
     21 C          -6.7696   -1.4391    1.7502 C.2     1  UNL1        0.3808
     22 O          -7.1308   -2.3995    2.6666 O.2     1  UNL1       -0.4673
     23 N          -7.5255   -0.4597    1.3841 N.am    1  UNL1       -0.1074
     24 C          -6.8336    0.3325    0.4290 C.2     1  UNL1        0.2899
     25 O          -7.2482    1.3970   -0.0777 O.2     1  UNL1       -0.2687
     26 C          -3.3852    0.6905   -0.5133 C.ar    1  UNL1       -0.0494
     27 C           0.0078   -0.4685   -1.4208 C.ar    1  UNL1        0.0706
     28 C          -0.7130   -1.2826   -2.2660 C.ar    1  UNL1       -0.0360
     29 C          -0.2680   -2.5673   -2.5635 C.ar    1  UNL1       -0.0597
     30 C           0.8954   -3.0726   -2.0334 C.ar    1  UNL1       -0.0597
     31 C           1.6233   -2.2634   -1.1860 C.ar    1  UNL1       -0.0356
     32 C           1.1782   -0.9829   -0.8904 C.ar    1  UNL1        0.0765
     33 N           3.1798   -0.6371    1.8784 N.ar    1  UNL1       -0.0587
     34 O           4.4532   -0.5814    2.1527 O.2     1  UNL1       -0.3525
     35 C           5.1310   -0.1031    1.1363 C.ar    1  UNL1        0.1728
     36 C           6.4487    0.1761    0.8461 C.ar    1  UNL1        0.0257
     37 H           8.9975    1.3867    1.2373 H       1  UNL1        0.0660
     38 H          10.2058    0.7451    0.0419 H       1  UNL1        0.0660
     39 H           9.0382   -0.3648    0.7873 H       1  UNL1        0.0660
     40 H           6.2408    1.3547   -2.2760 H       1  UNL1        0.0654
     41 H           3.8433    0.8801   -1.8344 H       1  UNL1        0.0627
     42 H          -1.5296    1.5481   -2.2887 H       1  UNL1        0.0543
     43 H          -0.8534    2.7422   -1.1674 H       1  UNL1        0.0543
     44 H          -1.5353    3.0119    1.0467 H       1  UNL1        0.0621
     45 H          -3.3692    2.8785    2.6822 H       1  UNL1        0.0618
     46 H          -5.2150    1.3336    2.2578 H       1  UNL1        0.0622
     47 H          -5.5985   -0.1917   -2.0291 H       1  UNL1        0.0276
     48 H          -4.6853   -1.6228   -1.3231 H       1  UNL1        0.0276
     49 H          -6.4647   -1.5755   -1.2960 H       1  UNL1        0.0276
     50 H          -8.1143   -2.6136    2.8880 H       1  UNL1        0.2967
     51 H          -3.3769    0.0841   -1.4128 H       1  UNL1        0.0625
     52 H          -1.6181   -0.9153   -2.6914 H       1  UNL1        0.0639
     53 H          -0.8348   -3.2105   -3.2295 H       1  UNL1        0.0618
     54 H           1.2561   -4.0613   -2.2504 H       1  UNL1        0.0618
     55 H           2.5609   -2.6278   -0.7391 H       1  UNL1        0.0639
     56 H           7.1990   -0.0234    1.6096 H       1  UNL1        0.0692
@<TRIPOS>BOND
     1     1     2    1
     2     2     3    1
     3     3     4   ar
     4     4     5   ar
     5     5     6   ar
     6     6     7   ar
     7     7     8    1
     8     8     9   ar
     9     9    10    2
    10     9    11   ar
    11    11    12    1
    12    12    13    1
    13    13    14   ar
    14    14    15   ar
    15    15    16   ar
    16    16    17   ar
    17    17    18    1
    18    18    19    1
    19    18    20    1
    20    20    21    1
    21    21    22    1
    22    21    23    2
    23    23    24    1
    24    24    25    2
    25    17    26   ar
    26    11    27   ar
    27    27    28   ar
    28    28    29   ar
    29    29    30   ar
    30    30    31   ar
    31    31    32   ar
    32     7    33   ar
    33    33    34   ar
    34    34    35   ar
    35    35    36   ar
    36    36     3   ar
    37    35     6   ar
    38    32     8   ar
    39    26    13   ar
    40    32    27   ar
    41    24    18    1
    42     1    37    1
    43     1    38    1
    44     1    39    1
    45     4    40    1
    46     5    41    1
    47    12    42    1
    48    12    43    1
    49    14    44    1
    50    15    45    1
    51    16    46    1
    52    19    47    1
    53    19    48    1
    54    19    49    1
    55    22    50    1
    56    26    51    1
    57    28    52    1
    58    29    53    1
    59    30    54    1
    60    31    55    1
    61    36    56    1
