
     RDKit          3D

 56 61  0  0  0  0  0  0  0  0999 V2000
    9.1620    0.6873    0.4135 C   0  0  0  0  0  0  0  0  0  0  0  0
    8.2245    0.9638   -0.6110 O   0  0  0  0  0  0  0  0  0  0  0  0
    6.8866    0.6898   -0.3411 C   0  0  0  0  0  0  0  0  0  0  0  0
    5.9345    0.9471   -1.3206 C   0  0  0  0  0  0  0  0  0  0  0  0
    4.6026    0.6818   -1.0710 C   0  0  0  0  0  0  0  0  0  0  0  0
    4.1913    0.1623    0.1397 C   0  0  0  0  0  0  0  0  0  0  0  0
    2.9529   -0.1862    0.6357 C   0  0  0  0  0  0  0  0  0  0  0  0
    1.7444   -0.0572   -0.0962 N   0  0  0  0  0  0  0  0  0  0  0  0
    0.9226    1.0231   -0.1393 C   0  0  0  0  0  0  0  0  0  0  0  0
    1.1270    2.0964    0.4857 O   0  0  0  0  0  0  0  0  0  0  0  0
   -0.1186    0.7771   -0.9333 N   0  0  0  0  0  0  0  0  0  0  0  0
   -1.2098    1.6793   -1.2359 C   0  0  0  0  0  0  0  0  0  0  0  0
   -2.3413    1.5565   -0.2846 C   0  0  0  0  0  0  0  0  0  0  0  0
   -2.3639    2.3219    0.8614 C   0  0  0  0  0  0  0  0  0  0  0  0
   -3.3907    2.2573    1.7919 C   0  0  0  0  0  0  0  0  0  0  0  0
   -4.4238    1.3698    1.5209 C   0  0  0  0  0  0  0  0  0  0  0  0
   -4.4408    0.5887    0.3915 C   0  0  0  0  0  0  0  0  0  0  0  0
   -5.5565   -0.3307    0.1563 C   0  0  1  0  0  0  0  0  0  0  0  0
   -5.5519   -0.9293   -1.2244 C   0  0  0  0  0  0  0  0  0  0  0  0
   -5.5409   -1.3960    1.0963 O   0  0  0  0  0  0  0  0  0  0  0  0
   -6.7696   -1.4391    1.7502 C   0  0  0  0  0  0  0  0  0  0  0  0
   -7.1308   -2.3995    2.6666 O   0  0  0  0  0  0  0  0  0  0  0  0
   -7.5255   -0.4597    1.3841 N   0  0  0  0  0  0  0  0  0  0  0  0
   -6.8336    0.3325    0.4290 C   0  0  0  0  0  0  0  0  0  0  0  0
   -7.2482    1.3970   -0.0777 O   0  0  0  0  0  0  0  0  0  0  0  0
   -3.3852    0.6905   -0.5133 C   0  0  0  0  0  0  0  0  0  0  0  0
    0.0078   -0.4685   -1.4208 C   0  0  0  0  0  0  0  0  0  0  0  0
   -0.7130   -1.2826   -2.2660 C   0  0  0  0  0  0  0  0  0  0  0  0
   -0.2680   -2.5673   -2.5635 C   0  0  0  0  0  0  0  0  0  0  0  0
    0.8954   -3.0726   -2.0334 C   0  0  0  0  0  0  0  0  0  0  0  0
    1.6233   -2.2634   -1.1860 C   0  0  0  0  0  0  0  0  0  0  0  0
    1.1782   -0.9829   -0.8904 C   0  0  0  0  0  0  0  0  0  0  0  0
    3.1798   -0.6371    1.8784 N   0  0  0  0  0  0  0  0  0  0  0  0
    4.4532   -0.5814    2.1527 O   0  0  0  0  0  0  0  0  0  0  0  0
    5.1310   -0.1031    1.1363 C   0  0  0  0  0  0  0  0  0  0  0  0
    6.4487    0.1761    0.8461 C   0  0  0  0  0  0  0  0  0  0  0  0
    8.9975    1.3867    1.2373 H   0  0  0  0  0  0  0  0  0  0  0  0
   10.2058    0.7451    0.0419 H   0  0  0  0  0  0  0  0  0  0  0  0
    9.0382   -0.3648    0.7873 H   0  0  0  0  0  0  0  0  0  0  0  0
    6.2408    1.3547   -2.2760 H   0  0  0  0  0  0  0  0  0  0  0  0
    3.8433    0.8801   -1.8344 H   0  0  0  0  0  0  0  0  0  0  0  0
   -1.5296    1.5481   -2.2887 H   0  0  0  0  0  0  0  0  0  0  0  0
   -0.8534    2.7422   -1.1674 H   0  0  0  0  0  0  0  0  0  0  0  0
   -1.5353    3.0119    1.0467 H   0  0  0  0  0  0  0  0  0  0  0  0
   -3.3692    2.8785    2.6822 H   0  0  0  0  0  0  0  0  0  0  0  0
   -5.2150    1.3336    2.2578 H   0  0  0  0  0  0  0  0  0  0  0  0
   -5.5985   -0.1917   -2.0291 H   0  0  0  0  0  0  0  0  0  0  0  0
   -4.6853   -1.6228   -1.3231 H   0  0  0  0  0  0  0  0  0  0  0  0
   -6.4647   -1.5755   -1.2960 H   0  0  0  0  0  0  0  0  0  0  0  0
   -8.1143   -2.6136    2.8880 H   0  0  0  0  0  0  0  0  0  0  0  0
   -3.3769    0.0841   -1.4128 H   0  0  0  0  0  0  0  0  0  0  0  0
   -1.6181   -0.9153   -2.6914 H   0  0  0  0  0  0  0  0  0  0  0  0
   -0.8348   -3.2105   -3.2295 H   0  0  0  0  0  0  0  0  0  0  0  0
    1.2561   -4.0613   -2.2504 H   0  0  0  0  0  0  0  0  0  0  0  0
    2.5609   -2.6278   -0.7391 H   0  0  0  0  0  0  0  0  0  0  0  0
    7.1990   -0.0234    1.6096 H   0  0  0  0  0  0  0  0  0  0  0  0
  1  2  1  0
  2  3  1  0
  3  4  2  0
  4  5  1  0
  5  6  2  0
  6  7  1  0
  7  8  1  0
  8  9  1  0
  9 10  2  0
  9 11  1  0
 11 12  1  0
 12 13  1  0
 13 14  2  0
 14 15  1  0
 15 16  2  0
 16 17  1  0
 17 18  1  0
 18 19  1  6
 18 20  1  0
 20 21  1  0
 21 22  1  0
 21 23  2  0
 23 24  1  0
 24 25  2  0
 17 26  2  0
 11 27  1  0
 27 28  2  0
 28 29  1  0
 29 30  2  0
 30 31  1  0
 31 32  2  0
  7 33  2  0
 33 34  1  0
 34 35  1  0
 35 36  2  0
 36  3  1  0
 35  6  1  0
 32  8  1  0
 26 13  1  0
 32 27  1  0
 24 18  1  0
  1 37  1  0
  1 38  1  0
  1 39  1  0
  4 40  1  0
  5 41  1  0
 12 42  1  0
 12 43  1  0
 14 44  1  0
 15 45  1  0
 16 46  1  0
 19 47  1  0
 19 48  1  0
 19 49  1  0
 22 50  1  0
 26 51  1  0
 28 52  1  0
 29 53  1  0
 30 54  1  0
 31 55  1  0
 36 56  1  0
M  END
$$$$
