@<TRIPOS>MOLECULE
*****
 47 50 0 0 0
SMALL
GASTEIGER

@<TRIPOS>ATOM
      1 C          -1.4499   -2.7985   -2.1382 C.3     1  UNL1       -0.0122
      2 N          -1.4845   -1.8214   -1.1055 N.3     1  UNL1       -0.2986
      3 C          -2.7419   -1.8332   -0.3463 C.3     1  UNL1        0.0110
      4 C          -2.6043   -2.9281    0.6754 C.3     1  UNL1       -0.0359
      5 C          -1.1511   -3.3895    0.5089 C.3     1  UNL1       -0.0351
      6 C          -0.5449   -2.1011   -0.0662 C.3     1  UNL1        0.0239
      7 C          -0.4552   -1.0529    0.9961 C.3     1  UNL1        0.0791
      8 C           0.8815   -0.4092    0.8799 C.2     1  UNL1        0.3175
      9 O           1.7242   -0.4086    1.8425 O.2     1  UNL1       -0.2500
     10 O           1.3358    0.2400   -0.2608 O.3     1  UNL1       -0.4256
     11 C           2.5908    0.8316   -0.3382 C.ar    1  UNL1        0.1316
     12 C           3.6268    0.0348   -0.7872 C.ar    1  UNL1       -0.0192
     13 C           4.9202    0.4975   -0.9110 C.ar    1  UNL1       -0.0583
     14 C           5.1627    1.8047   -0.5686 C.ar    1  UNL1       -0.0615
     15 C           4.1295    2.6009   -0.1204 C.ar    1  UNL1       -0.0583
     16 C           2.8439    2.1272   -0.0015 C.ar    1  UNL1       -0.0192
     17 C          -1.5942   -0.0876    1.0612 C.3     1  UNL1       -0.0001
     18 C          -1.2427    1.3089    0.6859 C.ar    1  UNL1       -0.0434
     19 C          -1.1650    2.2753    1.6688 C.ar    1  UNL1       -0.0583
     20 C          -0.8536    3.5961    1.4290 C.ar    1  UNL1       -0.0615
     21 C          -0.6119    3.9264    0.1054 C.ar    1  UNL1       -0.0617
     22 C          -0.6839    2.9770   -0.8940 C.ar    1  UNL1       -0.0615
     23 C          -0.9974    1.6637   -0.6267 C.ar    1  UNL1       -0.0583
     24 C          -2.8150   -0.4755    0.3032 C.3     1  UNL1       -0.0297
     25 H          -2.2762   -3.5274   -1.9576 H       1  UNL1        0.0391
     26 H          -1.6800   -2.2887   -3.1070 H       1  UNL1        0.0391
     27 H          -0.4868   -3.3058   -2.2687 H       1  UNL1        0.0391
     28 H          -3.5863   -1.9560   -1.0226 H       1  UNL1        0.0463
     29 H          -2.6555   -2.4907    1.7120 H       1  UNL1        0.0281
     30 H          -3.3081   -3.7596    0.5319 H       1  UNL1        0.0281
     31 H          -0.6929   -3.6721    1.4564 H       1  UNL1        0.0281
     32 H          -1.1603   -4.1710   -0.2627 H       1  UNL1        0.0281
     33 H           0.4356   -2.3855   -0.4951 H       1  UNL1        0.0471
     34 H          -0.3993   -1.6370    1.9684 H       1  UNL1        0.0435
     35 H           3.4751   -1.0167   -1.0714 H       1  UNL1        0.0654
     36 H           5.7160   -0.1448   -1.2649 H       1  UNL1        0.0619
     37 H           6.1801    2.1595   -0.6688 H       1  UNL1        0.0618
     38 H           4.3351    3.6352    0.1477 H       1  UNL1        0.0619
     39 H           2.0205    2.7298    0.3462 H       1  UNL1        0.0654
     40 H          -1.9016   -0.0343    2.1453 H       1  UNL1        0.0358
     41 H          -1.3536    2.0325    2.7262 H       1  UNL1        0.0620
     42 H          -0.7878    4.3660    2.1822 H       1  UNL1        0.0618
     43 H          -0.3630    4.9527   -0.1329 H       1  UNL1        0.0618
     44 H          -0.4929    3.2374   -1.9405 H       1  UNL1        0.0618
     45 H          -1.0597    0.9121   -1.3990 H       1  UNL1        0.0620
     46 H          -3.7493   -0.4678    0.9165 H       1  UNL1        0.0286
     47 H          -3.0293    0.2536   -0.5331 H       1  UNL1        0.0286
@<TRIPOS>BOND
     1     1     2    1
     2     2     3    1
     3     3     4    1
     4     4     5    1
     5     5     6    1
     6     6     7    1
     7     7     8    1
     8     8     9    2
     9     8    10    1
    10    10    11    1
    11    11    12   ar
    12    12    13   ar
    13    13    14   ar
    14    14    15   ar
    15    15    16   ar
    16     7    17    1
    17    17    18    1
    18    18    19   ar
    19    19    20   ar
    20    20    21   ar
    21    21    22   ar
    22    22    23   ar
    23    17    24    1
    24     6     2    1
    25    16    11   ar
    26    23    18   ar
    27    24     3    1
    28     1    25    1
    29     1    26    1
    30     1    27    1
    31     3    28    1
    32     4    29    1
    33     4    30    1
    34     5    31    1
    35     5    32    1
    36     6    33    1
    37     7    34    1
    38    12    35    1
    39    13    36    1
    40    14    37    1
    41    15    38    1
    42    16    39    1
    43    17    40    1
    44    19    41    1
    45    20    42    1
    46    21    43    1
    47    22    44    1
    48    23    45    1
    49    24    46    1
    50    24    47    1
