
     RDKit          3D

 47 50  0  0  0  0  0  0  0  0999 V2000
   -1.4499   -2.7985   -2.1382 C   0  0  0  0  0  0  0  0  0  0  0  0
   -1.4845   -1.8214   -1.1055 N   0  0  0  0  0  0  0  0  0  0  0  0
   -2.7419   -1.8332   -0.3463 C   0  0  0  0  0  0  0  0  0  0  0  0
   -2.6043   -2.9281    0.6754 C   0  0  0  0  0  0  0  0  0  0  0  0
   -1.1511   -3.3895    0.5089 C   0  0  0  0  0  0  0  0  0  0  0  0
   -0.5449   -2.1011   -0.0662 C   0  0  0  0  0  0  0  0  0  0  0  0
   -0.4552   -1.0529    0.9961 C   0  0  0  0  0  0  0  0  0  0  0  0
    0.8815   -0.4092    0.8799 C   0  0  0  0  0  0  0  0  0  0  0  0
    1.7242   -0.4086    1.8425 O   0  0  0  0  0  0  0  0  0  0  0  0
    1.3358    0.2400   -0.2608 O   0  0  0  0  0  0  0  0  0  0  0  0
    2.5908    0.8316   -0.3382 C   0  0  0  0  0  0  0  0  0  0  0  0
    3.6268    0.0348   -0.7872 C   0  0  0  0  0  0  0  0  0  0  0  0
    4.9202    0.4975   -0.9110 C   0  0  0  0  0  0  0  0  0  0  0  0
    5.1627    1.8047   -0.5686 C   0  0  0  0  0  0  0  0  0  0  0  0
    4.1295    2.6009   -0.1204 C   0  0  0  0  0  0  0  0  0  0  0  0
    2.8439    2.1272   -0.0015 C   0  0  0  0  0  0  0  0  0  0  0  0
   -1.5942   -0.0876    1.0612 C   0  0  0  0  0  0  0  0  0  0  0  0
   -1.2427    1.3089    0.6859 C   0  0  0  0  0  0  0  0  0  0  0  0
   -1.1650    2.2753    1.6688 C   0  0  0  0  0  0  0  0  0  0  0  0
   -0.8536    3.5961    1.4290 C   0  0  0  0  0  0  0  0  0  0  0  0
   -0.6119    3.9264    0.1054 C   0  0  0  0  0  0  0  0  0  0  0  0
   -0.6839    2.9770   -0.8940 C   0  0  0  0  0  0  0  0  0  0  0  0
   -0.9974    1.6637   -0.6267 C   0  0  0  0  0  0  0  0  0  0  0  0
   -2.8150   -0.4755    0.3032 C   0  0  0  0  0  0  0  0  0  0  0  0
   -2.2762   -3.5274   -1.9576 H   0  0  0  0  0  0  0  0  0  0  0  0
   -1.6800   -2.2887   -3.1070 H   0  0  0  0  0  0  0  0  0  0  0  0
   -0.4868   -3.3058   -2.2687 H   0  0  0  0  0  0  0  0  0  0  0  0
   -3.5863   -1.9560   -1.0226 H   0  0  0  0  0  0  0  0  0  0  0  0
   -2.6555   -2.4907    1.7120 H   0  0  0  0  0  0  0  0  0  0  0  0
   -3.3081   -3.7596    0.5319 H   0  0  0  0  0  0  0  0  0  0  0  0
   -0.6929   -3.6721    1.4564 H   0  0  0  0  0  0  0  0  0  0  0  0
   -1.1603   -4.1710   -0.2627 H   0  0  0  0  0  0  0  0  0  0  0  0
    0.4356   -2.3855   -0.4951 H   0  0  0  0  0  0  0  0  0  0  0  0
   -0.3993   -1.6370    1.9684 H   0  0  0  0  0  0  0  0  0  0  0  0
    3.4751   -1.0167   -1.0714 H   0  0  0  0  0  0  0  0  0  0  0  0
    5.7160   -0.1448   -1.2649 H   0  0  0  0  0  0  0  0  0  0  0  0
    6.1801    2.1595   -0.6688 H   0  0  0  0  0  0  0  0  0  0  0  0
    4.3351    3.6352    0.1477 H   0  0  0  0  0  0  0  0  0  0  0  0
    2.0205    2.7298    0.3462 H   0  0  0  0  0  0  0  0  0  0  0  0
   -1.9016   -0.0343    2.1453 H   0  0  0  0  0  0  0  0  0  0  0  0
   -1.3536    2.0325    2.7262 H   0  0  0  0  0  0  0  0  0  0  0  0
   -0.7878    4.3660    2.1822 H   0  0  0  0  0  0  0  0  0  0  0  0
   -0.3630    4.9527   -0.1329 H   0  0  0  0  0  0  0  0  0  0  0  0
   -0.4929    3.2374   -1.9405 H   0  0  0  0  0  0  0  0  0  0  0  0
   -1.0597    0.9121   -1.3990 H   0  0  0  0  0  0  0  0  0  0  0  0
   -3.7493   -0.4678    0.9165 H   0  0  0  0  0  0  0  0  0  0  0  0
   -3.0293    0.2536   -0.5331 H   0  0  0  0  0  0  0  0  0  0  0  0
  1  2  1  0
  2  3  1  0
  3  4  1  0
  4  5  1  0
  5  6  1  0
  6  7  1  0
  7  8  1  0
  8  9  2  0
  8 10  1  0
 10 11  1  0
 11 12  2  0
 12 13  1  0
 13 14  2  0
 14 15  1  0
 15 16  2  0
  7 17  1  0
 17 18  1  0
 18 19  2  0
 19 20  1  0
 20 21  2  0
 21 22  1  0
 22 23  2  0
 17 24  1  0
  6  2  1  0
 16 11  1  0
 23 18  1  0
 24  3  1  0
  1 25  1  0
  1 26  1  0
  1 27  1  0
  3 28  1  0
  4 29  1  0
  4 30  1  0
  5 31  1  0
  5 32  1  0
  6 33  1  0
  7 34  1  0
 12 35  1  0
 13 36  1  0
 14 37  1  0
 15 38  1  0
 16 39  1  0
 17 40  1  0
 19 41  1  0
 20 42  1  0
 21 43  1  0
 22 44  1  0
 23 45  1  0
 24 46  1  0
 24 47  1  0
M  END
$$$$
