@<TRIPOS>MOLECULE
*****
 61 65 0 0 0
SMALL
GASTEIGER

@<TRIPOS>ATOM
      1 C          -5.5586    3.0366    1.2398 C.3     1  UNL1       -0.0376
      2 C          -6.1100    2.2785    0.0851 C.ar    1  UNL1       -0.0210
      3 C          -7.1816    2.7754   -0.5753 C.ar    1  UNL1       -0.0379
      4 C          -7.7301    2.0923   -1.6503 C.ar    1  UNL1        0.0701
      5 C          -8.8635    2.6180   -2.4038 C.1     1  UNL1        0.1007
      6 N          -9.7700    3.0364   -2.9838 N.1     1  UNL1       -0.1908
      7 C          -7.1445    0.8991   -2.0111 C.ar    1  UNL1        0.0457
      8 N          -6.0921    0.4487   -1.3348 N.ar    1  UNL1       -0.2512
      9 C          -5.5317    1.0861   -0.2882 C.ar    1  UNL1        0.1019
     10 C          -4.3428    0.5736    0.3825 C.2     1  UNL1        0.1494
     11 F          -3.7256    1.2430    1.3781 F       1  UNL1       -0.2032
     12 C          -3.8766   -0.5895   -0.0195 C.2     1  UNL1       -0.0172
     13 C          -2.7058   -1.2304    0.5393 C.ar    1  UNL1       -0.0217
     14 C          -2.7432   -2.5865    0.7739 C.ar    1  UNL1       -0.0518
     15 C          -1.6097   -3.2431    1.2717 C.ar    1  UNL1       -0.0255
     16 C          -0.4591   -2.5221    1.5214 C.ar    1  UNL1        0.1289
     17 F           0.6144   -3.1977    2.0009 F       1  UNL1       -0.2051
     18 C          -0.4053   -1.1536    1.2877 C.ar    1  UNL1        0.0158
     19 C           0.9072   -0.4273    1.5268 C.3     1  UNL1        0.0935
     20 C           0.6136    1.0501    1.2315 C.3     1  UNL1       -0.0351
     21 N           1.2957   -0.5740    2.8864 N.2     1  UNL1       -0.2521
     22 C           2.4543   -0.2275    3.2944 C.2     1  UNL1        0.1485
     23 N           2.8706   -0.3584    4.6313 N.pl3   1  UNL1       -0.3380
     24 S           3.5819    0.4543    2.0965 S.3     1  UNL1       -0.0746
     25 C           3.1866   -0.4040    0.5221 C.3     1  UNL1        0.1054
     26 C           3.6815    0.1798   -0.7170 C.2     1  UNL1        0.2326
     27 O           2.8929    0.9730   -1.3310 O.2     1  UNL1       -0.2741
     28 N           4.9497   -0.0937   -1.2401 N.am    1  UNL1       -0.2960
     29 C           5.8931   -0.9469   -0.5702 C.3     1  UNL1        0.0382
     30 C           6.6267   -1.6807   -1.7098 C.3     1  UNL1        0.0635
     31 O           7.4235   -0.7490   -2.3342 O.3     1  UNL1       -0.3767
     32 C           6.7553    0.3423   -2.8067 C.3     1  UNL1        0.0635
     33 C           5.3032    0.4862   -2.5066 C.3     1  UNL1        0.0382
     34 C           2.9596   -1.8683    0.7131 C.3     1  UNL1       -0.0220
     35 C           1.8294   -0.9771    0.4939 C.3     1  UNL1        0.0134
     36 C          -1.5230   -0.5526    0.8080 C.ar    1  UNL1       -0.0463
     37 H          -4.5185    3.3373    1.1467 H       1  UNL1        0.0278
     38 H          -6.2063    3.9387    1.4415 H       1  UNL1        0.0278
     39 H          -5.7402    2.3921    2.1513 H       1  UNL1        0.0278
     40 H          -7.6698    3.7143   -0.3158 H       1  UNL1        0.0634
     41 H          -7.5212    0.3076   -2.8519 H       1  UNL1        0.0843
     42 H          -4.4110   -1.0974   -0.8257 H       1  UNL1        0.0653
     43 H          -3.6642   -3.1307    0.5660 H       1  UNL1        0.0624
     44 H          -1.6861   -4.3228    1.4409 H       1  UNL1        0.0646
     45 H          -0.2228    1.4507    1.8286 H       1  UNL1        0.0256
     46 H           0.3149    1.1426    0.1540 H       1  UNL1        0.0256
     47 H           1.4817    1.6998    1.4605 H       1  UNL1        0.0256
     48 H           2.6325    0.3552    5.3866 H       1  UNL1        0.1442
     49 H           3.4463   -1.1706    4.9707 H       1  UNL1        0.1442
     50 H           6.6323   -0.3561    0.0302 H       1  UNL1        0.0487
     51 H           5.4060   -1.6565    0.0988 H       1  UNL1        0.0487
     52 H           5.8684   -2.1175   -2.3910 H       1  UNL1        0.0575
     53 H           7.1979   -2.4974   -1.2432 H       1  UNL1        0.0575
     54 H           6.9424    0.4722   -3.9312 H       1  UNL1        0.0575
     55 H           7.2669    1.2828   -2.4016 H       1  UNL1        0.0575
     56 H           4.7199   -0.0548   -3.3078 H       1  UNL1        0.0487
     57 H           5.0185    1.5792   -2.5269 H       1  UNL1        0.0487
     58 H           3.2578   -2.5216   -0.1398 H       1  UNL1        0.0287
     59 H           3.1811   -2.3622    1.6942 H       1  UNL1        0.0287
     60 H           1.3327   -1.0688   -0.5277 H       1  UNL1        0.0346
     61 H          -1.5250    0.4927    0.6163 H       1  UNL1        0.0628
@<TRIPOS>BOND
     1     1     2    1
     2     2     3   ar
     3     3     4   ar
     4     4     5    1
     5     5     6    3
     6     4     7   ar
     7     7     8   ar
     8     8     9   ar
     9     9    10    1
    10    10    11    1
    11    10    12    2
    12    12    13    1
    13    13    14   ar
    14    14    15   ar
    15    15    16   ar
    16    16    17    1
    17    16    18   ar
    18    18    19    1
    19    19    20    1
    20    19    21    1
    21    21    22    2
    22    22    23    1
    23    22    24    1
    24    24    25    1
    25    25    26    1
    26    26    27    2
    27    26    28   am
    28    28    29    1
    29    29    30    1
    30    30    31    1
    31    31    32    1
    32    32    33    1
    33    25    34    1
    34    34    35    1
    35    18    36   ar
    36     9     2   ar
    37    36    13   ar
    38    35    19    1
    39    35    25    1
    40    33    28    1
    41     1    37    1
    42     1    38    1
    43     1    39    1
    44     3    40    1
    45     7    41    1
    46    12    42    1
    47    14    43    1
    48    15    44    1
    49    20    45    1
    50    20    46    1
    51    20    47    1
    52    23    48    1
    53    23    49    1
    54    29    50    1
    55    29    51    1
    56    30    52    1
    57    30    53    1
    58    32    54    1
    59    32    55    1
    60    33    56    1
    61    33    57    1
    62    34    58    1
    63    34    59    1
    64    35    60    1
    65    36    61    1
