
     RDKit          3D

 61 65  0  0  0  0  0  0  0  0999 V2000
   -5.5586    3.0366    1.2398 C   0  0  0  0  0  0  0  0  0  0  0  0
   -6.1100    2.2785    0.0851 C   0  0  0  0  0  0  0  0  0  0  0  0
   -7.1816    2.7754   -0.5753 C   0  0  0  0  0  0  0  0  0  0  0  0
   -7.7301    2.0923   -1.6503 C   0  0  0  0  0  0  0  0  0  0  0  0
   -8.8635    2.6180   -2.4038 C   0  0  0  0  0  0  0  0  0  0  0  0
   -9.7700    3.0364   -2.9838 N   0  0  0  0  0  0  0  0  0  0  0  0
   -7.1445    0.8991   -2.0111 C   0  0  0  0  0  0  0  0  0  0  0  0
   -6.0921    0.4487   -1.3348 N   0  0  0  0  0  0  0  0  0  0  0  0
   -5.5317    1.0861   -0.2882 C   0  0  0  0  0  0  0  0  0  0  0  0
   -4.3428    0.5736    0.3825 C   0  0  0  0  0  0  0  0  0  0  0  0
   -3.7256    1.2430    1.3781 F   0  0  0  0  0  0  0  0  0  0  0  0
   -3.8766   -0.5895   -0.0195 C   0  0  0  0  0  0  0  0  0  0  0  0
   -2.7058   -1.2304    0.5393 C   0  0  0  0  0  0  0  0  0  0  0  0
   -2.7432   -2.5865    0.7739 C   0  0  0  0  0  0  0  0  0  0  0  0
   -1.6097   -3.2431    1.2717 C   0  0  0  0  0  0  0  0  0  0  0  0
   -0.4591   -2.5221    1.5214 C   0  0  0  0  0  0  0  0  0  0  0  0
    0.6144   -3.1977    2.0009 F   0  0  0  0  0  0  0  0  0  0  0  0
   -0.4053   -1.1536    1.2877 C   0  0  0  0  0  0  0  0  0  0  0  0
    0.9072   -0.4273    1.5268 C   0  0  1  0  0  0  0  0  0  0  0  0
    0.6136    1.0501    1.2315 C   0  0  0  0  0  0  0  0  0  0  0  0
    1.2957   -0.5740    2.8864 N   0  0  0  0  0  0  0  0  0  0  0  0
    2.4543   -0.2275    3.2944 C   0  0  0  0  0  0  0  0  0  0  0  0
    2.8706   -0.3584    4.6313 N   0  0  0  0  0  0  0  0  0  0  0  0
    3.5819    0.4543    2.0965 S   0  0  0  0  0  0  0  0  0  0  0  0
    3.1866   -0.4040    0.5221 C   0  0  1  0  0  0  0  0  0  0  0  0
    3.6815    0.1798   -0.7170 C   0  0  0  0  0  0  0  0  0  0  0  0
    2.8929    0.9730   -1.3310 O   0  0  0  0  0  0  0  0  0  0  0  0
    4.9497   -0.0937   -1.2401 N   0  0  0  0  0  0  0  0  0  0  0  0
    5.8931   -0.9469   -0.5702 C   0  0  0  0  0  0  0  0  0  0  0  0
    6.6267   -1.6807   -1.7098 C   0  0  0  0  0  0  0  0  0  0  0  0
    7.4235   -0.7490   -2.3342 O   0  0  0  0  0  0  0  0  0  0  0  0
    6.7553    0.3423   -2.8067 C   0  0  0  0  0  0  0  0  0  0  0  0
    5.3032    0.4862   -2.5066 C   0  0  0  0  0  0  0  0  0  0  0  0
    2.9596   -1.8683    0.7131 C   0  0  0  0  0  0  0  0  0  0  0  0
    1.8294   -0.9771    0.4939 C   0  0  1  0  0  0  0  0  0  0  0  0
   -1.5230   -0.5526    0.8080 C   0  0  0  0  0  0  0  0  0  0  0  0
   -4.5185    3.3373    1.1467 H   0  0  0  0  0  0  0  0  0  0  0  0
   -6.2063    3.9387    1.4415 H   0  0  0  0  0  0  0  0  0  0  0  0
   -5.7402    2.3921    2.1513 H   0  0  0  0  0  0  0  0  0  0  0  0
   -7.6698    3.7143   -0.3158 H   0  0  0  0  0  0  0  0  0  0  0  0
   -7.5212    0.3076   -2.8519 H   0  0  0  0  0  0  0  0  0  0  0  0
   -4.4110   -1.0974   -0.8257 H   0  0  0  0  0  0  0  0  0  0  0  0
   -3.6642   -3.1307    0.5660 H   0  0  0  0  0  0  0  0  0  0  0  0
   -1.6861   -4.3228    1.4409 H   0  0  0  0  0  0  0  0  0  0  0  0
   -0.2228    1.4507    1.8286 H   0  0  0  0  0  0  0  0  0  0  0  0
    0.3149    1.1426    0.1540 H   0  0  0  0  0  0  0  0  0  0  0  0
    1.4817    1.6998    1.4605 H   0  0  0  0  0  0  0  0  0  0  0  0
    2.6325    0.3552    5.3866 H   0  0  0  0  0  0  0  0  0  0  0  0
    3.4463   -1.1706    4.9707 H   0  0  0  0  0  0  0  0  0  0  0  0
    6.6323   -0.3561    0.0302 H   0  0  0  0  0  0  0  0  0  0  0  0
    5.4060   -1.6565    0.0988 H   0  0  0  0  0  0  0  0  0  0  0  0
    5.8684   -2.1175   -2.3910 H   0  0  0  0  0  0  0  0  0  0  0  0
    7.1979   -2.4974   -1.2432 H   0  0  0  0  0  0  0  0  0  0  0  0
    6.9424    0.4722   -3.9312 H   0  0  0  0  0  0  0  0  0  0  0  0
    7.2669    1.2828   -2.4016 H   0  0  0  0  0  0  0  0  0  0  0  0
    4.7199   -0.0548   -3.3078 H   0  0  0  0  0  0  0  0  0  0  0  0
    5.0185    1.5792   -2.5269 H   0  0  0  0  0  0  0  0  0  0  0  0
    3.2578   -2.5216   -0.1398 H   0  0  0  0  0  0  0  0  0  0  0  0
    3.1811   -2.3622    1.6942 H   0  0  0  0  0  0  0  0  0  0  0  0
    1.3327   -1.0688   -0.5277 H   0  0  0  0  0  0  0  0  0  0  0  0
   -1.5250    0.4927    0.6163 H   0  0  0  0  0  0  0  0  0  0  0  0
  1  2  1  0
  2  3  2  0
  3  4  1  0
  4  5  1  0
  5  6  3  0
  4  7  2  0
  7  8  1  0
  8  9  2  0
  9 10  1  0
 10 11  1  0
 10 12  2  0
 12 13  1  0
 13 14  2  0
 14 15  1  0
 15 16  2  0
 16 17  1  0
 16 18  1  0
 18 19  1  0
 19 20  1  6
 19 21  1  0
 21 22  2  0
 22 23  1  0
 22 24  1  0
 24 25  1  0
 25 26  1  6
 26 27  2  0
 26 28  1  0
 28 29  1  0
 29 30  1  0
 30 31  1  0
 31 32  1  0
 32 33  1  0
 25 34  1  0
 34 35  1  0
 18 36  2  0
  9  2  1  0
 36 13  1  0
 35 19  1  0
 35 25  1  0
 33 28  1  0
  1 37  1  0
  1 38  1  0
  1 39  1  0
  3 40  1  0
  7 41  1  0
 12 42  1  0
 14 43  1  0
 15 44  1  0
 20 45  1  0
 20 46  1  0
 20 47  1  0
 23 48  1  0
 23 49  1  0
 29 50  1  0
 29 51  1  0
 30 52  1  0
 30 53  1  0
 32 54  1  0
 32 55  1  0
 33 56  1  0
 33 57  1  0
 34 58  1  0
 34 59  1  0
 35 60  1  6
 36 61  1  0
M  END
$$$$
