
     RDKit          3D

 51 54  0  0  0  0  0  0  0  0999 V2000
   -6.0722   -0.2881    2.3079 O   0  0  0  0  0  0  0  0  0  0  0  0
   -5.2438    0.0172    1.4111 C   0  0  0  0  0  0  0  0  0  0  0  0
   -3.8793   -0.0167    1.6976 O   0  0  0  0  0  0  0  0  0  0  0  0
   -5.7390    0.3965    0.1015 C   0  0  0  0  0  0  0  0  0  0  0  0
   -7.0928    0.4107   -0.1191 C   0  0  0  0  0  0  0  0  0  0  0  0
   -7.5647    0.7670   -1.3501 C   0  0  0  0  0  0  0  0  0  0  0  0
   -8.8909    0.7827   -1.5720 F   0  0  0  0  0  0  0  0  0  0  0  0
   -6.6679    1.1079   -2.3548 C   0  0  0  0  0  0  0  0  0  0  0  0
   -5.2860    1.0873   -2.1097 C   0  0  0  0  0  0  0  0  0  0  0  0
   -4.8232    0.7278   -0.8694 C   0  0  0  0  0  0  0  0  0  0  0  0
   -3.4497    0.6921   -0.5757 N   0  0  0  0  0  0  0  0  0  0  0  0
   -2.6111   -0.4195   -0.7378 C   0  0  0  0  0  0  0  0  0  0  0  0
   -3.1209   -1.4831   -1.1842 O   0  0  0  0  0  0  0  0  0  0  0  0
   -1.2268   -0.3641   -0.4130 N   0  0  0  0  0  0  0  0  0  0  0  0
   -0.2392   -1.4368   -0.5307 C   0  0  0  0  0  0  0  0  0  0  0  0
    0.7238   -1.1920    0.5825 C   0  0  1  0  0  0  0  0  0  0  0  0
    2.1780   -1.4463    0.1585 C   0  0  0  0  0  0  0  0  0  0  0  0
    2.9311   -0.2936    0.7282 C   0  0  1  0  0  0  0  0  0  0  0  0
    4.2420   -0.0120    0.1570 C   0  0  0  0  0  0  0  0  0  0  0  0
    4.3868    0.6798   -1.0297 C   0  0  0  0  0  0  0  0  0  0  0  0
    5.6292    0.9559   -1.6014 C   0  0  0  0  0  0  0  0  0  0  0  0
    6.7745    0.5429   -0.9952 C   0  0  0  0  0  0  0  0  0  0  0  0
    6.6625   -0.1482    0.1876 C   0  0  0  0  0  0  0  0  0  0  0  0
    5.4274   -0.4251    0.7603 C   0  0  0  0  0  0  0  0  0  0  0  0
    5.4055   -1.1597    2.0223 C   0  0  0  0  0  0  0  0  0  0  0  0
    4.7168   -2.3312    1.8662 F   0  0  0  0  0  0  0  0  0  0  0  0
    6.7025   -1.5422    2.3911 F   0  0  0  0  0  0  0  0  0  0  0  0
    4.9454   -0.4100    3.0861 F   0  0  0  0  0  0  0  0  0  0  0  0
    1.9358    0.8314    0.4407 C   0  0  0  0  0  0  0  0  0  0  0  0
    0.6217    0.2602    0.9569 C   0  0  1  0  0  0  0  0  0  0  0  0
   -0.5178    0.7744    0.1020 C   0  0  0  0  0  0  0  0  0  0  0  0
   -3.6171   -0.4397    2.5811 H   0  0  0  0  0  0  0  0  0  0  0  0
   -7.7805    0.1467    0.6601 H   0  0  0  0  0  0  0  0  0  0  0  0
   -7.0008    1.3957   -3.3432 H   0  0  0  0  0  0  0  0  0  0  0  0
   -4.6167    1.3616   -2.9251 H   0  0  0  0  0  0  0  0  0  0  0  0
   -2.9984    1.5782   -0.1982 H   0  0  0  0  0  0  0  0  0  0  0  0
    0.2225   -1.4552   -1.5288 H   0  0  0  0  0  0  0  0  0  0  0  0
   -0.7817   -2.4066   -0.4076 H   0  0  0  0  0  0  0  0  0  0  0  0
    0.4381   -1.8144    1.4458 H   0  0  0  0  0  0  0  0  0  0  0  0
    2.4140   -2.4350    0.5345 H   0  0  0  0  0  0  0  0  0  0  0  0
    2.2043   -1.4090   -0.9492 H   0  0  0  0  0  0  0  0  0  0  0  0
    2.9424   -0.3498    1.8449 H   0  0  0  0  0  0  0  0  0  0  0  0
    3.5481    1.0556   -1.6007 H   0  0  0  0  0  0  0  0  0  0  0  0
    5.6827    1.5067   -2.5408 H   0  0  0  0  0  0  0  0  0  0  0  0
    7.7169    0.7711   -1.4608 H   0  0  0  0  0  0  0  0  0  0  0  0
    7.5764   -0.4900    0.6921 H   0  0  0  0  0  0  0  0  0  0  0  0
    2.2121    1.7769    0.9006 H   0  0  0  0  0  0  0  0  0  0  0  0
    1.8085    0.8597   -0.6620 H   0  0  0  0  0  0  0  0  0  0  0  0
    0.4769    0.4399    2.0254 H   0  0  0  0  0  0  0  0  0  0  0  0
   -0.1400    1.3705   -0.7613 H   0  0  0  0  0  0  0  0  0  0  0  0
   -1.1654    1.4722    0.6809 H   0  0  0  0  0  0  0  0  0  0  0  0
  1  2  2  0
  2  3  1  0
  2  4  1  0
  4  5  2  0
  5  6  1  0
  6  7  1  0
  6  8  2  0
  8  9  1  0
  9 10  2  0
 10 11  1  0
 11 12  1  0
 12 13  2  0
 12 14  1  0
 14 15  1  0
 15 16  1  0
 16 17  1  0
 17 18  1  0
 18 19  1  0
 19 20  2  0
 20 21  1  0
 21 22  2  0
 22 23  1  0
 23 24  2  0
 24 25  1  0
 25 26  1  0
 25 27  1  0
 25 28  1  0
 18 29  1  0
 29 30  1  0
 30 31  1  0
 10  4  1  0
 31 14  1  0
 30 16  1  0
 24 19  1  0
  3 32  1  0
  5 33  1  0
  8 34  1  0
  9 35  1  0
 11 36  1  0
 15 37  1  0
 15 38  1  0
 16 39  1  1
 17 40  1  0
 17 41  1  0
 18 42  1  1
 20 43  1  0
 21 44  1  0
 22 45  1  0
 23 46  1  0
 29 47  1  0
 29 48  1  0
 30 49  1  1
 31 50  1  0
 31 51  1  0
M  END
$$$$
