@<TRIPOS>MOLECULE
*****
 51 54 0 0 0
SMALL
GASTEIGER

@<TRIPOS>ATOM
      1 O          -6.0722   -0.2881    2.3079 O.2     1  UNL1       -0.2451
      2 C          -5.2438    0.0172    1.4111 C.2     1  UNL1        0.3387
      3 O          -3.8793   -0.0167    1.6976 O.3     1  UNL1       -0.4771
      4 C          -5.7390    0.3965    0.1015 C.ar    1  UNL1        0.0827
      5 C          -7.0928    0.4107   -0.1191 C.ar    1  UNL1       -0.0107
      6 C          -7.5647    0.7670   -1.3501 C.ar    1  UNL1        0.1243
      7 F          -8.8909    0.7827   -1.5720 F       1  UNL1       -0.2055
      8 C          -6.6679    1.1079   -2.3548 C.ar    1  UNL1       -0.0247
      9 C          -5.2860    1.0873   -2.1097 C.ar    1  UNL1       -0.0369
     10 C          -4.8232    0.7278   -0.8694 C.ar    1  UNL1        0.0489
     11 N          -3.4497    0.6921   -0.5757 N.am    1  UNL1       -0.2685
     12 C          -2.6111   -0.4195   -0.7378 C.2     1  UNL1        0.3065
     13 O          -3.1209   -1.4831   -1.1842 O.2     1  UNL1       -0.2523
     14 N          -1.2268   -0.3641   -0.4130 N.am    1  UNL1       -0.2848
     15 C          -0.2392   -1.4368   -0.5307 C.3     1  UNL1        0.0193
     16 C           0.7238   -1.1920    0.5825 C.3     1  UNL1       -0.0203
     17 C           2.1780   -1.4463    0.1585 C.3     1  UNL1       -0.0416
     18 C           2.9311   -0.2936    0.7282 C.3     1  UNL1       -0.0147
     19 C           4.2420   -0.0120    0.1570 C.ar    1  UNL1       -0.0326
     20 C           4.3868    0.6798   -1.0297 C.ar    1  UNL1       -0.0578
     21 C           5.6292    0.9559   -1.6014 C.ar    1  UNL1       -0.0615
     22 C           6.7745    0.5429   -0.9952 C.ar    1  UNL1       -0.0612
     23 C           6.6625   -0.1482    0.1876 C.ar    1  UNL1       -0.0498
     24 C           5.4274   -0.4251    0.7603 C.ar    1  UNL1        0.0582
     25 C           5.4055   -1.1597    2.0223 C.3     1  UNL1        0.4177
     26 F           4.7168   -2.3312    1.8662 F       1  UNL1       -0.1659
     27 F           6.7025   -1.5422    2.3911 F       1  UNL1       -0.1659
     28 F           4.9454   -0.4100    3.0861 F       1  UNL1       -0.1659
     29 C           1.9358    0.8314    0.4407 C.3     1  UNL1       -0.0416
     30 C           0.6217    0.2602    0.9569 C.3     1  UNL1       -0.0203
     31 C          -0.5178    0.7744    0.1020 C.3     1  UNL1        0.0193
     32 H          -3.6171   -0.4397    2.5811 H       1  UNL1        0.2954
     33 H          -7.7805    0.1467    0.6601 H       1  UNL1        0.0655
     34 H          -7.0008    1.3957   -3.3432 H       1  UNL1        0.0647
     35 H          -4.6167    1.3616   -2.9251 H       1  UNL1        0.0637
     36 H          -2.9984    1.5782   -0.1982 H       1  UNL1        0.1564
     37 H           0.2225   -1.4552   -1.5288 H       1  UNL1        0.0468
     38 H          -0.7817   -2.4066   -0.4076 H       1  UNL1        0.0468
     39 H           0.4381   -1.8144    1.4458 H       1  UNL1        0.0319
     40 H           2.4140   -2.4350    0.5345 H       1  UNL1        0.0274
     41 H           2.2043   -1.4090   -0.9492 H       1  UNL1        0.0274
     42 H           2.9424   -0.3498    1.8449 H       1  UNL1        0.0349
     43 H           3.5481    1.0556   -1.6007 H       1  UNL1        0.0620
     44 H           5.6827    1.5067   -2.5408 H       1  UNL1        0.0618
     45 H           7.7169    0.7711   -1.4608 H       1  UNL1        0.0618
     46 H           7.5764   -0.4900    0.6921 H       1  UNL1        0.0623
     47 H           2.2121    1.7769    0.9006 H       1  UNL1        0.0274
     48 H           1.8085    0.8597   -0.6620 H       1  UNL1        0.0274
     49 H           0.4769    0.4399    2.0254 H       1  UNL1        0.0319
     50 H          -0.1400    1.3705   -0.7613 H       1  UNL1        0.0468
     51 H          -1.1654    1.4722    0.6809 H       1  UNL1        0.0468
@<TRIPOS>BOND
     1     1     2    2
     2     2     3    1
     3     2     4    1
     4     4     5   ar
     5     5     6   ar
     6     6     7    1
     7     6     8   ar
     8     8     9   ar
     9     9    10   ar
    10    10    11    1
    11    11    12   am
    12    12    13    2
    13    12    14   am
    14    14    15    1
    15    15    16    1
    16    16    17    1
    17    17    18    1
    18    18    19    1
    19    19    20   ar
    20    20    21   ar
    21    21    22   ar
    22    22    23   ar
    23    23    24   ar
    24    24    25    1
    25    25    26    1
    26    25    27    1
    27    25    28    1
    28    18    29    1
    29    29    30    1
    30    30    31    1
    31    10     4   ar
    32    31    14    1
    33    30    16    1
    34    24    19   ar
    35     3    32    1
    36     5    33    1
    37     8    34    1
    38     9    35    1
    39    11    36    1
    40    15    37    1
    41    15    38    1
    42    16    39    1
    43    17    40    1
    44    17    41    1
    45    18    42    1
    46    20    43    1
    47    21    44    1
    48    22    45    1
    49    23    46    1
    50    29    47    1
    51    29    48    1
    52    30    49    1
    53    31    50    1
    54    31    51    1
