@<TRIPOS>MOLECULE
*****
 42 45 0 0 0
SMALL
GASTEIGER

@<TRIPOS>ATOM
      1 C          -0.9274    1.3925    1.5172 C.3     1  UNL1       -0.0216
      2 C          -0.0898    0.6577    0.5444 C.ar    1  UNL1        0.0510
      3 N           1.2504    0.7096    0.6477 N.ar    1  UNL1       -0.2190
      4 C           2.0530    0.0587   -0.2125 C.ar    1  UNL1        0.2181
      5 N           3.4793    0.1143   -0.1022 N.pl3   1  UNL1       -0.2971
      6 C           4.4390   -0.5268   -0.9450 C.3     1  UNL1        0.0174
      7 C           5.7010   -0.6169   -0.1513 C.3     1  UNL1       -0.0095
      8 C           5.4359    0.0496    1.1762 C.3     1  UNL1        0.0723
      9 O           5.2179   -0.9099    2.1762 O.3     1  UNL1       -0.3902
     10 C           4.2034    0.8517    0.9123 C.3     1  UNL1        0.0409
     11 N           1.4562   -0.6491   -1.1841 N.ar    1  UNL1       -0.2221
     12 C           0.1232   -0.7379   -1.3371 C.ar    1  UNL1        0.0406
     13 C          -0.6887   -0.0742   -0.4598 C.ar    1  UNL1        0.0221
     14 C          -2.1454   -0.0931   -0.5215 C.ar    1  UNL1       -0.0035
     15 C          -2.8989    0.8067   -1.2274 C.ar    1  UNL1       -0.0415
     16 C          -4.2678    0.7867   -1.2838 C.ar    1  UNL1        0.0574
     17 C          -5.0860    1.7625   -2.0493 C.3     1  UNL1        0.4175
     18 F          -6.3117    1.2696   -2.3799 F       1  UNL1       -0.1659
     19 F          -4.3512    2.1234   -3.1667 F       1  UNL1       -0.1659
     20 F          -5.1687    2.9124   -1.2586 F       1  UNL1       -0.1659
     21 C          -4.9298   -0.1999   -0.5871 C.ar    1  UNL1       -0.0246
     22 C          -4.2081   -1.1447    0.1504 C.ar    1  UNL1        0.0668
     23 N          -4.6166   -2.1831    0.8986 N.ar    1  UNL1       -0.2769
     24 N          -3.5256   -2.7699    1.3901 N.ar    1  UNL1       -0.1812
     25 C          -2.4211   -2.1303    0.9736 C.ar    1  UNL1        0.0575
     26 C          -2.8159   -1.0773    0.1729 C.ar    1  UNL1        0.0273
     27 H          -0.3329    1.5816    2.4298 H       1  UNL1        0.0293
     28 H          -1.8040    0.7453    1.8068 H       1  UNL1        0.0293
     29 H          -1.3573    2.3197    1.1182 H       1  UNL1        0.0293
     30 H           4.6541    0.0659   -1.8706 H       1  UNL1        0.0465
     31 H           4.1107   -1.5711   -1.2157 H       1  UNL1        0.0465
     32 H           6.5393   -0.0842   -0.6423 H       1  UNL1        0.0306
     33 H           5.9820   -1.6698    0.0596 H       1  UNL1        0.0306
     34 H           6.2431    0.7536    1.4670 H       1  UNL1        0.0609
     35 H           4.8253   -0.4140    2.9436 H       1  UNL1        0.2098
     36 H           3.6087    0.8733    1.8557 H       1  UNL1        0.0490
     37 H           4.4046    1.8877    0.5788 H       1  UNL1        0.0490
     38 H          -0.3421   -1.3205   -2.1361 H       1  UNL1        0.0837
     39 H          -2.3882    1.5805   -1.7742 H       1  UNL1        0.0629
     40 H          -6.0062   -0.2629   -0.5964 H       1  UNL1        0.0644
     41 H          -5.6250   -2.4521    1.0455 H       1  UNL1        0.1889
     42 H          -1.4184   -2.4152    1.2367 H       1  UNL1        0.0854
@<TRIPOS>BOND
     1     1     2    1
     2     2     3   ar
     3     3     4   ar
     4     4     5    1
     5     5     6    1
     6     6     7    1
     7     7     8    1
     8     8     9    1
     9     8    10    1
    10     4    11   ar
    11    11    12   ar
    12    12    13   ar
    13    13    14    1
    14    14    15   ar
    15    15    16   ar
    16    16    17    1
    17    17    18    1
    18    17    19    1
    19    17    20    1
    20    16    21   ar
    21    21    22   ar
    22    22    23   ar
    23    23    24   ar
    24    24    25   ar
    25    25    26   ar
    26    13     2   ar
    27    26    14   ar
    28    10     5    1
    29    26    22   ar
    30     1    27    1
    31     1    28    1
    32     1    29    1
    33     6    30    1
    34     6    31    1
    35     7    32    1
    36     7    33    1
    37     8    34    1
    38     9    35    1
    39    10    36    1
    40    10    37    1
    41    12    38    1
    42    15    39    1
    43    21    40    1
    44    23    41    1
    45    25    42    1
