
     RDKit          3D

108112  0  0  0  0  0  0  0  0999 V2000
   14.7077    1.2022    2.2244 C   0  0  0  0  0  0  0  0  0  0  0  0
   15.1732    0.0035    2.6522 O   0  0  0  0  0  0  0  0  0  0  0  0
   14.4128   -1.0987    2.4667 C   0  0  0  0  0  0  0  0  0  0  0  0
   13.0567   -1.1348    3.0746 C   0  0  0  0  0  0  0  0  0  0  0  0
   12.1836   -0.1655    2.6375 O   0  0  0  0  0  0  0  0  0  0  0  0
   11.9657   -0.2646    1.2899 C   0  0  0  0  0  0  0  0  0  0  0  0
   10.9183    0.7776    0.8682 C   0  0  0  0  0  0  0  0  0  0  0  0
   11.2670    2.0553    1.1622 O   0  0  0  0  0  0  0  0  0  0  0  0
   10.3749    3.0156    0.8015 C   0  0  0  0  0  0  0  0  0  0  0  0
   10.2231    3.2097   -0.6711 C   0  0  0  0  0  0  0  0  0  0  0  0
    9.7917    2.1978   -1.4591 O   0  0  0  0  0  0  0  0  0  0  0  0
    8.6200    1.4957   -1.5674 C   0  0  0  0  0  0  0  0  0  0  0  0
    7.4840    1.7060   -0.8251 C   0  0  0  0  0  0  0  0  0  0  0  0
    6.3065    0.9474   -0.9815 C   0  0  0  0  0  0  0  0  0  0  0  0
    5.1833    1.2230   -0.1660 N   0  0  0  0  0  0  0  0  0  0  0  0
    3.8820    0.8533   -0.5436 C   0  0  0  0  0  0  0  0  0  0  0  0
    3.6033    0.3850   -1.7597 N   0  0  0  0  0  0  0  0  0  0  0  0
    2.4081   -0.0164   -2.1919 C   0  0  0  0  0  0  0  0  0  0  0  0
    1.3744    0.0670   -1.2816 C   0  0  0  0  0  0  0  0  0  0  0  0
    1.5873    0.5403   -0.0121 C   0  0  0  0  0  0  0  0  0  0  0  0
    0.5081    0.6124    0.9125 O   0  0  0  0  0  0  0  0  0  0  0  0
   -0.7719    0.2363    0.4661 C   0  0  0  0  0  0  0  0  0  0  0  0
   -1.3713   -0.9002    0.9712 C   0  0  0  0  0  0  0  0  0  0  0  0
   -2.6053   -1.3386    0.5864 C   0  0  0  0  0  0  0  0  0  0  0  0
   -3.3157   -0.6221   -0.3608 C   0  0  0  0  0  0  0  0  0  0  0  0
   -4.5713   -1.0514   -0.8491 N   0  0  0  0  0  0  0  0  0  0  0  0
   -5.8348   -0.7999   -0.2949 C   0  0  0  0  0  0  0  0  0  0  0  0
   -5.9203   -0.1353    0.7448 O   0  0  0  0  0  0  0  0  0  0  0  0
   -7.0406   -1.2870   -0.8903 N   0  0  0  0  0  0  0  0  0  0  0  0
   -8.3421   -1.0970   -0.4060 C   0  0  0  0  0  0  0  0  0  0  0  0
   -8.9425   -2.0231    0.4348 C   0  0  0  0  0  0  0  0  0  0  0  0
  -10.2166   -1.8695    0.9006 C   0  0  0  0  0  0  0  0  0  0  0  0
  -10.8236   -2.8750    1.7901 C   0  0  0  0  0  0  0  0  0  0  0  0
  -12.2167   -2.5124    2.2326 C   0  0  0  0  0  0  0  0  0  0  0  0
   -9.9675   -3.0350    3.0356 C   0  0  0  0  0  0  0  0  0  0  0  0
  -10.9308   -4.1779    1.0251 C   0  0  0  0  0  0  0  0  0  0  0  0
  -10.9373   -0.7402    0.5156 C   0  0  0  0  0  0  0  0  0  0  0  0
  -10.3858    0.1892   -0.3060 C   0  0  0  0  0  0  0  0  0  0  0  0
  -11.0630    1.3390   -0.7216 N   0  0  0  0  0  0  0  0  0  0  0  0
  -12.6612    1.2731   -1.3296 S   0  0  0  0  0  6  0  0  0  0  0  0
  -13.8622    0.6739   -0.1798 C   0  0  0  0  0  0  0  0  0  0  0  0
  -13.0943    2.6016   -1.8991 O   0  0  0  0  0  0  0  0  0  0  0  0
  -12.6395    0.3058   -2.4954 O   0  0  0  0  0  0  0  0  0  0  0  0
   -9.0744   -0.0000   -0.7655 C   0  0  0  0  0  0  0  0  0  0  0  0
   -8.5636    0.9870   -1.6023 O   0  0  0  0  0  0  0  0  0  0  0  0
   -7.8875    2.1017   -1.0368 C   0  0  0  0  0  0  0  0  0  0  0  0
   -2.7321    0.5168   -0.8708 C   0  0  0  0  0  0  0  0  0  0  0  0
   -3.4355    1.2741   -1.8077 C   0  0  0  0  0  0  0  0  0  0  0  0
   -2.8640    2.4290   -2.3049 C   0  0  0  0  0  0  0  0  0  0  0  0
   -1.6242    2.8689   -1.9148 C   0  0  0  0  0  0  0  0  0  0  0  0
   -0.9311    2.1178   -0.9889 C   0  0  0  0  0  0  0  0  0  0  0  0
   -1.4620    0.9662   -0.4724 C   0  0  0  0  0  0  0  0  0  0  0  0
    2.8293    0.9213    0.3259 N   0  0  0  0  0  0  0  0  0  0  0  0
    6.3137   -0.0441   -1.9225 C   0  0  0  0  0  0  0  0  0  0  0  0
    7.4485   -0.2896   -2.6986 C   0  0  0  0  0  0  0  0  0  0  0  0
    7.4265   -1.2937   -3.6392 O   0  0  0  0  0  0  0  0  0  0  0  0
    6.2592   -2.0627   -3.8067 C   0  0  0  0  0  0  0  0  0  0  0  0
    8.5779    0.4576   -2.5310 C   0  0  0  0  0  0  0  0  0  0  0  0
   13.7516    1.5258    2.7016 H   0  0  0  0  0  0  0  0  0  0  0  0
   15.4752    1.9975    2.4932 H   0  0  0  0  0  0  0  0  0  0  0  0
   14.5897    1.2644    1.1021 H   0  0  0  0  0  0  0  0  0  0  0  0
   14.9813   -1.9931    2.8880 H   0  0  0  0  0  0  0  0  0  0  0  0
   14.3557   -1.3285    1.3494 H   0  0  0  0  0  0  0  0  0  0  0  0
   13.1744   -1.0588    4.2038 H   0  0  0  0  0  0  0  0  0  0  0  0
   12.5558   -2.1216    2.8578 H   0  0  0  0  0  0  0  0  0  0  0  0
   12.8358   -0.2303    0.6510 H   0  0  0  0  0  0  0  0  0  0  0  0
   11.5071   -1.2964    1.1221 H   0  0  0  0  0  0  0  0  0  0  0  0
   10.8490    0.5927   -0.2491 H   0  0  0  0  0  0  0  0  0  0  0  0
    9.9217    0.4908    1.2788 H   0  0  0  0  0  0  0  0  0  0  0  0
   10.5644    4.0039    1.3227 H   0  0  0  0  0  0  0  0  0  0  0  0
    9.3617    2.7282    1.2589 H   0  0  0  0  0  0  0  0  0  0  0  0
    9.5137    4.1015   -0.8149 H   0  0  0  0  0  0  0  0  0  0  0  0
   11.2171    3.5664   -1.0806 H   0  0  0  0  0  0  0  0  0  0  0  0
    7.4595    2.4770   -0.0846 H   0  0  0  0  0  0  0  0  0  0  0  0
    5.3322    1.7154    0.7468 H   0  0  0  0  0  0  0  0  0  0  0  0
    2.2797   -0.3880   -3.2173 H   0  0  0  0  0  0  0  0  0  0  0  0
    0.3976   -0.2601   -1.5748 H   0  0  0  0  0  0  0  0  0  0  0  0
   -0.8088   -1.4443    1.7088 H   0  0  0  0  0  0  0  0  0  0  0  0
   -3.0860   -2.2222    0.9718 H   0  0  0  0  0  0  0  0  0  0  0  0
   -4.5517   -1.6349   -1.7461 H   0  0  0  0  0  0  0  0  0  0  0  0
   -6.9147   -1.8467   -1.7928 H   0  0  0  0  0  0  0  0  0  0  0  0
   -8.3325   -2.8774    0.7015 H   0  0  0  0  0  0  0  0  0  0  0  0
  -12.2620   -1.5241    2.6870 H   0  0  0  0  0  0  0  0  0  0  0  0
  -12.9501   -2.5699    1.4002 H   0  0  0  0  0  0  0  0  0  0  0  0
  -12.5044   -3.2928    3.0020 H   0  0  0  0  0  0  0  0  0  0  0  0
   -9.0169   -3.5551    2.7778 H   0  0  0  0  0  0  0  0  0  0  0  0
  -10.5546   -3.6220    3.7462 H   0  0  0  0  0  0  0  0  0  0  0  0
   -9.7627   -2.0259    3.4255 H   0  0  0  0  0  0  0  0  0  0  0  0
  -11.9742   -4.3742    0.6547 H   0  0  0  0  0  0  0  0  0  0  0  0
  -10.2879   -4.1483    0.1279 H   0  0  0  0  0  0  0  0  0  0  0  0
  -10.5818   -5.0091    1.6760 H   0  0  0  0  0  0  0  0  0  0  0  0
  -11.9307   -0.6512    0.9015 H   0  0  0  0  0  0  0  0  0  0  0  0
  -10.5723    2.2646   -0.6546 H   0  0  0  0  0  0  0  0  0  0  0  0
  -13.6566    0.9847    0.8801 H   0  0  0  0  0  0  0  0  0  0  0  0
  -13.9408   -0.4225   -0.2817 H   0  0  0  0  0  0  0  0  0  0  0  0
  -14.8239    1.1728   -0.4660 H   0  0  0  0  0  0  0  0  0  0  0  0
   -8.1766    3.0432   -1.5863 H   0  0  0  0  0  0  0  0  0  0  0  0
   -8.1841    2.2084    0.0457 H   0  0  0  0  0  0  0  0  0  0  0  0
   -6.7890    1.9717   -1.0435 H   0  0  0  0  0  0  0  0  0  0  0  0
   -4.4054    0.9608   -2.1366 H   0  0  0  0  0  0  0  0  0  0  0  0
   -3.4029    3.0270   -3.0343 H   0  0  0  0  0  0  0  0  0  0  0  0
   -1.2004    3.7902   -2.3274 H   0  0  0  0  0  0  0  0  0  0  0  0
    0.0344    2.4757   -0.6805 H   0  0  0  0  0  0  0  0  0  0  0  0
    5.4665   -0.6908   -2.0969 H   0  0  0  0  0  0  0  0  0  0  0  0
    5.3820   -1.4066   -4.0086 H   0  0  0  0  0  0  0  0  0  0  0  0
    6.0767   -2.6123   -2.8632 H   0  0  0  0  0  0  0  0  0  0  0  0
    6.3318   -2.7613   -4.6721 H   0  0  0  0  0  0  0  0  0  0  0  0
    9.4580    0.2892   -3.1115 H   0  0  0  0  0  0  0  0  0  0  0  0
  1  2  1  0
  2  3  1  0
  3  4  1  0
  4  5  1  0
  5  6  1  0
  6  7  1  0
  7  8  1  0
  8  9  1  0
  9 10  1  0
 10 11  1  0
 11 12  1  0
 12 13  2  0
 13 14  1  0
 14 15  1  0
 15 16  1  0
 16 17  2  0
 17 18  1  0
 18 19  2  0
 19 20  1  0
 20 21  1  0
 21 22  1  0
 22 23  2  0
 23 24  1  0
 24 25  2  0
 25 26  1  0
 26 27  1  0
 27 28  2  0
 27 29  1  0
 29 30  1  0
 30 31  2  0
 31 32  1  0
 32 33  1  0
 33 34  1  0
 33 35  1  0
 33 36  1  0
 32 37  2  0
 37 38  1  0
 38 39  1  0
 39 40  1  0
 40 41  1  0
 40 42  2  0
 40 43  2  0
 38 44  2  0
 44 45  1  0
 45 46  1  0
 25 47  1  0
 47 48  2  0
 48 49  1  0
 49 50  2  0
 50 51  1  0
 51 52  2  0
 20 53  2  0
 14 54  2  0
 54 55  1  0
 55 56  1  0
 56 57  1  0
 55 58  2  0
 58 12  1  0
 53 16  1  0
 52 22  1  0
 44 30  1  0
 52 47  1  0
  1 59  1  0
  1 60  1  0
  1 61  1  0
  3 62  1  0
  3 63  1  0
  4 64  1  0
  4 65  1  0
  6 66  1  0
  6 67  1  0
  7 68  1  0
  7 69  1  0
  9 70  1  0
  9 71  1  0
 10 72  1  0
 10 73  1  0
 13 74  1  0
 15 75  1  0
 18 76  1  0
 19 77  1  0
 23 78  1  0
 24 79  1  0
 26 80  1  0
 29 81  1  0
 31 82  1  0
 34 83  1  0
 34 84  1  0
 34 85  1  0
 35 86  1  0
 35 87  1  0
 35 88  1  0
 36 89  1  0
 36 90  1  0
 36 91  1  0
 37 92  1  0
 39 93  1  0
 41 94  1  0
 41 95  1  0
 41 96  1  0
 46 97  1  0
 46 98  1  0
 46 99  1  0
 48100  1  0
 49101  1  0
 50102  1  0
 51103  1  0
 54104  1  0
 57105  1  0
 57106  1  0
 57107  1  0
 58108  1  0
M  END
$$$$
