@<TRIPOS>MOLECULE
*****
 108 112 0 0 0
SMALL
GASTEIGER

@<TRIPOS>ATOM
      1 C          14.7077    1.2022    2.2244 C.3     1  UNL1        0.0365
      2 O          15.1732    0.0035    2.6522 O.3     1  UNL1       -0.3807
      3 C          14.4128   -1.0987    2.4667 C.3     1  UNL1        0.0706
      4 C          13.0567   -1.1348    3.0746 C.3     1  UNL1        0.0711
      5 O          12.1836   -0.1655    2.6375 O.3     1  UNL1       -0.3752
      6 C          11.9657   -0.2646    1.2899 C.3     1  UNL1        0.0711
      7 C          10.9183    0.7776    0.8682 C.3     1  UNL1        0.0711
      8 O          11.2670    2.0553    1.1622 O.3     1  UNL1       -0.3742
      9 C          10.3749    3.0156    0.8015 C.3     1  UNL1        0.0818
     10 C          10.2231    3.2097   -0.6711 C.3     1  UNL1        0.1128
     11 O           9.7917    2.1978   -1.4591 O.3     1  UNL1       -0.4895
     12 C           8.6200    1.4957   -1.5674 C.ar    1  UNL1        0.1258
     13 C           7.4840    1.7060   -0.8251 C.ar    1  UNL1        0.0015
     14 C           6.3065    0.9474   -0.9815 C.ar    1  UNL1        0.0405
     15 N           5.1833    1.2230   -0.1660 N.pl3   1  UNL1       -0.2833
     16 C           3.8820    0.8533   -0.5436 C.ar    1  UNL1        0.2226
     17 N           3.6033    0.3850   -1.7597 N.ar    1  UNL1       -0.2225
     18 C           2.4081   -0.0164   -2.1919 C.ar    1  UNL1        0.0362
     19 C           1.3744    0.0670   -1.2816 C.ar    1  UNL1        0.0186
     20 C           1.5873    0.5403   -0.0121 C.ar    1  UNL1        0.2249
     21 O           0.5081    0.6124    0.9125 O.3     1  UNL1       -0.4373
     22 C          -0.7719    0.2363    0.4661 C.ar    1  UNL1        0.1381
     23 C          -1.3713   -0.9002    0.9712 C.ar    1  UNL1       -0.0169
     24 C          -2.6053   -1.3386    0.5864 C.ar    1  UNL1       -0.0363
     25 C          -3.3157   -0.6221   -0.3608 C.ar    1  UNL1        0.0427
     26 N          -4.5713   -1.0514   -0.8491 N.am    1  UNL1       -0.2686
     27 C          -5.8348   -0.7999   -0.2949 C.2     1  UNL1        0.3082
     28 O          -5.9203   -0.1353    0.7448 O.2     1  UNL1       -0.2521
     29 N          -7.0406   -1.2870   -0.8903 N.am    1  UNL1       -0.2660
     30 C          -8.3421   -1.0970   -0.4060 C.ar    1  UNL1        0.0789
     31 C          -8.9425   -2.0231    0.4348 C.ar    1  UNL1       -0.0330
     32 C         -10.2166   -1.8695    0.9006 C.ar    1  UNL1       -0.0382
     33 C         -10.8236   -2.8750    1.7901 C.3     1  UNL1       -0.0126
     34 C         -12.2167   -2.5124    2.2326 C.3     1  UNL1       -0.0560
     35 C          -9.9675   -3.0350    3.0356 C.3     1  UNL1       -0.0560
     36 C         -10.9308   -4.1779    1.0251 C.3     1  UNL1       -0.0560
     37 C         -10.9373   -0.7402    0.5156 C.ar    1  UNL1       -0.0320
     38 C         -10.3858    0.1892   -0.3060 C.ar    1  UNL1        0.0913
     39 N         -11.0630    1.3390   -0.7216 N.pl3   1  UNL1       -0.2173
     40 S         -12.6612    1.2731   -1.3296 S.O2    1  UNL1        0.0404
     41 C         -13.8622    0.6739   -0.1798 C.3     1  UNL1        0.0736
     42 O         -13.0943    2.6016   -1.8991 O.2     1  UNL1       -0.1555
     43 O         -12.6395    0.3058   -2.4954 O.2     1  UNL1       -0.1555
     44 C          -9.0744   -0.0000   -0.7655 C.ar    1  UNL1        0.1634
     45 O          -8.5636    0.9870   -1.6023 O.3     1  UNL1       -0.4914
     46 C          -7.8875    2.1017   -1.0368 C.3     1  UNL1        0.0790
     47 C          -2.7321    0.5168   -0.8708 C.ar    1  UNL1        0.0069
     48 C          -3.4355    1.2741   -1.8077 C.ar    1  UNL1       -0.0521
     49 C          -2.8640    2.4290   -2.3049 C.ar    1  UNL1       -0.0611
     50 C          -1.6242    2.8689   -1.9148 C.ar    1  UNL1       -0.0611
     51 C          -0.9311    2.1178   -0.9889 C.ar    1  UNL1       -0.0505
     52 C          -1.4620    0.9662   -0.4724 C.ar    1  UNL1        0.0262
     53 N           2.8293    0.9213    0.3259 N.ar    1  UNL1       -0.1789
     54 C           6.3137   -0.0441   -1.9225 C.ar    1  UNL1        0.0015
     55 C           7.4485   -0.2896   -2.6986 C.ar    1  UNL1        0.1253
     56 O           7.4265   -1.2937   -3.6392 O.3     1  UNL1       -0.4949
     57 C           6.2592   -2.0627   -3.8067 C.3     1  UNL1        0.0788
     58 C           8.5779    0.4576   -2.5310 C.ar    1  UNL1        0.0219
     59 H          13.7516    1.5258    2.7016 H       1  UNL1        0.0524
     60 H          15.4752    1.9975    2.4932 H       1  UNL1        0.0524
     61 H          14.5897    1.2644    1.1021 H       1  UNL1        0.0524
     62 H          14.9813   -1.9931    2.8880 H       1  UNL1        0.0582
     63 H          14.3557   -1.3285    1.3494 H       1  UNL1        0.0582
     64 H          13.1744   -1.0588    4.2038 H       1  UNL1        0.0583
     65 H          12.5558   -2.1216    2.8578 H       1  UNL1        0.0583
     66 H          12.8358   -0.2303    0.6510 H       1  UNL1        0.0583
     67 H          11.5071   -1.2964    1.1221 H       1  UNL1        0.0583
     68 H          10.8490    0.5927   -0.2491 H       1  UNL1        0.0583
     69 H           9.9217    0.4908    1.2788 H       1  UNL1        0.0583
     70 H          10.5644    4.0039    1.3227 H       1  UNL1        0.0594
     71 H           9.3617    2.7282    1.2589 H       1  UNL1        0.0594
     72 H           9.5137    4.1015   -0.8149 H       1  UNL1        0.0720
     73 H          11.2171    3.5664   -1.0806 H       1  UNL1        0.0720
     74 H           7.4595    2.4770   -0.0846 H       1  UNL1        0.0673
     75 H           5.3322    1.7154    0.7468 H       1  UNL1        0.1550
     76 H           2.2797   -0.3880   -3.2173 H       1  UNL1        0.0832
     77 H           0.3976   -0.2601   -1.5748 H       1  UNL1        0.0686
     78 H          -0.8088   -1.4443    1.7088 H       1  UNL1        0.0655
     79 H          -3.0860   -2.2222    0.9718 H       1  UNL1        0.0637
     80 H          -4.5517   -1.6349   -1.7461 H       1  UNL1        0.1564
     81 H          -6.9147   -1.8467   -1.7928 H       1  UNL1        0.1565
     82 H          -8.3325   -2.8774    0.7015 H       1  UNL1        0.0640
     83 H         -12.2620   -1.5241    2.6870 H       1  UNL1        0.0238
     84 H         -12.9501   -2.5699    1.4002 H       1  UNL1        0.0238
     85 H         -12.5044   -3.2928    3.0020 H       1  UNL1        0.0238
     86 H          -9.0169   -3.5551    2.7778 H       1  UNL1        0.0238
     87 H         -10.5546   -3.6220    3.7462 H       1  UNL1        0.0238
     88 H          -9.7627   -2.0259    3.4255 H       1  UNL1        0.0238
     89 H         -11.9742   -4.3742    0.6547 H       1  UNL1        0.0238
     90 H         -10.2879   -4.1483    0.1279 H       1  UNL1        0.0238
     91 H         -10.5818   -5.0091    1.6760 H       1  UNL1        0.0238
     92 H         -11.9307   -0.6512    0.9015 H       1  UNL1        0.0641
     93 H         -10.5723    2.2646   -0.6546 H       1  UNL1        0.1734
     94 H         -13.6566    0.9847    0.8801 H       1  UNL1        0.0482
     95 H         -13.9408   -0.4225   -0.2817 H       1  UNL1        0.0482
     96 H         -14.8239    1.1728   -0.4660 H       1  UNL1        0.0482
     97 H          -8.1766    3.0432   -1.5863 H       1  UNL1        0.0660
     98 H          -8.1841    2.2084    0.0457 H       1  UNL1        0.0660
     99 H          -6.7890    1.9717   -1.0435 H       1  UNL1        0.0660
    100 H          -4.4054    0.9608   -2.1366 H       1  UNL1        0.0624
    101 H          -3.4029    3.0270   -3.0343 H       1  UNL1        0.0618
    102 H          -1.2004    3.7902   -2.3274 H       1  UNL1        0.0618
    103 H           0.0344    2.4757   -0.6805 H       1  UNL1        0.0625
    104 H           5.4665   -0.6908   -2.0969 H       1  UNL1        0.0673
    105 H           5.3820   -1.4066   -4.0086 H       1  UNL1        0.0660
    106 H           6.0767   -2.6123   -2.8632 H       1  UNL1        0.0660
    107 H           6.3318   -2.7613   -4.6721 H       1  UNL1        0.0660
    108 H           9.4580    0.2892   -3.1115 H       1  UNL1        0.0691
@<TRIPOS>BOND
     1     1     2    1
     2     2     3    1
     3     3     4    1
     4     4     5    1
     5     5     6    1
     6     6     7    1
     7     7     8    1
     8     8     9    1
     9     9    10    1
    10    10    11    1
    11    11    12    1
    12    12    13   ar
    13    13    14   ar
    14    14    15    1
    15    15    16    1
    16    16    17   ar
    17    17    18   ar
    18    18    19   ar
    19    19    20   ar
    20    20    21    1
    21    21    22    1
    22    22    23   ar
    23    23    24   ar
    24    24    25   ar
    25    25    26    1
    26    26    27   am
    27    27    28    2
    28    27    29   am
    29    29    30    1
    30    30    31   ar
    31    31    32   ar
    32    32    33    1
    33    33    34    1
    34    33    35    1
    35    33    36    1
    36    32    37   ar
    37    37    38   ar
    38    38    39    1
    39    39    40    1
    40    40    41    1
    41    40    42    2
    42    40    43    2
    43    38    44   ar
    44    44    45    1
    45    45    46    1
    46    25    47   ar
    47    47    48   ar
    48    48    49   ar
    49    49    50   ar
    50    50    51   ar
    51    51    52   ar
    52    20    53   ar
    53    14    54   ar
    54    54    55   ar
    55    55    56    1
    56    56    57    1
    57    55    58   ar
    58    58    12   ar
    59    53    16   ar
    60    52    22   ar
    61    44    30   ar
    62    52    47   ar
    63     1    59    1
    64     1    60    1
    65     1    61    1
    66     3    62    1
    67     3    63    1
    68     4    64    1
    69     4    65    1
    70     6    66    1
    71     6    67    1
    72     7    68    1
    73     7    69    1
    74     9    70    1
    75     9    71    1
    76    10    72    1
    77    10    73    1
    78    13    74    1
    79    15    75    1
    80    18    76    1
    81    19    77    1
    82    23    78    1
    83    24    79    1
    84    26    80    1
    85    29    81    1
    86    31    82    1
    87    34    83    1
    88    34    84    1
    89    34    85    1
    90    35    86    1
    91    35    87    1
    92    35    88    1
    93    36    89    1
    94    36    90    1
    95    36    91    1
    96    37    92    1
    97    39    93    1
    98    41    94    1
    99    41    95    1
   100    41    96    1
   101    46    97    1
   102    46    98    1
   103    46    99    1
   104    48   100    1
   105    49   101    1
   106    50   102    1
   107    51   103    1
   108    54   104    1
   109    57   105    1
   110    57   106    1
   111    57   107    1
   112    58   108    1
