
     RDKit          3D

 48 52  0  0  0  0  0  0  0  0999 V2000
   -0.4669    1.4982   -0.9859 C   0  0  0  0  0  0  0  0  0  0  0  0
    0.7099    0.9385   -0.2724 C   0  0  2  0  0  0  0  0  0  0  0  0
    1.8420    0.6516   -1.1852 C   0  0  0  0  0  0  0  0  0  0  0  0
    2.0131    0.7308   -2.4951 N   0  0  0  0  0  0  0  0  0  0  0  0
    3.2687    0.3507   -2.7349 N   0  0  0  0  0  0  0  0  0  0  0  0
    3.8833    0.0347   -1.5934 C   0  0  0  0  0  0  0  0  0  0  0  0
    5.2731   -0.4272   -1.3537 C   0  0  0  0  0  0  0  0  0  0  0  0
    5.8735   -1.4900   -2.0768 C   0  0  0  0  0  0  0  0  0  0  0  0
    7.4814   -1.5864   -1.3792 S   0  0  0  0  0  0  0  0  0  0  0  0
    7.1751   -0.1477   -0.1496 C   0  0  0  0  0  0  0  0  0  0  0  0
    8.2661    0.2506    0.7690 C   0  0  0  0  0  0  0  0  0  0  0  0
    7.6506    0.5082    1.9990 F   0  0  0  0  0  0  0  0  0  0  0  0
    8.8758    1.4247    0.3936 F   0  0  0  0  0  0  0  0  0  0  0  0
    9.1759   -0.7632    0.9800 F   0  0  0  0  0  0  0  0  0  0  0  0
    6.0423    0.1068   -0.4635 N   0  0  0  0  0  0  0  0  0  0  0  0
    2.9819    0.2260   -0.6352 N   0  0  0  0  0  0  0  0  0  0  0  0
    2.9487    0.0737    0.8306 C   0  0  0  0  0  0  0  0  0  0  0  0
    1.7558   -0.7677    1.1379 C   0  0  0  0  0  0  0  0  0  0  0  0
    0.4950   -0.1943    0.5641 N   0  0  0  0  0  0  0  0  0  0  0  0
   -0.6522   -0.8590    0.9564 C   0  0  0  0  0  0  0  0  0  0  0  0
   -0.4806   -1.8811    1.7521 O   0  0  0  0  0  0  0  0  0  0  0  0
   -2.0569   -0.6243    0.6386 C   0  0  0  0  0  0  0  0  0  0  0  0
   -2.6224   -0.7535   -0.5951 C   0  0  0  0  0  0  0  0  0  0  0  0
   -3.9684   -0.5913   -0.7717 C   0  0  0  0  0  0  0  0  0  0  0  0
   -4.8267   -0.2929    0.2642 C   0  0  0  0  0  0  0  0  0  0  0  0
   -6.2415   -0.1676    0.1235 C   0  0  0  0  0  0  0  0  0  0  0  0
   -7.2559    0.0021    1.0451 C   0  0  0  0  0  0  0  0  0  0  0  0
   -8.5195    0.0407    0.6510 C   0  0  0  0  0  0  0  0  0  0  0  0
   -8.8239   -0.0913   -0.7037 C   0  0  0  0  0  0  0  0  0  0  0  0
   -7.1354   -0.2781   -1.3941 S   0  0  0  0  0  0  0  0  0  0  0  0
   -4.2791   -0.1561    1.5041 C   0  0  0  0  0  0  0  0  0  0  0  0
   -2.9347   -0.3149    1.6994 C   0  0  0  0  0  0  0  0  0  0  0  0
   -1.2664    1.7149   -0.2792 H   0  0  0  0  0  0  0  0  0  0  0  0
   -0.1401    2.5163   -1.3660 H   0  0  0  0  0  0  0  0  0  0  0  0
   -0.7159    0.9432   -1.8888 H   0  0  0  0  0  0  0  0  0  0  0  0
    1.1013    1.7780    0.3909 H   0  0  0  0  0  0  0  0  0  0  0  0
    5.3960   -2.0961   -2.8902 H   0  0  0  0  0  0  0  0  0  0  0  0
    3.8387   -0.4730    1.1843 H   0  0  0  0  0  0  0  0  0  0  0  0
    2.8420    1.0797    1.2485 H   0  0  0  0  0  0  0  0  0  0  0  0
    1.5475   -0.8364    2.2409 H   0  0  0  0  0  0  0  0  0  0  0  0
    1.9086   -1.7758    0.7106 H   0  0  0  0  0  0  0  0  0  0  0  0
   -2.0038   -0.9896   -1.4363 H   0  0  0  0  0  0  0  0  0  0  0  0
   -4.4424   -0.6865   -1.7641 H   0  0  0  0  0  0  0  0  0  0  0  0
   -6.9822    0.1023    2.1422 H   0  0  0  0  0  0  0  0  0  0  0  0
   -9.3883    0.1721    1.3831 H   0  0  0  0  0  0  0  0  0  0  0  0
   -9.7485   -0.0966   -1.2682 H   0  0  0  0  0  0  0  0  0  0  0  0
   -4.8827    0.0805    2.3722 H   0  0  0  0  0  0  0  0  0  0  0  0
   -2.5119   -0.1995    2.7010 H   0  0  0  0  0  0  0  0  0  0  0  0
  1  2  1  0
  2  3  1  0
  3  4  2  0
  4  5  1  0
  5  6  2  0
  6  7  1  0
  7  8  2  0
  8  9  1  0
  9 10  1  0
 10 11  1  0
 11 12  1  0
 11 13  1  0
 11 14  1  0
 10 15  2  0
  6 16  1  0
 16 17  1  0
 17 18  1  0
 18 19  1  0
 19 20  1  0
 20 21  2  0
 20 22  1  0
 22 23  2  0
 23 24  1  0
 24 25  2  0
 25 26  1  0
 26 27  2  0
 27 28  1  0
 28 29  2  0
 29 30  1  0
 25 31  1  0
 31 32  2  0
 19  2  1  0
 32 22  1  0
 16  3  1  0
 30 26  1  0
 15  7  1  0
  1 33  1  0
  1 34  1  0
  1 35  1  0
  2 36  1  1
  8 37  1  0
 17 38  1  0
 17 39  1  0
 18 40  1  0
 18 41  1  0
 23 42  1  0
 24 43  1  0
 27 44  1  0
 28 45  1  0
 29 46  1  0
 31 47  1  0
 32 48  1  0
M  END
$$$$
