@<TRIPOS>MOLECULE
*****
 48 52 0 0 0
SMALL
GASTEIGER

@<TRIPOS>ATOM
      1 C          -0.4669    1.4982   -0.9859 C.3     1  UNL1       -0.0393
      2 C           0.7099    0.9385   -0.2724 C.3     1  UNL1        0.0834
      3 C           1.8420    0.6516   -1.1852 C.ar    1  UNL1        0.1542
      4 N           2.0131    0.7308   -2.4951 N.ar    1  UNL1       -0.1320
      5 N           3.2687    0.3507   -2.7349 N.ar    1  UNL1       -0.1275
      6 C           3.8833    0.0347   -1.5934 C.ar    1  UNL1        0.1832
      7 C           5.2731   -0.4272   -1.3537 C.ar    1  UNL1        0.1157
      8 C           5.8735   -1.4900   -2.0768 C.ar    1  UNL1        0.0067
      9 S           7.4814   -1.5864   -1.3792 S.2     1  UNL1       -0.0711
     10 C           7.1751   -0.1477   -0.1496 C.ar    1  UNL1        0.1819
     11 C           8.2661    0.2506    0.7690 C.3     1  UNL1        0.4407
     12 F           7.6506    0.5082    1.9990 F       1  UNL1       -0.1640
     13 F           8.8758    1.4247    0.3936 F       1  UNL1       -0.1640
     14 F           9.1759   -0.7632    0.9800 F       1  UNL1       -0.1640
     15 N           6.0423    0.1068   -0.4635 N.ar    1  UNL1       -0.2321
     16 N           2.9819    0.2260   -0.6352 N.ar    1  UNL1       -0.3066
     17 C           2.9487    0.0737    0.8306 C.3     1  UNL1        0.0423
     18 C           1.7558   -0.7677    1.1379 C.3     1  UNL1        0.0338
     19 N           0.4950   -0.1943    0.5641 N.am    1  UNL1       -0.2860
     20 C          -0.6522   -0.8590    0.9564 C.2     1  UNL1        0.2472
     21 O          -0.4806   -1.8811    1.7521 O.2     1  UNL1       -0.2700
     22 C          -2.0569   -0.6243    0.6386 C.ar    1  UNL1        0.0370
     23 C          -2.6224   -0.7535   -0.5951 C.ar    1  UNL1       -0.0490
     24 C          -3.9684   -0.5913   -0.7717 C.ar    1  UNL1       -0.0528
     25 C          -4.8267   -0.2929    0.2642 C.ar    1  UNL1       -0.0113
     26 C          -6.2415   -0.1676    0.1235 C.ar    1  UNL1        0.0193
     27 C          -7.2559    0.0021    1.0451 C.ar    1  UNL1       -0.0469
     28 C          -8.5195    0.0407    0.6510 C.ar    1  UNL1       -0.0541
     29 C          -8.8239   -0.0913   -0.7037 C.ar    1  UNL1       -0.0237
     30 S          -7.1354   -0.2781   -1.3941 S.2     1  UNL1       -0.0967
     31 C          -4.2791   -0.1561    1.5041 C.ar    1  UNL1       -0.0528
     32 C          -2.9347   -0.3149    1.6994 C.ar    1  UNL1       -0.0490
     33 H          -1.2664    1.7149   -0.2792 H       1  UNL1        0.0252
     34 H          -0.1401    2.5163   -1.3660 H       1  UNL1        0.0252
     35 H          -0.7159    0.9432   -1.8888 H       1  UNL1        0.0252
     36 H           1.1013    1.7780    0.3909 H       1  UNL1        0.0579
     37 H           5.3960   -2.0961   -2.8902 H       1  UNL1        0.0716
     38 H           3.8387   -0.4730    1.1843 H       1  UNL1        0.0508
     39 H           2.8420    1.0797    1.2485 H       1  UNL1        0.0508
     40 H           1.5475   -0.8364    2.2409 H       1  UNL1        0.0482
     41 H           1.9086   -1.7758    0.7106 H       1  UNL1        0.0482
     42 H          -2.0038   -0.9896   -1.4363 H       1  UNL1        0.0625
     43 H          -4.4424   -0.6865   -1.7641 H       1  UNL1        0.0624
     44 H          -6.9822    0.1023    2.1422 H       1  UNL1        0.0629
     45 H          -9.3883    0.1721    1.3831 H       1  UNL1        0.0623
     46 H          -9.7485   -0.0966   -1.2682 H       1  UNL1        0.0693
     47 H          -4.8827    0.0805    2.3722 H       1  UNL1        0.0624
     48 H          -2.5119   -0.1995    2.7010 H       1  UNL1        0.0625
@<TRIPOS>BOND
     1     1     2    1
     2     2     3    1
     3     3     4   ar
     4     4     5   ar
     5     5     6   ar
     6     6     7    1
     7     7     8   ar
     8     8     9   ar
     9     9    10   ar
    10    10    11    1
    11    11    12    1
    12    11    13    1
    13    11    14    1
    14    10    15   ar
    15     6    16   ar
    16    16    17    1
    17    17    18    1
    18    18    19    1
    19    19    20   am
    20    20    21    2
    21    20    22    1
    22    22    23   ar
    23    23    24   ar
    24    24    25   ar
    25    25    26    1
    26    26    27   ar
    27    27    28   ar
    28    28    29   ar
    29    29    30   ar
    30    25    31   ar
    31    31    32   ar
    32    19     2    1
    33    32    22   ar
    34    16     3   ar
    35    30    26   ar
    36    15     7   ar
    37     1    33    1
    38     1    34    1
    39     1    35    1
    40     2    36    1
    41     8    37    1
    42    17    38    1
    43    17    39    1
    44    18    40    1
    45    18    41    1
    46    23    42    1
    47    24    43    1
    48    27    44    1
    49    28    45    1
    50    29    46    1
    51    31    47    1
    52    32    48    1
