@<TRIPOS>MOLECULE
*****
 49 51 0 0 0
SMALL
GASTEIGER

@<TRIPOS>ATOM
      1 C           6.5082   -0.7179    1.9464 C.3     1  UNL1        0.0789
      2 O           5.1781   -0.4083    1.6522 O.3     1  UNL1       -0.4928
      3 C           4.4093    0.5996    2.1885 C.ar    1  UNL1        0.1517
      4 C           4.9446    1.4933    3.1204 C.ar    1  UNL1        0.0012
      5 C           4.1615    2.5411    3.6659 C.ar    1  UNL1        0.0733
      6 C           4.6419    3.5169    4.5305 C.1     1  UNL1        0.1008
      7 N           5.0737    4.3757    5.3208 N.1     1  UNL1       -0.1908
      8 C           2.8423    2.5628    3.1881 C.ar    1  UNL1        0.0460
      9 N           2.3539    1.7022    2.3041 N.ar    1  UNL1       -0.2455
     10 C           3.1005    0.7174    1.7820 C.ar    1  UNL1        0.1672
     11 C           2.5243   -0.1316    0.7010 C.2     1  UNL1        0.2702
     12 O           3.2535   -0.9147    0.0642 O.2     1  UNL1       -0.2680
     13 N           1.1627   -0.0055    0.4245 N.am    1  UNL1       -0.2801
     14 C           0.4397   -0.6783   -0.6237 C.ar    1  UNL1        0.0342
     15 C           1.0843   -1.0134   -1.7675 C.ar    1  UNL1       -0.0377
     16 C           0.4227   -1.5946   -2.7987 C.ar    1  UNL1       -0.0243
     17 C          -0.9425   -1.8399   -2.6667 C.ar    1  UNL1        0.1291
     18 F          -1.4855   -2.4608   -3.7739 F       1  UNL1       -0.2051
     19 C          -1.6525   -1.5190   -1.5377 C.ar    1  UNL1        0.0196
     20 C          -3.0995   -1.6547   -1.4738 C.3     1  UNL1        0.1258
     21 C          -3.7143   -2.7572   -2.2633 C.3     1  UNL1        0.1196
     22 F          -3.6200   -2.6149   -3.6421 F       1  UNL1       -0.2462
     23 C          -3.5253   -0.3258   -2.3531 C.3     1  UNL1        0.0251
     24 C          -3.2972    0.9036   -1.6104 C.3     1  UNL1        0.1998
     25 C          -4.3131    1.9575   -2.0494 C.3     1  UNL1        0.4266
     26 F          -5.5681    1.4577   -1.8442 F       1  UNL1       -0.1669
     27 F          -4.1238    3.0590   -1.1870 F       1  UNL1       -0.1669
     28 F          -4.1459    2.3351   -3.3381 F       1  UNL1       -0.1669
     29 O          -3.2796    0.8093   -0.2311 O.2     1  UNL1       -0.4534
     30 C          -3.8894   -0.3227    0.3193 C.2     1  UNL1        0.2766
     31 N          -4.6377   -0.1437    1.5845 N.pl3   1  UNL1       -0.3134
     32 N          -3.8010   -1.4213   -0.2463 N.2     1  UNL1       -0.2228
     33 C          -0.9195   -0.9325   -0.5040 C.ar    1  UNL1       -0.0322
     34 H           6.8660   -0.0939    2.8143 H       1  UNL1        0.0660
     35 H           6.6257   -1.7891    2.1336 H       1  UNL1        0.0660
     36 H           7.1694   -0.4649    1.0573 H       1  UNL1        0.0660
     37 H           5.9402    1.4631    3.4869 H       1  UNL1        0.0668
     38 H           2.2211    3.3865    3.6005 H       1  UNL1        0.0843
     39 H           0.5933    0.6595    1.0534 H       1  UNL1        0.1552
     40 H           2.1437   -0.8061   -1.8575 H       1  UNL1        0.0637
     41 H           0.9645   -1.8619   -3.6681 H       1  UNL1        0.0647
     42 H          -3.0635   -3.6902   -2.0615 H       1  UNL1        0.0643
     43 H          -4.7322   -2.9942   -1.9658 H       1  UNL1        0.0643
     44 H          -2.8508   -0.3658   -3.2369 H       1  UNL1        0.0331
     45 H          -4.5468   -0.5000   -2.6490 H       1  UNL1        0.0331
     46 H          -2.2944    1.3615   -1.9456 H       1  UNL1        0.0826
     47 H          -4.0821   -0.1365    2.4459 H       1  UNL1        0.1466
     48 H          -5.6399   -0.0562    1.4975 H       1  UNL1        0.1466
     49 H          -1.4008   -0.6865    0.4135 H       1  UNL1        0.0640
@<TRIPOS>BOND
     1     1     2    1
     2     2     3    1
     3     3     4   ar
     4     4     5   ar
     5     5     6    1
     6     6     7    3
     7     5     8   ar
     8     8     9   ar
     9     9    10   ar
    10    10    11    1
    11    11    12    2
    12    11    13   am
    13    13    14    1
    14    14    15   ar
    15    15    16   ar
    16    16    17   ar
    17    17    18    1
    18    17    19   ar
    19    19    20    1
    20    20    21    1
    21    21    22    1
    22    20    23    1
    23    23    24    1
    24    24    25    1
    25    25    26    1
    26    25    27    1
    27    25    28    1
    28    24    29    1
    29    29    30    1
    30    30    31    1
    31    30    32    2
    32    19    33   ar
    33    10     3   ar
    34    33    14   ar
    35    32    20    1
    36     1    34    1
    37     1    35    1
    38     1    36    1
    39     4    37    1
    40     8    38    1
    41    13    39    1
    42    15    40    1
    43    16    41    1
    44    21    42    1
    45    21    43    1
    46    23    44    1
    47    23    45    1
    48    24    46    1
    49    31    47    1
    50    31    48    1
    51    33    49    1
