
     RDKit          3D

 49 51  0  0  0  0  0  0  0  0999 V2000
    6.5082   -0.7179    1.9464 C   0  0  0  0  0  0  0  0  0  0  0  0
    5.1781   -0.4083    1.6522 O   0  0  0  0  0  0  0  0  0  0  0  0
    4.4093    0.5996    2.1885 C   0  0  0  0  0  0  0  0  0  0  0  0
    4.9446    1.4933    3.1204 C   0  0  0  0  0  0  0  0  0  0  0  0
    4.1615    2.5411    3.6659 C   0  0  0  0  0  0  0  0  0  0  0  0
    4.6419    3.5169    4.5305 C   0  0  0  0  0  0  0  0  0  0  0  0
    5.0737    4.3757    5.3208 N   0  0  0  0  0  0  0  0  0  0  0  0
    2.8423    2.5628    3.1881 C   0  0  0  0  0  0  0  0  0  0  0  0
    2.3539    1.7022    2.3041 N   0  0  0  0  0  0  0  0  0  0  0  0
    3.1005    0.7174    1.7820 C   0  0  0  0  0  0  0  0  0  0  0  0
    2.5243   -0.1316    0.7010 C   0  0  0  0  0  0  0  0  0  0  0  0
    3.2535   -0.9147    0.0642 O   0  0  0  0  0  0  0  0  0  0  0  0
    1.1627   -0.0055    0.4245 N   0  0  0  0  0  0  0  0  0  0  0  0
    0.4397   -0.6783   -0.6237 C   0  0  0  0  0  0  0  0  0  0  0  0
    1.0843   -1.0134   -1.7675 C   0  0  0  0  0  0  0  0  0  0  0  0
    0.4227   -1.5946   -2.7987 C   0  0  0  0  0  0  0  0  0  0  0  0
   -0.9425   -1.8399   -2.6667 C   0  0  0  0  0  0  0  0  0  0  0  0
   -1.4855   -2.4608   -3.7739 F   0  0  0  0  0  0  0  0  0  0  0  0
   -1.6525   -1.5190   -1.5377 C   0  0  0  0  0  0  0  0  0  0  0  0
   -3.0995   -1.6547   -1.4738 C   0  0  2  0  0  0  0  0  0  0  0  0
   -3.7143   -2.7572   -2.2633 C   0  0  0  0  0  0  0  0  0  0  0  0
   -3.6200   -2.6149   -3.6421 F   0  0  0  0  0  0  0  0  0  0  0  0
   -3.5253   -0.3258   -2.3531 C   0  0  0  0  0  0  0  0  0  0  0  0
   -3.2972    0.9036   -1.6104 C   0  0  1  0  0  0  0  0  0  0  0  0
   -4.3131    1.9575   -2.0494 C   0  0  0  0  0  0  0  0  0  0  0  0
   -5.5681    1.4577   -1.8442 F   0  0  0  0  0  0  0  0  0  0  0  0
   -4.1238    3.0590   -1.1870 F   0  0  0  0  0  0  0  0  0  0  0  0
   -4.1459    2.3351   -3.3381 F   0  0  0  0  0  0  0  0  0  0  0  0
   -3.2796    0.8093   -0.2311 O   0  0  0  0  0  0  0  0  0  0  0  0
   -3.8894   -0.3227    0.3193 C   0  0  0  0  0  0  0  0  0  0  0  0
   -4.6377   -0.1437    1.5845 N   0  0  0  0  0  0  0  0  0  0  0  0
   -3.8010   -1.4213   -0.2463 N   0  0  0  0  0  0  0  0  0  0  0  0
   -0.9195   -0.9325   -0.5040 C   0  0  0  0  0  0  0  0  0  0  0  0
    6.8660   -0.0939    2.8143 H   0  0  0  0  0  0  0  0  0  0  0  0
    6.6257   -1.7891    2.1336 H   0  0  0  0  0  0  0  0  0  0  0  0
    7.1694   -0.4649    1.0573 H   0  0  0  0  0  0  0  0  0  0  0  0
    5.9402    1.4631    3.4869 H   0  0  0  0  0  0  0  0  0  0  0  0
    2.2211    3.3865    3.6005 H   0  0  0  0  0  0  0  0  0  0  0  0
    0.5933    0.6595    1.0534 H   0  0  0  0  0  0  0  0  0  0  0  0
    2.1437   -0.8061   -1.8575 H   0  0  0  0  0  0  0  0  0  0  0  0
    0.9645   -1.8619   -3.6681 H   0  0  0  0  0  0  0  0  0  0  0  0
   -3.0635   -3.6902   -2.0615 H   0  0  0  0  0  0  0  0  0  0  0  0
   -4.7322   -2.9942   -1.9658 H   0  0  0  0  0  0  0  0  0  0  0  0
   -2.8508   -0.3658   -3.2369 H   0  0  0  0  0  0  0  0  0  0  0  0
   -4.5468   -0.5000   -2.6490 H   0  0  0  0  0  0  0  0  0  0  0  0
   -2.2944    1.3615   -1.9456 H   0  0  0  0  0  0  0  0  0  0  0  0
   -4.0821   -0.1365    2.4459 H   0  0  0  0  0  0  0  0  0  0  0  0
   -5.6399   -0.0562    1.4975 H   0  0  0  0  0  0  0  0  0  0  0  0
   -1.4008   -0.6865    0.4135 H   0  0  0  0  0  0  0  0  0  0  0  0
  1  2  1  0
  2  3  1  0
  3  4  2  0
  4  5  1  0
  5  6  1  0
  6  7  3  0
  5  8  2  0
  8  9  1  0
  9 10  2  0
 10 11  1  0
 11 12  2  0
 11 13  1  0
 13 14  1  0
 14 15  2  0
 15 16  1  0
 16 17  2  0
 17 18  1  0
 17 19  1  0
 19 20  1  0
 20 21  1  6
 21 22  1  0
 20 23  1  0
 23 24  1  0
 24 25  1  0
 25 26  1  0
 25 27  1  0
 25 28  1  0
 24 29  1  0
 29 30  1  0
 30 31  1  0
 30 32  2  0
 19 33  2  0
 10  3  1  0
 33 14  1  0
 32 20  1  0
  1 34  1  0
  1 35  1  0
  1 36  1  0
  4 37  1  0
  8 38  1  0
 13 39  1  0
 15 40  1  0
 16 41  1  0
 21 42  1  0
 21 43  1  0
 23 44  1  0
 23 45  1  0
 24 46  1  6
 31 47  1  0
 31 48  1  0
 33 49  1  0
M  END
$$$$
