@<TRIPOS>MOLECULE
*****
 90 95 0 0 0
SMALL
GASTEIGER

@<TRIPOS>ATOM
      1 C         -11.1119    3.9937    1.1581 C.3     1  UNL1        0.0788
      2 O         -11.2641    2.8625    0.3418 O.3     1  UNL1       -0.4951
      3 C         -10.3994    1.7934    0.3629 C.ar    1  UNL1        0.1202
      4 C          -9.3271    1.8052    1.2142 C.ar    1  UNL1       -0.0179
      5 C          -8.4542    0.7440    1.2471 C.ar    1  UNL1       -0.0327
      6 C          -8.6650   -0.3285    0.4187 C.ar    1  UNL1        0.0677
      7 N          -7.7596   -1.4164    0.4523 N.ar    1  UNL1       -0.2181
      8 N          -8.0848   -2.6623    0.6864 N.ar    1  UNL1       -0.1694
      9 C          -7.0108   -3.4505    0.6449 C.ar    1  UNL1        0.0679
     10 C          -6.9275   -4.9257    0.8509 C.3     1  UNL1       -0.0025
     11 C          -6.4754   -5.6204   -0.4222 C.3     1  UNL1       -0.0572
     12 C          -6.0564   -5.2846    2.0206 C.3     1  UNL1       -0.0572
     13 C          -5.9492   -2.6129    0.3628 C.ar    1  UNL1        0.0018
     14 C          -6.4294   -1.3306    0.2427 C.ar    1  UNL1        0.1299
     15 N          -5.7561   -0.1174   -0.0397 N.am    1  UNL1       -0.2538
     16 C          -4.3650    0.0068   -0.2775 C.2     1  UNL1        0.3092
     17 O          -3.6492   -1.0242   -0.2422 O.2     1  UNL1       -0.2521
     18 N          -3.7370    1.2476   -0.5560 N.am    1  UNL1       -0.2686
     19 C          -2.3419    1.4069   -0.8044 C.ar    1  UNL1        0.0427
     20 C          -1.8181    1.3192   -2.0756 C.ar    1  UNL1       -0.0363
     21 C          -0.4712    1.4970   -2.2917 C.ar    1  UNL1       -0.0169
     22 C           0.4244    1.7709   -1.2527 C.ar    1  UNL1        0.1381
     23 O           1.7165    1.9279   -1.5778 O.3     1  UNL1       -0.4373
     24 C           2.8465    1.2505   -1.2471 C.ar    1  UNL1        0.2249
     25 C           2.9379    0.1364   -0.4445 C.ar    1  UNL1        0.0186
     26 C           4.1937   -0.3942   -0.2379 C.ar    1  UNL1        0.0362
     27 N           5.2988    0.1402   -0.7901 N.ar    1  UNL1       -0.2225
     28 C           5.2172    1.2163   -1.5674 C.ar    1  UNL1        0.2226
     29 N           6.3370    1.8092   -2.1494 N.pl3   1  UNL1       -0.2806
     30 C           7.7011    1.5310   -1.9484 C.ar    1  UNL1        0.0765
     31 C           8.1648    0.6477   -1.0137 C.ar    1  UNL1       -0.0248
     32 C           9.5034    0.3839   -0.7862 C.ar    1  UNL1        0.0387
     33 C          10.0074   -0.5492    0.2006 C.2     1  UNL1        0.2442
     34 O          11.2708   -0.6640    0.3661 O.2     1  UNL1       -0.2702
     35 N           9.1921   -1.3558    1.0072 N.am    1  UNL1       -0.3092
     36 C           9.6090   -2.3020    1.9973 C.3     1  UNL1        0.0351
     37 C          10.4339   -3.4427    1.5212 C.3     1  UNL1        0.0597
     38 O          11.6328   -3.1014    0.9281 O.3     1  UNL1       -0.3935
     39 C          10.4205    1.0706   -1.5677 C.ar    1  UNL1       -0.0461
     40 C           9.9887    1.9698   -2.5222 C.ar    1  UNL1       -0.0174
     41 C           8.6514    2.1946   -2.7073 C.ar    1  UNL1        0.1412
     42 O           8.2453    3.1042   -3.6736 O.3     1  UNL1       -0.4933
     43 C           9.1437    3.8209   -4.4877 C.3     1  UNL1        0.0789
     44 N           4.0020    1.7325   -1.7689 N.ar    1  UNL1       -0.1789
     45 C          -0.0989    1.8585    0.0168 C.ar    1  UNL1        0.0262
     46 C           0.7485    2.1356    1.0659 C.ar    1  UNL1       -0.0505
     47 C           0.1932    2.2228    2.3307 C.ar    1  UNL1       -0.0611
     48 C          -1.1588    2.0435    2.5572 C.ar    1  UNL1       -0.0611
     49 C          -2.0134    1.7657    1.4950 C.ar    1  UNL1       -0.0521
     50 C          -1.4699    1.6768    0.2321 C.ar    1  UNL1        0.0069
     51 C          -9.7263   -0.3775   -0.4472 C.ar    1  UNL1       -0.0327
     52 C         -10.6030    0.7141   -0.4636 C.ar    1  UNL1       -0.0179
     53 H         -11.8805    4.7281    0.8747 H       1  UNL1        0.0660
     54 H         -11.2758    3.7044    2.2114 H       1  UNL1        0.0660
     55 H         -10.0952    4.4386    1.0973 H       1  UNL1        0.0660
     56 H          -9.1357    2.6532    1.8862 H       1  UNL1        0.0655
     57 H          -7.6159    0.7615    1.9185 H       1  UNL1        0.0640
     58 H          -7.9533   -5.2793    1.0684 H       1  UNL1        0.0359
     59 H          -6.5300   -4.9020   -1.2751 H       1  UNL1        0.0236
     60 H          -5.4490   -5.9788   -0.2768 H       1  UNL1        0.0236
     61 H          -7.1297   -6.4819   -0.6470 H       1  UNL1        0.0236
     62 H          -6.1715   -6.3470    2.2423 H       1  UNL1        0.0236
     63 H          -6.4653   -4.7281    2.9040 H       1  UNL1        0.0236
     64 H          -5.0063   -4.9700    1.8940 H       1  UNL1        0.0236
     65 H          -4.9167   -2.9039    0.2541 H       1  UNL1        0.0671
     66 H          -6.2983    0.7902   -0.0851 H       1  UNL1        0.1578
     67 H          -4.3822    2.0825   -0.5703 H       1  UNL1        0.1564
     68 H          -2.5172    1.1029   -2.8926 H       1  UNL1        0.0637
     69 H          -0.1097    1.4194   -3.3082 H       1  UNL1        0.0655
     70 H           2.0328   -0.2544   -0.0230 H       1  UNL1        0.0686
     71 H           4.3033   -1.2683    0.3848 H       1  UNL1        0.0832
     72 H           6.1077    2.5903   -2.8555 H       1  UNL1        0.1551
     73 H           7.4836    0.1086   -0.3937 H       1  UNL1        0.0645
     74 H           8.1402   -1.2331    0.8453 H       1  UNL1        0.1491
     75 H          10.1007   -1.7889    2.8675 H       1  UNL1        0.0485
     76 H           8.6833   -2.7520    2.4571 H       1  UNL1        0.0485
     77 H          10.7038   -4.1380    2.3673 H       1  UNL1        0.0573
     78 H           9.8594   -4.1074    0.8167 H       1  UNL1        0.0573
     79 H          11.7253   -3.5482    0.0530 H       1  UNL1        0.2095
     80 H          11.4780    0.8830   -1.4095 H       1  UNL1        0.0626
     81 H          10.7236    2.5028   -3.1326 H       1  UNL1        0.0655
     82 H           9.8765    3.2097   -5.0148 H       1  UNL1        0.0660
     83 H           9.6860    4.5463   -3.8185 H       1  UNL1        0.0660
     84 H           8.5106    4.4391   -5.1699 H       1  UNL1        0.0660
     85 H           1.8069    2.2951    0.9302 H       1  UNL1        0.0625
     86 H           0.8732    2.4410    3.1487 H       1  UNL1        0.0618
     87 H          -1.5652    2.1157    3.5461 H       1  UNL1        0.0618
     88 H          -3.0705    1.6243    1.6552 H       1  UNL1        0.0624
     89 H          -9.8470   -1.2403   -1.0765 H       1  UNL1        0.0640
     90 H         -11.4367    0.6451   -1.1581 H       1  UNL1        0.0655
@<TRIPOS>BOND
     1     1     2    1
     2     2     3    1
     3     3     4   ar
     4     4     5   ar
     5     5     6   ar
     6     6     7    1
     7     7     8   ar
     8     8     9   ar
     9     9    10    1
    10    10    11    1
    11    10    12    1
    12     9    13   ar
    13    13    14   ar
    14    14    15    1
    15    15    16   am
    16    16    17    2
    17    16    18   am
    18    18    19    1
    19    19    20   ar
    20    20    21   ar
    21    21    22   ar
    22    22    23    1
    23    23    24    1
    24    24    25   ar
    25    25    26   ar
    26    26    27   ar
    27    27    28   ar
    28    28    29    1
    29    29    30    1
    30    30    31   ar
    31    31    32   ar
    32    32    33    1
    33    33    34    2
    34    33    35   am
    35    35    36    1
    36    36    37    1
    37    37    38    1
    38    32    39   ar
    39    39    40   ar
    40    40    41   ar
    41    41    42    1
    42    42    43    1
    43    28    44   ar
    44    22    45   ar
    45    45    46   ar
    46    46    47   ar
    47    47    48   ar
    48    48    49   ar
    49    49    50   ar
    50     6    51   ar
    51    51    52   ar
    52    52     3   ar
    53    14     7   ar
    54    50    19   ar
    55    44    24   ar
    56    50    45   ar
    57    41    30   ar
    58     1    53    1
    59     1    54    1
    60     1    55    1
    61     4    56    1
    62     5    57    1
    63    10    58    1
    64    11    59    1
    65    11    60    1
    66    11    61    1
    67    12    62    1
    68    12    63    1
    69    12    64    1
    70    13    65    1
    71    15    66    1
    72    18    67    1
    73    20    68    1
    74    21    69    1
    75    25    70    1
    76    26    71    1
    77    29    72    1
    78    31    73    1
    79    35    74    1
    80    36    75    1
    81    36    76    1
    82    37    77    1
    83    37    78    1
    84    38    79    1
    85    39    80    1
    86    40    81    1
    87    43    82    1
    88    43    83    1
    89    43    84    1
    90    46    85    1
    91    47    86    1
    92    48    87    1
    93    49    88    1
    94    51    89    1
    95    52    90    1
