
     RDKit          3D

 90 95  0  0  0  0  0  0  0  0999 V2000
  -11.1119    3.9937    1.1581 C   0  0  0  0  0  0  0  0  0  0  0  0
  -11.2641    2.8625    0.3418 O   0  0  0  0  0  0  0  0  0  0  0  0
  -10.3994    1.7934    0.3629 C   0  0  0  0  0  0  0  0  0  0  0  0
   -9.3271    1.8052    1.2142 C   0  0  0  0  0  0  0  0  0  0  0  0
   -8.4542    0.7440    1.2471 C   0  0  0  0  0  0  0  0  0  0  0  0
   -8.6650   -0.3285    0.4187 C   0  0  0  0  0  0  0  0  0  0  0  0
   -7.7596   -1.4164    0.4523 N   0  0  0  0  0  0  0  0  0  0  0  0
   -8.0848   -2.6623    0.6864 N   0  0  0  0  0  0  0  0  0  0  0  0
   -7.0108   -3.4505    0.6449 C   0  0  0  0  0  0  0  0  0  0  0  0
   -6.9275   -4.9257    0.8509 C   0  0  0  0  0  0  0  0  0  0  0  0
   -6.4754   -5.6204   -0.4222 C   0  0  0  0  0  0  0  0  0  0  0  0
   -6.0564   -5.2846    2.0206 C   0  0  0  0  0  0  0  0  0  0  0  0
   -5.9492   -2.6129    0.3628 C   0  0  0  0  0  0  0  0  0  0  0  0
   -6.4294   -1.3306    0.2427 C   0  0  0  0  0  0  0  0  0  0  0  0
   -5.7561   -0.1174   -0.0397 N   0  0  0  0  0  0  0  0  0  0  0  0
   -4.3650    0.0068   -0.2775 C   0  0  0  0  0  0  0  0  0  0  0  0
   -3.6492   -1.0242   -0.2422 O   0  0  0  0  0  0  0  0  0  0  0  0
   -3.7370    1.2476   -0.5560 N   0  0  0  0  0  0  0  0  0  0  0  0
   -2.3419    1.4069   -0.8044 C   0  0  0  0  0  0  0  0  0  0  0  0
   -1.8181    1.3192   -2.0756 C   0  0  0  0  0  0  0  0  0  0  0  0
   -0.4712    1.4970   -2.2917 C   0  0  0  0  0  0  0  0  0  0  0  0
    0.4244    1.7709   -1.2527 C   0  0  0  0  0  0  0  0  0  0  0  0
    1.7165    1.9279   -1.5778 O   0  0  0  0  0  0  0  0  0  0  0  0
    2.8465    1.2505   -1.2471 C   0  0  0  0  0  0  0  0  0  0  0  0
    2.9379    0.1364   -0.4445 C   0  0  0  0  0  0  0  0  0  0  0  0
    4.1937   -0.3942   -0.2379 C   0  0  0  0  0  0  0  0  0  0  0  0
    5.2988    0.1402   -0.7901 N   0  0  0  0  0  0  0  0  0  0  0  0
    5.2172    1.2163   -1.5674 C   0  0  0  0  0  0  0  0  0  0  0  0
    6.3370    1.8092   -2.1494 N   0  0  0  0  0  0  0  0  0  0  0  0
    7.7011    1.5310   -1.9484 C   0  0  0  0  0  0  0  0  0  0  0  0
    8.1648    0.6477   -1.0137 C   0  0  0  0  0  0  0  0  0  0  0  0
    9.5034    0.3839   -0.7862 C   0  0  0  0  0  0  0  0  0  0  0  0
   10.0074   -0.5492    0.2006 C   0  0  0  0  0  0  0  0  0  0  0  0
   11.2708   -0.6640    0.3661 O   0  0  0  0  0  0  0  0  0  0  0  0
    9.1921   -1.3558    1.0072 N   0  0  0  0  0  0  0  0  0  0  0  0
    9.6090   -2.3020    1.9973 C   0  0  0  0  0  0  0  0  0  0  0  0
   10.4339   -3.4427    1.5212 C   0  0  0  0  0  0  0  0  0  0  0  0
   11.6328   -3.1014    0.9281 O   0  0  0  0  0  0  0  0  0  0  0  0
   10.4205    1.0706   -1.5677 C   0  0  0  0  0  0  0  0  0  0  0  0
    9.9887    1.9698   -2.5222 C   0  0  0  0  0  0  0  0  0  0  0  0
    8.6514    2.1946   -2.7073 C   0  0  0  0  0  0  0  0  0  0  0  0
    8.2453    3.1042   -3.6736 O   0  0  0  0  0  0  0  0  0  0  0  0
    9.1437    3.8209   -4.4877 C   0  0  0  0  0  0  0  0  0  0  0  0
    4.0020    1.7325   -1.7689 N   0  0  0  0  0  0  0  0  0  0  0  0
   -0.0989    1.8585    0.0168 C   0  0  0  0  0  0  0  0  0  0  0  0
    0.7485    2.1356    1.0659 C   0  0  0  0  0  0  0  0  0  0  0  0
    0.1932    2.2228    2.3307 C   0  0  0  0  0  0  0  0  0  0  0  0
   -1.1588    2.0435    2.5572 C   0  0  0  0  0  0  0  0  0  0  0  0
   -2.0134    1.7657    1.4950 C   0  0  0  0  0  0  0  0  0  0  0  0
   -1.4699    1.6768    0.2321 C   0  0  0  0  0  0  0  0  0  0  0  0
   -9.7263   -0.3775   -0.4472 C   0  0  0  0  0  0  0  0  0  0  0  0
  -10.6030    0.7141   -0.4636 C   0  0  0  0  0  0  0  0  0  0  0  0
  -11.8805    4.7281    0.8747 H   0  0  0  0  0  0  0  0  0  0  0  0
  -11.2758    3.7044    2.2114 H   0  0  0  0  0  0  0  0  0  0  0  0
  -10.0952    4.4386    1.0973 H   0  0  0  0  0  0  0  0  0  0  0  0
   -9.1357    2.6532    1.8862 H   0  0  0  0  0  0  0  0  0  0  0  0
   -7.6159    0.7615    1.9185 H   0  0  0  0  0  0  0  0  0  0  0  0
   -7.9533   -5.2793    1.0684 H   0  0  0  0  0  0  0  0  0  0  0  0
   -6.5300   -4.9020   -1.2751 H   0  0  0  0  0  0  0  0  0  0  0  0
   -5.4490   -5.9788   -0.2768 H   0  0  0  0  0  0  0  0  0  0  0  0
   -7.1297   -6.4819   -0.6470 H   0  0  0  0  0  0  0  0  0  0  0  0
   -6.1715   -6.3470    2.2423 H   0  0  0  0  0  0  0  0  0  0  0  0
   -6.4653   -4.7281    2.9040 H   0  0  0  0  0  0  0  0  0  0  0  0
   -5.0063   -4.9700    1.8940 H   0  0  0  0  0  0  0  0  0  0  0  0
   -4.9167   -2.9039    0.2541 H   0  0  0  0  0  0  0  0  0  0  0  0
   -6.2983    0.7902   -0.0851 H   0  0  0  0  0  0  0  0  0  0  0  0
   -4.3822    2.0825   -0.5703 H   0  0  0  0  0  0  0  0  0  0  0  0
   -2.5172    1.1029   -2.8926 H   0  0  0  0  0  0  0  0  0  0  0  0
   -0.1097    1.4194   -3.3082 H   0  0  0  0  0  0  0  0  0  0  0  0
    2.0328   -0.2544   -0.0230 H   0  0  0  0  0  0  0  0  0  0  0  0
    4.3033   -1.2683    0.3848 H   0  0  0  0  0  0  0  0  0  0  0  0
    6.1077    2.5903   -2.8555 H   0  0  0  0  0  0  0  0  0  0  0  0
    7.4836    0.1086   -0.3937 H   0  0  0  0  0  0  0  0  0  0  0  0
    8.1402   -1.2331    0.8453 H   0  0  0  0  0  0  0  0  0  0  0  0
   10.1007   -1.7889    2.8675 H   0  0  0  0  0  0  0  0  0  0  0  0
    8.6833   -2.7520    2.4571 H   0  0  0  0  0  0  0  0  0  0  0  0
   10.7038   -4.1380    2.3673 H   0  0  0  0  0  0  0  0  0  0  0  0
    9.8594   -4.1074    0.8167 H   0  0  0  0  0  0  0  0  0  0  0  0
   11.7253   -3.5482    0.0530 H   0  0  0  0  0  0  0  0  0  0  0  0
   11.4780    0.8830   -1.4095 H   0  0  0  0  0  0  0  0  0  0  0  0
   10.7236    2.5028   -3.1326 H   0  0  0  0  0  0  0  0  0  0  0  0
    9.8765    3.2097   -5.0148 H   0  0  0  0  0  0  0  0  0  0  0  0
    9.6860    4.5463   -3.8185 H   0  0  0  0  0  0  0  0  0  0  0  0
    8.5106    4.4391   -5.1699 H   0  0  0  0  0  0  0  0  0  0  0  0
    1.8069    2.2951    0.9302 H   0  0  0  0  0  0  0  0  0  0  0  0
    0.8732    2.4410    3.1487 H   0  0  0  0  0  0  0  0  0  0  0  0
   -1.5652    2.1157    3.5461 H   0  0  0  0  0  0  0  0  0  0  0  0
   -3.0705    1.6243    1.6552 H   0  0  0  0  0  0  0  0  0  0  0  0
   -9.8470   -1.2403   -1.0765 H   0  0  0  0  0  0  0  0  0  0  0  0
  -11.4367    0.6451   -1.1581 H   0  0  0  0  0  0  0  0  0  0  0  0
  1  2  1  0
  2  3  1  0
  3  4  2  0
  4  5  1  0
  5  6  2  0
  6  7  1  0
  7  8  1  0
  8  9  2  0
  9 10  1  0
 10 11  1  0
 10 12  1  0
  9 13  1  0
 13 14  2  0
 14 15  1  0
 15 16  1  0
 16 17  2  0
 16 18  1  0
 18 19  1  0
 19 20  2  0
 20 21  1  0
 21 22  2  0
 22 23  1  0
 23 24  1  0
 24 25  2  0
 25 26  1  0
 26 27  2  0
 27 28  1  0
 28 29  1  0
 29 30  1  0
 30 31  2  0
 31 32  1  0
 32 33  1  0
 33 34  2  0
 33 35  1  0
 35 36  1  0
 36 37  1  0
 37 38  1  0
 32 39  2  0
 39 40  1  0
 40 41  2  0
 41 42  1  0
 42 43  1  0
 28 44  2  0
 22 45  1  0
 45 46  2  0
 46 47  1  0
 47 48  2  0
 48 49  1  0
 49 50  2  0
  6 51  1  0
 51 52  2  0
 52  3  1  0
 14  7  1  0
 50 19  1  0
 44 24  1  0
 50 45  1  0
 41 30  1  0
  1 53  1  0
  1 54  1  0
  1 55  1  0
  4 56  1  0
  5 57  1  0
 10 58  1  0
 11 59  1  0
 11 60  1  0
 11 61  1  0
 12 62  1  0
 12 63  1  0
 12 64  1  0
 13 65  1  0
 15 66  1  0
 18 67  1  0
 20 68  1  0
 21 69  1  0
 25 70  1  0
 26 71  1  0
 29 72  1  0
 31 73  1  0
 35 74  1  0
 36 75  1  0
 36 76  1  0
 37 77  1  0
 37 78  1  0
 38 79  1  0
 39 80  1  0
 40 81  1  0
 43 82  1  0
 43 83  1  0
 43 84  1  0
 46 85  1  0
 47 86  1  0
 48 87  1  0
 49 88  1  0
 51 89  1  0
 52 90  1  0
M  END
$$$$
