@<TRIPOS>MOLECULE
*****
 47 50 0 0 0
SMALL
GASTEIGER

@<TRIPOS>ATOM
      1 C          -2.1188    1.1716   -0.3053 C.3     1  UNL1        0.1005
      2 S          -1.1597    0.4253   -1.6807 S.3     1  UNL1       -0.1273
      3 C          -1.9800   -1.1815   -1.4855 C.3     1  UNL1        0.0417
      4 C          -3.1993   -1.1183   -2.4162 C.3     1  UNL1       -0.0484
      5 C          -1.1353   -2.3342   -1.8809 C.3     1  UNL1       -0.0484
      6 CA         -2.4983   -1.2190   -0.0876 C.3     1  UNL1        0.1379
      7 N          -2.2585    0.0212    0.5470 N.am    1  UNL1       -0.2708
      8 C          -2.0551    0.8881    1.6214 C.2     1  UNL1        0.2402
      9 O          -2.3584    0.9904    2.8467 O.2     1  UNL1       -0.2734
     10 CA         -1.2626    1.7744    0.7572 C.3     1  UNL1        0.1279
     11 N           0.1160    1.3999    0.7819 N.am    1  UNL1       -0.2976
     12 C           1.1742    2.3297    0.9381 C.2     1  UNL1        0.2502
     13 O           0.7806    3.5177    1.0529 O.2     1  UNL1       -0.2700
     14 C           2.6016    2.0683    0.9781 C.ar    1  UNL1        0.1061
     15 C           3.5182    3.0805    1.1350 C.ar    1  UNL1        0.1469
     16 C           3.3092    4.5565    1.2895 C.3     1  UNL1       -0.0029
     17 O           4.7264    2.5376    1.1326 O.2     1  UNL1       -0.3586
     18 N           4.6341    1.2451    0.9840 N.ar    1  UNL1       -0.0772
     19 C           3.3321    0.9072    0.8838 C.ar    1  UNL1        0.1285
     20 C           2.7910   -0.4306    0.7088 C.ar    1  UNL1        0.0410
     21 C           2.4887   -1.1728    1.8538 C.ar    1  UNL1        0.0517
     22 CL          2.7435   -0.5136    3.4537 Cl      1  UNL1       -0.0828
     23 C           1.9843   -2.4385    1.6571 C.ar    1  UNL1       -0.0427
     24 C           1.7857   -2.9523    0.3949 C.ar    1  UNL1       -0.0590
     25 C           2.0893   -2.2069   -0.7498 C.ar    1  UNL1       -0.0427
     26 C           2.5965   -0.9346   -0.5827 C.ar    1  UNL1        0.0517
     27 CL          2.9966    0.0496   -1.9863 Cl      1  UNL1       -0.0828
     28 C          -3.9395   -1.5840   -0.0579 C.2     1  UNL1        0.3269
     29 O          -5.2364   -2.0689   -0.1153 O.3     1  UNL1       -0.4793
     30 OXT        -4.5684   -0.6558    0.5416 O.2     1  UNL1       -0.2489
     31 H          -3.0043    1.7231   -0.5948 H       1  UNL1        0.0640
     32 H          -2.9023   -0.8008   -3.4347 H       1  UNL1        0.0244
     33 H          -3.9068   -0.3708   -2.0277 H       1  UNL1        0.0244
     34 H          -3.6802   -2.1110   -2.5117 H       1  UNL1        0.0244
     35 H          -1.7030   -3.0143   -2.5466 H       1  UNL1        0.0244
     36 H          -0.7354   -2.9237   -1.0354 H       1  UNL1        0.0244
     37 H          -0.2531   -1.9315   -2.4584 H       1  UNL1        0.0244
     38 HA         -1.9826   -2.0765    0.3958 H       1  UNL1        0.0631
     39 HA         -1.4517    2.8598    0.8705 H       1  UNL1        0.0622
     40 H           0.3818    0.3982    0.6820 H       1  UNL1        0.1499
     41 H           2.5236    4.7062    2.0591 H       1  UNL1        0.0309
     42 H           3.0239    5.0509    0.3435 H       1  UNL1        0.0309
     43 H           4.2101    5.0501    1.6843 H       1  UNL1        0.0309
     44 H           1.7261   -3.0743    2.5161 H       1  UNL1        0.0632
     45 H           1.3875   -3.9509    0.3023 H       1  UNL1        0.0618
     46 H           1.9237   -2.6342   -1.7284 H       1  UNL1        0.0632
     47 H          -5.4549   -3.0527    0.0972 H       1  UNL1        0.2951
@<TRIPOS>BOND
     1     1     2    1
     2     2     3    1
     3     3     4    1
     4     3     5    1
     5     3     6    1
     6     6     7    1
     7     7     8   am
     8     8     9    2
     9     8    10    1
    10    10    11    1
    11    11    12   am
    12    12    13    2
    13    12    14    1
    14    14    15   ar
    15    15    16    1
    16    15    17   ar
    17    17    18   ar
    18    18    19   ar
    19    19    20    1
    20    20    21   ar
    21    21    22    1
    22    21    23   ar
    23    23    24   ar
    24    24    25   ar
    25    25    26   ar
    26    26    27    1
    27     6    28    1
    28    28    29    1
    29    28    30    2
    30     7     1    1
    31    19    14   ar
    32    26    20   ar
    33    10     1    1
    34     1    31    1
    35     4    32    1
    36     4    33    1
    37     4    34    1
    38     5    35    1
    39     5    36    1
    40     5    37    1
    41     6    38    1
    42    10    39    1
    43    11    40    1
    44    16    41    1
    45    16    42    1
    46    16    43    1
    47    23    44    1
    48    24    45    1
    49    25    46    1
    50    29    47    1
