
     RDKit          3D

 47 50  0  0  0  0  0  0  0  0999 V2000
   -2.1188    1.1716   -0.3053 C   0  0  1  0  0  0  0  0  0  0  0  0
   -1.1597    0.4253   -1.6807 S   0  0  0  0  0  0  0  0  0  0  0  0
   -1.9800   -1.1815   -1.4855 C   0  0  0  0  0  0  0  0  0  0  0  0
   -3.1993   -1.1183   -2.4162 C   0  0  0  0  0  0  0  0  0  0  0  0
   -1.1353   -2.3342   -1.8809 C   0  0  0  0  0  0  0  0  0  0  0  0
   -2.4983   -1.2190   -0.0876 C   0  0  1  0  0  0  0  0  0  0  0  0
   -2.2585    0.0212    0.5470 N   0  0  0  0  0  0  0  0  0  0  0  0
   -2.0551    0.8881    1.6214 C   0  0  0  0  0  0  0  0  0  0  0  0
   -2.3584    0.9904    2.8467 O   0  0  0  0  0  0  0  0  0  0  0  0
   -1.2626    1.7744    0.7572 C   0  0  1  0  0  0  0  0  0  0  0  0
    0.1160    1.3999    0.7819 N   0  0  0  0  0  0  0  0  0  0  0  0
    1.1742    2.3297    0.9381 C   0  0  0  0  0  0  0  0  0  0  0  0
    0.7806    3.5177    1.0529 O   0  0  0  0  0  0  0  0  0  0  0  0
    2.6016    2.0683    0.9781 C   0  0  0  0  0  0  0  0  0  0  0  0
    3.5182    3.0805    1.1350 C   0  0  0  0  0  0  0  0  0  0  0  0
    3.3092    4.5565    1.2895 C   0  0  0  0  0  0  0  0  0  0  0  0
    4.7264    2.5376    1.1326 O   0  0  0  0  0  0  0  0  0  0  0  0
    4.6341    1.2451    0.9840 N   0  0  0  0  0  0  0  0  0  0  0  0
    3.3321    0.9072    0.8838 C   0  0  0  0  0  0  0  0  0  0  0  0
    2.7910   -0.4306    0.7088 C   0  0  0  0  0  0  0  0  0  0  0  0
    2.4887   -1.1728    1.8538 C   0  0  0  0  0  0  0  0  0  0  0  0
    2.7435   -0.5136    3.4537 Cl  0  0  0  0  0  0  0  0  0  0  0  0
    1.9843   -2.4385    1.6571 C   0  0  0  0  0  0  0  0  0  0  0  0
    1.7857   -2.9523    0.3949 C   0  0  0  0  0  0  0  0  0  0  0  0
    2.0893   -2.2069   -0.7498 C   0  0  0  0  0  0  0  0  0  0  0  0
    2.5965   -0.9346   -0.5827 C   0  0  0  0  0  0  0  0  0  0  0  0
    2.9966    0.0496   -1.9863 Cl  0  0  0  0  0  0  0  0  0  0  0  0
   -3.9395   -1.5840   -0.0579 C   0  0  0  0  0  0  0  0  0  0  0  0
   -5.2364   -2.0689   -0.1153 O   0  0  0  0  0  0  0  0  0  0  0  0
   -4.5684   -0.6558    0.5416 O   0  0  0  0  0  0  0  0  0  0  0  0
   -3.0043    1.7231   -0.5948 H   0  0  0  0  0  0  0  0  0  0  0  0
   -2.9023   -0.8008   -3.4347 H   0  0  0  0  0  0  0  0  0  0  0  0
   -3.9068   -0.3708   -2.0277 H   0  0  0  0  0  0  0  0  0  0  0  0
   -3.6802   -2.1110   -2.5117 H   0  0  0  0  0  0  0  0  0  0  0  0
   -1.7030   -3.0143   -2.5466 H   0  0  0  0  0  0  0  0  0  0  0  0
   -0.7354   -2.9237   -1.0354 H   0  0  0  0  0  0  0  0  0  0  0  0
   -0.2531   -1.9315   -2.4584 H   0  0  0  0  0  0  0  0  0  0  0  0
   -1.9826   -2.0765    0.3958 H   0  0  0  0  0  0  0  0  0  0  0  0
   -1.4517    2.8598    0.8705 H   0  0  0  0  0  0  0  0  0  0  0  0
    0.3818    0.3982    0.6820 H   0  0  0  0  0  0  0  0  0  0  0  0
    2.5236    4.7062    2.0591 H   0  0  0  0  0  0  0  0  0  0  0  0
    3.0239    5.0509    0.3435 H   0  0  0  0  0  0  0  0  0  0  0  0
    4.2101    5.0501    1.6843 H   0  0  0  0  0  0  0  0  0  0  0  0
    1.7261   -3.0743    2.5161 H   0  0  0  0  0  0  0  0  0  0  0  0
    1.3875   -3.9509    0.3023 H   0  0  0  0  0  0  0  0  0  0  0  0
    1.9237   -2.6342   -1.7284 H   0  0  0  0  0  0  0  0  0  0  0  0
   -5.4549   -3.0527    0.0972 H   0  0  0  0  0  0  0  0  0  0  0  0
  1  2  1  0
  2  3  1  0
  3  4  1  0
  3  5  1  0
  3  6  1  0
  6  7  1  0
  7  8  1  0
  8  9  2  0
  8 10  1  0
 10 11  1  0
 11 12  1  0
 12 13  2  0
 12 14  1  0
 14 15  2  0
 15 16  1  0
 15 17  1  0
 17 18  1  0
 18 19  2  0
 19 20  1  0
 20 21  2  0
 21 22  1  0
 21 23  1  0
 23 24  2  0
 24 25  1  0
 25 26  2  0
 26 27  1  0
  6 28  1  0
 28 29  1  0
 28 30  2  0
  7  1  1  0
 19 14  1  0
 26 20  1  0
 10  1  1  0
  1 31  1  6
  4 32  1  0
  4 33  1  0
  4 34  1  0
  5 35  1  0
  5 36  1  0
  5 37  1  0
  6 38  1  1
 10 39  1  1
 11 40  1  0
 16 41  1  0
 16 42  1  0
 16 43  1  0
 23 44  1  0
 24 45  1  0
 25 46  1  0
 29 47  1  0
M  END
$$$$
