@<TRIPOS>MOLECULE
*****
 58 61 0 0 0
SMALL
GASTEIGER

@<TRIPOS>ATOM
      1 O           3.8496   -0.5859   -1.6478 O.2     1  UNL1       -0.2523
      2 C           3.0700   -0.3674   -0.6885 C.2     1  UNL1        0.3065
      3 N           3.6465    0.1751    0.5078 N.am    1  UNL1       -0.2693
      4 C           5.0349    0.4484    0.5800 C.ar    1  UNL1        0.0353
      5 C           5.4973    1.7168    0.2345 C.ar    1  UNL1       -0.0404
      6 C           6.8141    2.0516    0.2810 C.ar    1  UNL1       -0.0595
      7 C           7.7473    1.1227    0.6801 C.ar    1  UNL1       -0.0500
      8 C           7.3322   -0.1662    1.0372 C.ar    1  UNL1        0.0566
      9 C           8.3192   -1.1739    1.4693 C.3     1  UNL1        0.4175
     10 F           8.7560   -1.8526    0.3322 F       1  UNL1       -0.1659
     11 F           9.3829   -0.4715    2.0334 F       1  UNL1       -0.1659
     12 F           7.7446   -2.0557    2.3643 F       1  UNL1       -0.1659
     13 C           5.9695   -0.4764    0.9780 C.ar    1  UNL1       -0.0288
     14 N           1.6653   -0.6517   -0.7923 N.am    1  UNL1       -0.2829
     15 C           1.2036   -1.2217   -2.0338 C.3     1  UNL1        0.0289
     16 C          -0.2628   -1.3871   -2.1200 C.3     1  UNL1        0.0148
     17 N          -0.9798   -0.4396   -1.2298 N.3     1  UNL1       -0.2991
     18 C          -2.3584   -0.7592   -1.4220 C.3     1  UNL1        0.0030
     19 C          -3.3956    0.1650   -0.9470 C.3     1  UNL1       -0.0154
     20 C          -3.3031    1.5511   -1.5597 C.3     1  UNL1       -0.0467
     21 C          -4.5610    2.2955   -1.2077 C.3     1  UNL1       -0.0399
     22 C          -5.4977    1.5596   -0.3151 C.3     1  UNL1       -0.0008
     23 N          -4.8911    0.8839    0.7677 N.3     1  UNL1       -0.2991
     24 C          -5.7684    0.1871    1.6090 C.3     1  UNL1        0.0105
     25 C          -5.3810   -0.6218    2.7692 C.3     1  UNL1       -0.0359
     26 C          -5.8115   -1.3198    1.4773 C.3     1  UNL1       -0.0359
     27 C          -3.5950    0.3011    0.5227 C.3     1  UNL1        0.0032
     28 C          -0.5501   -0.8293    0.1099 C.3     1  UNL1        0.0148
     29 C           0.8628   -0.3330    0.3448 C.3     1  UNL1        0.0289
     30 H           3.0159    0.3682    1.3428 H       1  UNL1        0.1564
     31 H           4.7608    2.4427   -0.0778 H       1  UNL1        0.0636
     32 H           7.1784    3.0418    0.0130 H       1  UNL1        0.0618
     33 H           8.8148    1.3303    0.7378 H       1  UNL1        0.0623
     34 H           5.6672   -1.4700    1.2540 H       1  UNL1        0.0642
     35 H           1.6840   -2.2272   -2.1292 H       1  UNL1        0.0478
     36 H           1.6184   -0.6074   -2.8695 H       1  UNL1        0.0478
     37 H          -0.6098   -1.1640   -3.1434 H       1  UNL1        0.0442
     38 H          -0.6447   -2.3888   -1.8497 H       1  UNL1        0.0442
     39 H          -2.5835   -0.9582   -2.5243 H       1  UNL1        0.0430
     40 H          -2.6058   -1.7815   -0.9731 H       1  UNL1        0.0430
     41 H          -4.4274   -0.2022   -1.3296 H       1  UNL1        0.0325
     42 H          -3.1830    1.5081   -2.6580 H       1  UNL1        0.0269
     43 H          -2.4473    2.0601   -1.0703 H       1  UNL1        0.0269
     44 H          -4.3201    3.3136   -0.7857 H       1  UNL1        0.0278
     45 H          -5.1209    2.5366   -2.1576 H       1  UNL1        0.0278
     46 H          -6.1949    2.3345    0.1264 H       1  UNL1        0.0427
     47 H          -6.1989    0.8918   -0.8843 H       1  UNL1        0.0427
     48 H          -6.7869    0.6706    1.6879 H       1  UNL1        0.0462
     49 H          -6.0872   -0.7274    3.6140 H       1  UNL1        0.0281
     50 H          -4.3368   -0.8488    3.0467 H       1  UNL1        0.0281
     51 H          -5.0587   -1.8631    0.8954 H       1  UNL1        0.0281
     52 H          -6.8191   -1.8150    1.4901 H       1  UNL1        0.0281
     53 H          -2.8614    1.0353    0.9185 H       1  UNL1        0.0430
     54 H          -3.4578   -0.6435    1.0839 H       1  UNL1        0.0430
     55 H          -1.2145   -0.5603    0.9163 H       1  UNL1        0.0442
     56 H          -0.4432   -1.9579    0.0817 H       1  UNL1        0.0442
     57 H           0.8752    0.7637    0.5745 H       1  UNL1        0.0478
     58 H           1.2468   -0.8272    1.2825 H       1  UNL1        0.0478
@<TRIPOS>BOND
     1     1     2    2
     2     2     3   am
     3     3     4    1
     4     4     5   ar
     5     5     6   ar
     6     6     7   ar
     7     7     8   ar
     8     8     9    1
     9     9    10    1
    10     9    11    1
    11     9    12    1
    12     8    13   ar
    13     2    14   am
    14    14    15    1
    15    15    16    1
    16    16    17    1
    17    17    18    1
    18    18    19    1
    19    19    20    1
    20    20    21    1
    21    21    22    1
    22    22    23    1
    23    23    24    1
    24    24    25    1
    25    25    26    1
    26    23    27    1
    27    17    28    1
    28    28    29    1
    29    13     4   ar
    30    29    14    1
    31    27    19    1
    32    26    24    1
    33     3    30    1
    34     5    31    1
    35     6    32    1
    36     7    33    1
    37    13    34    1
    38    15    35    1
    39    15    36    1
    40    16    37    1
    41    16    38    1
    42    18    39    1
    43    18    40    1
    44    19    41    1
    45    20    42    1
    46    20    43    1
    47    21    44    1
    48    21    45    1
    49    22    46    1
    50    22    47    1
    51    24    48    1
    52    25    49    1
    53    25    50    1
    54    26    51    1
    55    26    52    1
    56    27    53    1
    57    27    54    1
    58    28    55    1
    59    28    56    1
    60    29    57    1
    61    29    58    1
