
     RDKit          3D

 58 61  0  0  0  0  0  0  0  0999 V2000
    3.8496   -0.5859   -1.6478 O   0  0  0  0  0  0  0  0  0  0  0  0
    3.0700   -0.3674   -0.6885 C   0  0  0  0  0  0  0  0  0  0  0  0
    3.6465    0.1751    0.5078 N   0  0  0  0  0  0  0  0  0  0  0  0
    5.0349    0.4484    0.5800 C   0  0  0  0  0  0  0  0  0  0  0  0
    5.4973    1.7168    0.2345 C   0  0  0  0  0  0  0  0  0  0  0  0
    6.8141    2.0516    0.2810 C   0  0  0  0  0  0  0  0  0  0  0  0
    7.7473    1.1227    0.6801 C   0  0  0  0  0  0  0  0  0  0  0  0
    7.3322   -0.1662    1.0372 C   0  0  0  0  0  0  0  0  0  0  0  0
    8.3192   -1.1739    1.4693 C   0  0  0  0  0  0  0  0  0  0  0  0
    8.7560   -1.8526    0.3322 F   0  0  0  0  0  0  0  0  0  0  0  0
    9.3829   -0.4715    2.0334 F   0  0  0  0  0  0  0  0  0  0  0  0
    7.7446   -2.0557    2.3643 F   0  0  0  0  0  0  0  0  0  0  0  0
    5.9695   -0.4764    0.9780 C   0  0  0  0  0  0  0  0  0  0  0  0
    1.6653   -0.6517   -0.7923 N   0  0  0  0  0  0  0  0  0  0  0  0
    1.2036   -1.2217   -2.0338 C   0  0  0  0  0  0  0  0  0  0  0  0
   -0.2628   -1.3871   -2.1200 C   0  0  0  0  0  0  0  0  0  0  0  0
   -0.9798   -0.4396   -1.2298 N   0  0  0  0  0  0  0  0  0  0  0  0
   -2.3584   -0.7592   -1.4220 C   0  0  0  0  0  0  0  0  0  0  0  0
   -3.3956    0.1650   -0.9470 C   0  0  2  0  0  0  0  0  0  0  0  0
   -3.3031    1.5511   -1.5597 C   0  0  0  0  0  0  0  0  0  0  0  0
   -4.5610    2.2955   -1.2077 C   0  0  0  0  0  0  0  0  0  0  0  0
   -5.4977    1.5596   -0.3151 C   0  0  0  0  0  0  0  0  0  0  0  0
   -4.8911    0.8839    0.7677 N   0  0  0  0  0  0  0  0  0  0  0  0
   -5.7684    0.1871    1.6090 C   0  0  0  0  0  0  0  0  0  0  0  0
   -5.3810   -0.6218    2.7692 C   0  0  0  0  0  0  0  0  0  0  0  0
   -5.8115   -1.3198    1.4773 C   0  0  0  0  0  0  0  0  0  0  0  0
   -3.5950    0.3011    0.5227 C   0  0  0  0  0  0  0  0  0  0  0  0
   -0.5501   -0.8293    0.1099 C   0  0  0  0  0  0  0  0  0  0  0  0
    0.8628   -0.3330    0.3448 C   0  0  0  0  0  0  0  0  0  0  0  0
    3.0159    0.3682    1.3428 H   0  0  0  0  0  0  0  0  0  0  0  0
    4.7608    2.4427   -0.0778 H   0  0  0  0  0  0  0  0  0  0  0  0
    7.1784    3.0418    0.0130 H   0  0  0  0  0  0  0  0  0  0  0  0
    8.8148    1.3303    0.7378 H   0  0  0  0  0  0  0  0  0  0  0  0
    5.6672   -1.4700    1.2540 H   0  0  0  0  0  0  0  0  0  0  0  0
    1.6840   -2.2272   -2.1292 H   0  0  0  0  0  0  0  0  0  0  0  0
    1.6184   -0.6074   -2.8695 H   0  0  0  0  0  0  0  0  0  0  0  0
   -0.6098   -1.1640   -3.1434 H   0  0  0  0  0  0  0  0  0  0  0  0
   -0.6447   -2.3888   -1.8497 H   0  0  0  0  0  0  0  0  0  0  0  0
   -2.5835   -0.9582   -2.5243 H   0  0  0  0  0  0  0  0  0  0  0  0
   -2.6058   -1.7815   -0.9731 H   0  0  0  0  0  0  0  0  0  0  0  0
   -4.4274   -0.2022   -1.3296 H   0  0  0  0  0  0  0  0  0  0  0  0
   -3.1830    1.5081   -2.6580 H   0  0  0  0  0  0  0  0  0  0  0  0
   -2.4473    2.0601   -1.0703 H   0  0  0  0  0  0  0  0  0  0  0  0
   -4.3201    3.3136   -0.7857 H   0  0  0  0  0  0  0  0  0  0  0  0
   -5.1209    2.5366   -2.1576 H   0  0  0  0  0  0  0  0  0  0  0  0
   -6.1949    2.3345    0.1264 H   0  0  0  0  0  0  0  0  0  0  0  0
   -6.1989    0.8918   -0.8843 H   0  0  0  0  0  0  0  0  0  0  0  0
   -6.7869    0.6706    1.6879 H   0  0  0  0  0  0  0  0  0  0  0  0
   -6.0872   -0.7274    3.6140 H   0  0  0  0  0  0  0  0  0  0  0  0
   -4.3368   -0.8488    3.0467 H   0  0  0  0  0  0  0  0  0  0  0  0
   -5.0587   -1.8631    0.8954 H   0  0  0  0  0  0  0  0  0  0  0  0
   -6.8191   -1.8150    1.4901 H   0  0  0  0  0  0  0  0  0  0  0  0
   -2.8614    1.0353    0.9185 H   0  0  0  0  0  0  0  0  0  0  0  0
   -3.4578   -0.6435    1.0839 H   0  0  0  0  0  0  0  0  0  0  0  0
   -1.2145   -0.5603    0.9163 H   0  0  0  0  0  0  0  0  0  0  0  0
   -0.4432   -1.9579    0.0817 H   0  0  0  0  0  0  0  0  0  0  0  0
    0.8752    0.7637    0.5745 H   0  0  0  0  0  0  0  0  0  0  0  0
    1.2468   -0.8272    1.2825 H   0  0  0  0  0  0  0  0  0  0  0  0
  1  2  2  0
  2  3  1  0
  3  4  1  0
  4  5  2  0
  5  6  1  0
  6  7  2  0
  7  8  1  0
  8  9  1  0
  9 10  1  0
  9 11  1  0
  9 12  1  0
  8 13  2  0
  2 14  1  0
 14 15  1  0
 15 16  1  0
 16 17  1  0
 17 18  1  0
 18 19  1  0
 19 20  1  0
 20 21  1  0
 21 22  1  0
 22 23  1  0
 23 24  1  0
 24 25  1  0
 25 26  1  0
 23 27  1  0
 17 28  1  0
 28 29  1  0
 13  4  1  0
 29 14  1  0
 27 19  1  0
 26 24  1  0
  3 30  1  0
  5 31  1  0
  6 32  1  0
  7 33  1  0
 13 34  1  0
 15 35  1  0
 15 36  1  0
 16 37  1  0
 16 38  1  0
 18 39  1  0
 18 40  1  0
 19 41  1  6
 20 42  1  0
 20 43  1  0
 21 44  1  0
 21 45  1  0
 22 46  1  0
 22 47  1  0
 24 48  1  0
 25 49  1  0
 25 50  1  0
 26 51  1  0
 26 52  1  0
 27 53  1  0
 27 54  1  0
 28 55  1  0
 28 56  1  0
 29 57  1  0
 29 58  1  0
M  END
$$$$
