@<TRIPOS>MOLECULE
*****
 50 54 0 0 0
SMALL
GASTEIGER

@<TRIPOS>ATOM
      1 CL          7.9159    4.0389   -0.1039 Cl      1  UNL1       -0.0835
      2 C           6.6479    2.8257    0.0429 C.ar    1  UNL1        0.0410
      3 C           6.3640    2.0260   -1.0434 C.ar    1  UNL1       -0.0427
      4 C           5.3872    1.0838   -0.9465 C.ar    1  UNL1       -0.0497
      5 C           4.6774    0.9178    0.2231 C.ar    1  UNL1        0.0174
      6 C           3.6321   -0.1193    0.2653 C.ar    1  UNL1        0.1358
      7 C           2.8609   -0.3736    1.3796 C.ar    1  UNL1       -0.0152
      8 C           1.9976   -1.3988    1.0569 C.ar    1  UNL1       -0.0122
      9 C           2.2820   -1.7273   -0.2491 C.ar    1  UNL1        0.1711
     10 C           1.6379   -2.7584   -1.0544 C.ar    1  UNL1        0.1811
     11 N           2.2176   -3.7931   -1.6875 N.ar    1  UNL1       -0.2328
     12 C           1.3118   -4.5311   -2.3273 C.ar    1  UNL1        0.0465
     13 C           0.0825   -3.9506   -2.1010 C.ar    1  UNL1        0.0299
     14 N           0.3246   -2.8705   -1.3192 N.ar    1  UNL1       -0.2970
     15 C          -0.6350   -1.9375   -0.8105 C.ar    1  UNL1        0.0482
     16 C          -1.3148   -2.1705    0.3642 C.ar    1  UNL1       -0.0361
     17 C          -2.2572   -1.2682    0.8768 C.ar    1  UNL1       -0.0387
     18 C          -2.5398   -0.1033    0.2162 C.ar    1  UNL1        0.0299
     19 N          -3.4849    0.8225    0.7214 N.pl3   1  UNL1       -0.3275
     20 C          -3.8822    2.0031   -0.0652 C.3     1  UNL1        0.0248
     21 C          -5.2556    2.3753    0.4534 C.3     1  UNL1        0.0117
     22 N          -6.0820    1.2405    0.7278 N.3     1  UNL1       -0.3130
     23 C          -5.5829    0.3492    1.7344 C.3     1  UNL1        0.0117
     24 C          -4.1106    0.6952    2.0010 C.3     1  UNL1        0.0248
     25 C          -1.8530    0.1404   -0.9783 C.ar    1  UNL1       -0.0387
     26 C          -0.9276   -0.7606   -1.4680 C.ar    1  UNL1       -0.0361
     27 O           3.2516   -0.9383   -0.6553 O.2     1  UNL1       -0.4518
     28 C           4.9600    1.7105    1.2975 C.ar    1  UNL1       -0.0497
     29 C           5.9524    2.6751    1.2145 C.ar    1  UNL1       -0.0427
     30 H           6.9264    2.1615   -1.9620 H       1  UNL1        0.0632
     31 H           5.1893    0.4697   -1.8241 H       1  UNL1        0.0625
     32 H           2.9472    0.1624    2.3310 H       1  UNL1        0.0656
     33 H           1.2547   -1.8394    1.7155 H       1  UNL1        0.0657
     34 H           1.4945   -5.4180   -2.9148 H       1  UNL1        0.0845
     35 H          -0.9043   -4.2575   -2.4540 H       1  UNL1        0.0829
     36 H          -1.0967   -3.1043    0.9058 H       1  UNL1        0.0639
     37 H          -2.7546   -1.5111    1.7968 H       1  UNL1        0.0637
     38 H          -3.9926    1.6782   -1.1109 H       1  UNL1        0.0476
     39 H          -3.2046    2.8435    0.0687 H       1  UNL1        0.0476
     40 H          -5.7596    2.9404   -0.3748 H       1  UNL1        0.0439
     41 H          -5.1976    3.0726    1.2986 H       1  UNL1        0.0439
     42 H          -7.0340    1.5941    0.9644 H       1  UNL1        0.1220
     43 H          -5.6064   -0.7013    1.4018 H       1  UNL1        0.0439
     44 H          -6.1472    0.5303    2.6730 H       1  UNL1        0.0439
     45 H          -3.6419    0.0176    2.7111 H       1  UNL1        0.0476
     46 H          -4.1696    1.7364    2.4388 H       1  UNL1        0.0476
     47 H          -2.0923    1.0661   -1.4807 H       1  UNL1        0.0637
     48 H          -0.4010   -0.5597   -2.3968 H       1  UNL1        0.0639
     49 H           4.4072    1.5889    2.2246 H       1  UNL1        0.0625
     50 H           6.2052    3.3267    2.0539 H       1  UNL1        0.0632
@<TRIPOS>BOND
     1     1     2    1
     2     2     3   ar
     3     3     4   ar
     4     4     5   ar
     5     5     6    1
     6     6     7   ar
     7     7     8   ar
     8     8     9   ar
     9     9    10    1
    10    10    11   ar
    11    11    12   ar
    12    12    13   ar
    13    13    14   ar
    14    14    15    1
    15    15    16   ar
    16    16    17   ar
    17    17    18   ar
    18    18    19    1
    19    19    20    1
    20    20    21    1
    21    21    22    1
    22    22    23    1
    23    23    24    1
    24    18    25   ar
    25    25    26   ar
    26     9    27   ar
    27     5    28   ar
    28    28    29   ar
    29    29     2   ar
    30    27     6   ar
    31    14    10   ar
    32    26    15   ar
    33    24    19    1
    34     3    30    1
    35     4    31    1
    36     7    32    1
    37     8    33    1
    38    12    34    1
    39    13    35    1
    40    16    36    1
    41    17    37    1
    42    20    38    1
    43    20    39    1
    44    21    40    1
    45    21    41    1
    46    22    42    1
    47    23    43    1
    48    23    44    1
    49    24    45    1
    50    24    46    1
    51    25    47    1
    52    26    48    1
    53    28    49    1
    54    29    50    1
