@<TRIPOS>MOLECULE
*****
 27 30 0 0 0
SMALL
GASTEIGER

@<TRIPOS>ATOM
      1 O           0.8520    3.4217   -0.8152 O.2     1  UNL1       -0.2833
      2 C           0.9246    2.2047   -0.5283 C.2     1  UNL1        0.2306
      3 C           2.1608    1.4500   -0.4189 C.ar    1  UNL1        0.0493
      4 C           3.4992    1.7222   -0.5610 C.ar    1  UNL1       -0.0488
      5 C           4.4593    0.7549   -0.3849 C.ar    1  UNL1       -0.0610
      6 C           4.0797   -0.5141   -0.0595 C.ar    1  UNL1       -0.0598
      7 C           2.7664   -0.8227    0.0899 C.ar    1  UNL1       -0.0370
      8 C           1.7868    0.1523   -0.0870 C.ar    1  UNL1        0.0625
      9 N           0.3622    0.0684    0.0150 N.ar    1  UNL1       -0.2571
     10 C          -0.1705    1.2819   -0.2446 C.ar    1  UNL1        0.1895
     11 N          -1.5183    1.4220   -0.2006 N.ar    1  UNL1       -0.2254
     12 C          -2.3354    0.3904    0.0932 C.ar    1  UNL1        0.0786
     13 C          -3.7046    0.5146    0.1423 C.ar    1  UNL1       -0.0355
     14 C          -4.5552   -0.5287    0.4407 C.ar    1  UNL1       -0.0597
     15 C          -3.9809   -1.7702    0.7047 C.ar    1  UNL1       -0.0609
     16 C          -2.6088   -1.9180    0.6611 C.ar    1  UNL1       -0.0473
     17 C          -1.7943   -0.8410    0.3566 C.ar    1  UNL1        0.0653
     18 C          -0.4063   -0.9917    0.3128 C.ar    1  UNL1        0.2666
     19 O           0.0663   -2.1404    0.5604 O.2     1  UNL1       -0.2666
     20 H           3.7919    2.7332   -0.8197 H       1  UNL1        0.0625
     21 H           5.5090    0.9703   -0.4968 H       1  UNL1        0.0618
     22 H           4.8308   -1.2834    0.0813 H       1  UNL1        0.0618
     23 H           2.5034   -1.8372    0.3477 H       1  UNL1        0.0638
     24 H          -4.1535    1.4811   -0.0631 H       1  UNL1        0.0639
     25 H          -5.6354   -0.4217    0.4773 H       1  UNL1        0.0618
     26 H          -4.6057   -2.6423    0.9492 H       1  UNL1        0.0618
     27 H          -2.1233   -2.8558    0.8575 H       1  UNL1        0.0626
@<TRIPOS>BOND
     1     1     2    2
     2     2     3    1
     3     3     4   ar
     4     4     5   ar
     5     5     6   ar
     6     6     7   ar
     7     7     8   ar
     8     8     9    1
     9     9    10   ar
    10    10    11   ar
    11    11    12   ar
    12    12    13   ar
    13    13    14   ar
    14    14    15   ar
    15    15    16   ar
    16    16    17   ar
    17    17    18   ar
    18    18    19    2
    19    10     2    1
    20    17    12   ar
    21     8     3   ar
    22    18     9   ar
    23     4    20    1
    24     5    21    1
    25     6    22    1
    26     7    23    1
    27    13    24    1
    28    14    25    1
    29    15    26    1
    30    16    27    1
