@<TRIPOS>MOLECULE
*****
 98 101 0 0 0
SMALL
GASTEIGER

@<TRIPOS>ATOM
      1 C           9.7695   -0.2337   -2.2192 C.3     1  UNL1       -0.0567
      2 C           9.9178   -0.9636   -0.9039 C.3     1  UNL1        0.0021
      3 C          11.1074   -0.4798   -0.1260 C.3     1  UNL1       -0.0567
      4 C           8.7040   -0.7623   -0.0872 C.ar    1  UNL1        0.0812
      5 N           7.7066   -1.3692    0.3075 N.ar    1  UNL1       -0.2471
      6 C           6.7390   -0.9586    1.0668 C.ar    1  UNL1        0.0660
      7 C           5.5384   -1.8288    1.4893 C.3     1  UNL1        0.0585
      8 N           4.5048   -1.5653    0.5281 N.am    1  UNL1       -0.2829
      9 C           4.4614   -2.3782   -0.6779 C.3     1  UNL1        0.0050
     10 C           3.5283   -0.5532    0.6994 C.2     1  UNL1        0.3029
     11 O           3.6037    0.1408    1.7452 O.2     1  UNL1       -0.2526
     12 N           2.4772   -0.2607   -0.2072 N.am    1  UNL1       -0.2877
     13 C           1.5555    0.8009    0.0959 C.3     1  UNL1        0.1031
     14 C           0.2190    0.2729    0.5183 C.2     1  UNL1        0.2339
     15 O          -0.0546   -0.9544    0.4747 O.2     1  UNL1       -0.2738
     16 N          -0.8108    1.1260    0.9942 N.am    1  UNL1       -0.3105
     17 C          -2.1387    0.5975    1.4180 C.3     1  UNL1        0.0295
     18 C          -2.1079    0.4222    2.9221 C.3     1  UNL1       -0.0091
     19 C          -1.0499   -0.4696    3.3895 C.ar    1  UNL1       -0.0456
     20 C           0.1898    0.1353    3.6912 C.ar    1  UNL1       -0.0585
     21 C           1.2472   -0.6166    4.1329 C.ar    1  UNL1       -0.0615
     22 C           1.1719   -1.9830    4.3080 C.ar    1  UNL1       -0.0617
     23 C          -0.0343   -2.5822    4.0159 C.ar    1  UNL1       -0.0615
     24 C          -1.1022   -1.8124    3.5682 C.ar    1  UNL1       -0.0585
     25 C          -3.0907    1.5798    0.9250 C.3     1  UNL1       -0.0063
     26 C          -4.5237    1.5629    1.0496 C.3     1  UNL1        0.0756
     27 O          -5.0809    1.5190    2.3276 O.3     1  UNL1       -0.3899
     28 C          -5.3985    0.8245    0.0869 C.3     1  UNL1        0.0561
     29 C          -6.0518   -0.3856    0.5440 C.3     1  UNL1       -0.0067
     30 C          -5.4231   -1.5764    1.0199 C.ar    1  UNL1       -0.0455
     31 C          -4.9449   -2.6217    0.2609 C.ar    1  UNL1       -0.0585
     32 C          -4.3964   -3.7530    0.8114 C.ar    1  UNL1       -0.0615
     33 C          -4.2945   -3.9022    2.1993 C.ar    1  UNL1       -0.0617
     34 C          -4.7604   -2.8818    2.9609 C.ar    1  UNL1       -0.0615
     35 C          -5.3076   -1.7536    2.3888 C.ar    1  UNL1       -0.0585
     36 N          -4.8706    0.8258   -1.2596 N.am    1  UNL1       -0.2755
     37 C          -5.3870    1.6925   -2.2427 C.2     1  UNL1        0.4009
     38 O          -6.3411    2.5194   -2.0074 O.2     1  UNL1       -0.2265
     39 O          -4.8881    1.7119   -3.5529 O.3     1  UNL1       -0.4451
     40 C          -5.3692    2.5627   -4.5435 C.3     1  UNL1        0.1266
     41 C          -6.7989    2.4212   -4.8736 C.ar    1  UNL1        0.0464
     42 C          -7.5070    1.6815   -5.7509 C.ar    1  UNL1        0.0412
     43 N          -8.8016    1.8422   -5.7473 N.ar    1  UNL1       -0.2553
     44 C          -9.4688    2.5551   -5.0752 C.ar    1  UNL1        0.0650
     45 S          -8.1229    3.3807   -4.0247 S.2     1  UNL1       -0.0770
     46 C           1.4395    1.8225   -0.9962 C.3     1  UNL1       -0.0197
     47 C           2.8110    2.4238   -1.2155 C.3     1  UNL1       -0.0605
     48 C           0.8195    1.3279   -2.2564 C.3     1  UNL1       -0.0605
     49 C           6.8401    0.3687    1.5033 C.ar    1  UNL1        0.0002
     50 S           8.3825    0.8852    0.7334 S.2     1  UNL1       -0.0800
     51 H          10.7511    0.2337   -2.4266 H       1  UNL1        0.0236
     52 H           9.4339   -0.9295   -3.0038 H       1  UNL1        0.0236
     53 H           8.9502    0.5193   -2.1218 H       1  UNL1        0.0236
     54 H           9.9545   -2.0429   -1.1457 H       1  UNL1        0.0364
     55 H          11.5519   -1.3017    0.4437 H       1  UNL1        0.0236
     56 H          11.8238    0.0135   -0.8182 H       1  UNL1        0.0236
     57 H          10.7411    0.2749    0.6176 H       1  UNL1        0.0236
     58 H           5.8656   -2.8955    1.4924 H       1  UNL1        0.0530
     59 H           5.2606   -1.5527    2.5047 H       1  UNL1        0.0530
     60 H           5.2235   -3.1793   -0.6683 H       1  UNL1        0.0429
     61 H           3.4558   -2.7822   -0.8281 H       1  UNL1        0.0429
     62 H           4.6845   -1.6987   -1.5510 H       1  UNL1        0.0429
     63 H           2.4286   -0.8474   -1.0706 H       1  UNL1        0.1510
     64 H           1.9376    1.3353    0.9790 H       1  UNL1        0.0598
     65 H          -0.5995    2.1500    1.0335 H       1  UNL1        0.1490
     66 H          -2.2424   -0.3721    0.9594 H       1  UNL1        0.0502
     67 H          -3.0692   -0.0963    3.1919 H       1  UNL1        0.0331
     68 H          -2.1444    1.3647    3.4895 H       1  UNL1        0.0331
     69 H           0.3142    1.1941    3.5779 H       1  UNL1        0.0620
     70 H           2.2213   -0.1593    4.3701 H       1  UNL1        0.0618
     71 H           1.9963   -2.5833    4.6536 H       1  UNL1        0.0618
     72 H          -0.1659   -3.6495    4.1317 H       1  UNL1        0.0618
     73 H          -2.0115   -2.3240    3.3553 H       1  UNL1        0.0620
     74 H          -2.8537    1.7159   -0.1848 H       1  UNL1        0.0309
     75 H          -2.7193    2.5868    1.3296 H       1  UNL1        0.0309
     76 H          -4.7534    2.7210    0.8448 H       1  UNL1        0.0612
     77 H          -4.4591    1.8471    3.0025 H       1  UNL1        0.2099
     78 H          -6.2824    1.5675   -0.0321 H       1  UNL1        0.0528
     79 H          -6.8095   -0.0669    1.3466 H       1  UNL1        0.0332
     80 H          -6.8013   -0.7622   -0.2422 H       1  UNL1        0.0332
     81 H          -5.0101   -2.5356   -0.7864 H       1  UNL1        0.0620
     82 H          -4.0325   -4.5542    0.2009 H       1  UNL1        0.0618
     83 H          -3.8637   -4.7900    2.6374 H       1  UNL1        0.0618
     84 H          -4.6823   -2.9998    4.0472 H       1  UNL1        0.0618
     85 H          -5.6522   -1.0054    3.1069 H       1  UNL1        0.0620
     86 H          -4.0785    0.1823   -1.5644 H       1  UNL1        0.1524
     87 H          -5.1950    3.6287   -4.2066 H       1  UNL1        0.0755
     88 H          -4.7744    2.4429   -5.4775 H       1  UNL1        0.0755
     89 H          -6.9901    0.9738   -6.4367 H       1  UNL1        0.0839
     90 H         -10.4986    2.8897   -4.8523 H       1  UNL1        0.0907
     91 H           0.7989    2.6581   -0.5950 H       1  UNL1        0.0318
     92 H           3.0315    3.1420   -0.4006 H       1  UNL1        0.0233
     93 H           3.6017    1.6551   -1.1932 H       1  UNL1        0.0233
     94 H           2.9062    2.9146   -2.2140 H       1  UNL1        0.0233
     95 H           0.1189    2.1073   -2.6572 H       1  UNL1        0.0233
     96 H           0.2342    0.4063   -2.1689 H       1  UNL1        0.0233
     97 H           1.6209    1.2625   -3.0381 H       1  UNL1        0.0233
     98 H           6.1746    0.9843    2.1531 H       1  UNL1        0.0712
@<TRIPOS>BOND
     1     1     2    1
     2     2     3    1
     3     2     4    1
     4     4     5   ar
     5     5     6   ar
     6     6     7    1
     7     7     8    1
     8     8     9    1
     9     8    10   am
    10    10    11    2
    11    10    12   am
    12    12    13    1
    13    13    14    1
    14    14    15    2
    15    14    16   am
    16    16    17    1
    17    17    18    1
    18    18    19    1
    19    19    20   ar
    20    20    21   ar
    21    21    22   ar
    22    22    23   ar
    23    23    24   ar
    24    17    25    1
    25    25    26    1
    26    26    27    1
    27    26    28    1
    28    28    29    1
    29    29    30    1
    30    30    31   ar
    31    31    32   ar
    32    32    33   ar
    33    33    34   ar
    34    34    35   ar
    35    28    36    1
    36    36    37   am
    37    37    38    2
    38    37    39    1
    39    39    40    1
    40    40    41    1
    41    41    42   ar
    42    42    43   ar
    43    43    44   ar
    44    44    45   ar
    45    13    46    1
    46    46    47    1
    47    46    48    1
    48     6    49   ar
    49    49    50   ar
    50    50     4   ar
    51    24    19   ar
    52    35    30   ar
    53    45    41   ar
    54     1    51    1
    55     1    52    1
    56     1    53    1
    57     2    54    1
    58     3    55    1
    59     3    56    1
    60     3    57    1
    61     7    58    1
    62     7    59    1
    63     9    60    1
    64     9    61    1
    65     9    62    1
    66    12    63    1
    67    13    64    1
    68    16    65    1
    69    17    66    1
    70    18    67    1
    71    18    68    1
    72    20    69    1
    73    21    70    1
    74    22    71    1
    75    23    72    1
    76    24    73    1
    77    25    74    1
    78    25    75    1
    79    26    76    1
    80    27    77    1
    81    28    78    1
    82    29    79    1
    83    29    80    1
    84    31    81    1
    85    32    82    1
    86    33    83    1
    87    34    84    1
    88    35    85    1
    89    36    86    1
    90    40    87    1
    91    40    88    1
    92    42    89    1
    93    44    90    1
    94    46    91    1
    95    47    92    1
    96    47    93    1
    97    47    94    1
    98    48    95    1
    99    48    96    1
   100    48    97    1
   101    49    98    1
