@<TRIPOS>MOLECULE
*****
 126 129 0 0 0
SMALL
GASTEIGER

@<TRIPOS>ATOM
      1 C           4.1180    6.8436    1.3391 C.3     1  UNK1       -0.0652
      2 C           4.2860    6.2431    2.7287 C.3     1  UNK1       -0.0537
      3 C           3.9731    4.7876    2.7442 C.3     1  UNK1       -0.0243
      4 C           4.8368    3.9908    1.8247 C.3     1  UNK1        0.1202
      5 N           4.4863    2.5749    1.8635 N.am    1  UNK1       -0.3008
      6 C           4.0247    1.8443    0.7403 C.2     1  UNK1        0.2343
      7 O           3.9218    2.4589   -0.3413 O.2     1  UNK1       -0.2738
      8 C           3.6637    0.4080    0.8017 C.3     1  UNK1        0.1047
      9 C           4.9033   -0.4568    0.7629 C.3     1  UNK1        0.0021
     10 C           4.7787   -1.2468   -0.5305 C.3     1  UNK1        0.0769
     11 O           5.4446   -2.4527   -0.4753 O.3     1  UNK1       -0.3704
     12 C           6.3625   -2.6943   -1.4522 C.3     1  UNK1        0.0731
     13 C           6.9366   -4.0573   -1.1719 C.ar    1  UNK1       -0.0213
     14 C           6.3037   -5.1483   -1.7247 C.ar    1  UNK1       -0.0558
     15 C           6.7359   -6.4523   -1.5401 C.ar    1  UNK1       -0.0537
     16 C           7.8731   -6.6384   -0.7490 C.ar    1  UNK1       -0.0179
     17 C           8.3174   -7.9472   -0.5569 C.ar    1  UNK1       -0.0540
     18 C           9.4463   -8.1039    0.2310 C.ar    1  UNK1       -0.0612
     19 C          10.0807   -7.0148    0.7848 C.ar    1  UNK1       -0.0612
     20 C           9.6343   -5.7335    0.5886 C.ar    1  UNK1       -0.0540
     21 C           8.5135   -5.5540   -0.1911 C.ar    1  UNK1       -0.0176
     22 C           8.0538   -4.2474   -0.3951 C.ar    1  UNK1       -0.0487
     23 C           3.2995   -1.3736   -0.5983 C.3     1  UNK1        0.0419
     24 N           2.8363   -0.0538   -0.2736 N.am    1  UNK1       -0.2858
     25 C           1.7757    0.6960   -0.8415 C.2     1  UNK1        0.2368
     26 O           1.5068    1.8151   -0.2939 O.2     1  UNK1       -0.2735
     27 C           0.9238    0.3639   -1.9870 C.3     1  UNK1        0.1019
     28 N          -0.2928    1.2288   -1.9652 N.am    1  UNK1       -0.3022
     29 C          -1.5844    0.7191   -1.7211 C.2     1  UNK1        0.2342
     30 O          -1.5588   -0.5657   -1.5360 O.2     1  UNK1       -0.2738
     31 C          -2.8501    1.4229   -1.6590 C.3     1  UNK1        0.1022
     32 N          -3.9114    0.4299   -1.4819 N.am    1  UNK1       -0.3022
     33 C          -4.4434    0.0329   -0.2429 C.2     1  UNK1        0.2340
     34 O          -4.0760    0.4593    0.8626 O.2     1  UNK1       -0.2738
     35 C          -5.5528   -0.9947   -0.2403 C.3     1  UNK1        0.0999
     36 C          -5.1624   -2.2251   -0.9849 C.3     1  UNK1       -0.0159
     37 C          -6.2932   -3.2143   -0.9760 C.3     1  UNK1        0.0469
     38 C          -7.4875   -2.7191   -1.6620 C.2     1  UNK1        0.3048
     39 O          -7.5005   -1.6510   -2.2926 O.2     1  UNK1       -0.2510
     40 O          -8.6999   -3.4296   -1.6467 O.3     1  UNK1       -0.4806
     41 N          -5.9505   -1.2689    1.1348 N.am    1  UNK1       -0.3025
     42 C          -7.2612   -1.0185    1.5976 C.2     1  UNK1        0.2345
     43 O          -8.0524   -0.5418    0.6935 O.2     1  UNK1       -0.2737
     44 C          -7.7437   -1.2448    2.9498 C.3     1  UNK1        0.1094
     45 C          -7.6671   -2.6521    3.3977 C.3     1  UNK1        0.0716
     46 C          -6.2816   -3.1584    3.4082 C.2     1  UNK1        0.3070
     47 O          -5.9413   -4.0560    2.6055 O.2     1  UNK1       -0.2509
     48 O          -5.3143   -2.6768    4.2864 O.3     1  UNK1       -0.4806
     49 N          -9.1184   -0.7593    3.0989 N.am    1  UNK1       -0.3037
     50 C          -9.4220    0.3229    3.9621 C.2     0  UNK0        0.2105
     51 C         -10.7898    0.8549    4.1500 C.3     0  UNK0        0.0122
     52 O          -8.4324    0.8274    4.5838 O.2     0  UNK0       -0.2761
     53 C          -2.9674    2.5190   -0.6139 C.3     1  UNK1       -0.0141
     54 C          -4.3441    3.1653   -0.6607 C.3     1  UNK1       -0.0481
     55 C          -4.6908    3.7185   -2.0082 C.3     1  UNK1       -0.0527
     56 C          -3.6571    4.5803   -2.6485 C.3     1  UNK1       -0.0530
     57 C          -2.2462    4.2775   -2.2705 C.3     1  UNK1       -0.0527
     58 C          -2.0690    3.7105   -0.9024 C.3     1  UNK1       -0.0481
     59 C           1.5033    0.6541   -3.3366 C.3     1  UNK1       -0.0197
     60 C           2.7655   -0.0405   -3.6923 C.3     1  UNK1       -0.0605
     61 C           1.6128    2.1741   -3.5620 C.3     1  UNK1       -0.0605
     62 C           6.2474    4.0820    2.2346 C.2     1  UNK1        0.3253
     63 O           6.8722    5.1694    2.2723 O.2     1  UNK1       -0.2489
     64 O           6.9716    2.9592    2.6059 O.3     1  UNK1       -0.4793
     65 H           3.2633    6.3821    0.8074 H       1  UNK1        0.0230
     66 H           5.0628    6.7485    0.7652 H       1  UNK1        0.0230
     67 H           3.9338    7.9334    1.4671 H       1  UNK1        0.0230
     68 H           3.5111    6.8044    3.3523 H       1  UNK1        0.0263
     69 H           5.2772    6.5365    3.0972 H       1  UNK1        0.0263
     70 H           3.9879    4.3635    3.7810 H       1  UNK1        0.0288
     71 H           2.8869    4.6998    2.4406 H       1  UNK1        0.0288
     72 H           4.7342    4.4162    0.8167 H       1  UNK1        0.0614
     73 H           4.5814    2.0738    2.7710 H       1  UNK1        0.1496
     74 H           3.1298    0.1519    1.7424 H       1  UNK1        0.0597
     75 H           4.9264   -1.1926    1.5988 H       1  UNK1        0.0313
     76 H           5.8378    0.1048    0.8173 H       1  UNK1        0.0313
     77 H           5.1446   -0.6787   -1.3884 H       1  UNK1        0.0612
     78 H           5.8414   -2.7634   -2.4267 H       1  UNK1        0.0610
     79 H           7.2081   -1.9773   -1.4764 H       1  UNK1        0.0610
     80 H           5.4148   -4.9732   -2.3427 H       1  UNK1        0.0621
     81 H           6.2083   -7.2823   -1.9937 H       1  UNK1        0.0624
     82 H           7.7937   -8.7751   -1.0057 H       1  UNK1        0.0624
     83 H           9.8299   -9.1000    0.4091 H       1  UNK1        0.0618
     84 H          10.9693   -7.1634    1.4038 H       1  UNK1        0.0618
     85 H          10.1051   -4.8593    1.0073 H       1  UNK1        0.0624
     86 H           8.5566   -3.4244    0.0415 H       1  UNK1        0.0627
     87 H           2.9998   -2.0021    0.3153 H       1  UNK1        0.0490
     88 H           2.9039   -1.8281   -1.5040 H       1  UNK1        0.0490
     89 H           0.6447   -0.6948   -1.9266 H       1  UNK1        0.0597
     90 H          -0.1192    2.2174   -2.1538 H       1  UNK1        0.1495
     91 H          -3.1602    1.9793   -2.5973 H       1  UNK1        0.0597
     92 H          -4.3130   -0.0274   -2.3421 H       1  UNK1        0.1495
     93 H          -6.3883   -0.4989   -0.7533 H       1  UNK1        0.0595
     94 H          -4.9529   -1.9220   -2.0414 H       1  UNK1        0.0293
     95 H          -4.2143   -2.6735   -0.6166 H       1  UNK1        0.0293
     96 H          -5.9558   -4.2048   -1.3760 H       1  UNK1        0.0378
     97 H          -6.6146   -3.4568    0.0780 H       1  UNK1        0.0378
     98 H          -9.5723   -2.9140   -1.7616 H       1  UNK1        0.2951
     99 H          -5.2119   -1.6415    1.7505 H       1  UNK1        0.1495
    100 H          -7.0652   -0.6488    3.6353 H       1  UNK1        0.0600
    101 H          -8.1058   -2.6919    4.4392 H       1  UNK1        0.0401
    102 H          -8.3404   -3.3287    2.8118 H       1  UNK1        0.0401
    103 H          -4.3599   -2.5614    3.9729 H       1  UNK1        0.2951
    104 H          -9.8791   -1.2124    2.5652 H       1  UNK1        0.1495
    105 H         -11.1999    1.2856    3.2067 H       0  UNK0        0.0322
    106 H         -11.5083    0.0775    4.4773 H       0  UNK0        0.0322
    107 H         -10.7596    1.6019    4.9757 H       0  UNK0        0.0322
    108 H          -2.7677    2.2042    0.4060 H       1  UNK1        0.0323
    109 H          -4.2588    4.0572    0.0335 H       1  UNK1        0.0269
    110 H          -5.1593    2.5785   -0.2761 H       1  UNK1        0.0269
    111 H          -4.9939    2.8617   -2.6472 H       1  UNK1        0.0265
    112 H          -5.6492    4.2986   -1.8577 H       1  UNK1        0.0265
    113 H          -3.7917    4.5268   -3.7500 H       1  UNK1        0.0265
    114 H          -3.8741    5.6367   -2.3799 H       1  UNK1        0.0265
    115 H          -1.8541    3.5441   -3.0022 H       1  UNK1        0.0265
    116 H          -1.5982    5.1739   -2.3487 H       1  UNK1        0.0265
    117 H          -2.4706    4.5214   -0.1994 H       1  UNK1        0.0269
    118 H          -1.0387    3.6016   -0.5967 H       1  UNK1        0.0269
    119 H           0.7357    0.3338   -4.1050 H       1  UNK1        0.0318
    120 H           2.5360   -1.1405   -3.7360 H       1  UNK1        0.0233
    121 H           3.1225    0.1940   -4.7214 H       1  UNK1        0.0233
    122 H           3.6079    0.1474   -3.0240 H       1  UNK1        0.0233
    123 H           0.7213    2.5983   -4.0212 H       1  UNK1        0.0233
    124 H           2.4644    2.3294   -4.2715 H       1  UNK1        0.0233
    125 H           1.8105    2.6989   -2.6059 H       1  UNK1        0.0233
    126 H           7.7789    3.0120    3.2360 H       1  UNK1        0.2951
@<TRIPOS>BOND
     1     1     2    1
     2     2     3    1
     3     3     4    1
     4     4     5    1
     5     5     6   am
     6     6     7    2
     7     6     8    1
     8     8     9    1
     9     9    10    1
    10    10    11    1
    11    11    12    1
    12    12    13    1
    13    13    14   ar
    14    14    15   ar
    15    15    16   ar
    16    16    17   ar
    17    17    18   ar
    18    18    19   ar
    19    19    20   ar
    20    20    21   ar
    21    21    22   ar
    22    10    23    1
    23    23    24    1
    24    24    25   am
    25    25    26    2
    26    25    27    1
    27    27    28    1
    28    28    29   am
    29    29    30    2
    30    29    31    1
    31    31    32    1
    32    32    33   am
    33    33    34    2
    34    33    35    1
    35    35    36    1
    36    36    37    1
    37    37    38    1
    38    38    39    2
    39    38    40    1
    40    35    41    1
    41    41    42   am
    42    42    43    2
    43    42    44    1
    44    44    45    1
    45    45    46    1
    46    46    47    2
    47    46    48    1
    48    44    49    1
    49    49    50   am
    50    50    51    1
    51    50    52    2
    52    31    53    1
    53    53    54    1
    54    54    55    1
    55    55    56    1
    56    56    57    1
    57    57    58    1
    58    27    59    1
    59    59    60    1
    60    59    61    1
    61     4    62    1
    62    62    63    2
    63    62    64    1
    64    24     8    1
    65    58    53    1
    66    22    13   ar
    67    21    16   ar
    68     1    65    1
    69     1    66    1
    70     1    67    1
    71     2    68    1
    72     2    69    1
    73     3    70    1
    74     3    71    1
    75     4    72    1
    76     5    73    1
    77     8    74    1
    78     9    75    1
    79     9    76    1
    80    10    77    1
    81    12    78    1
    82    12    79    1
    83    14    80    1
    84    15    81    1
    85    17    82    1
    86    18    83    1
    87    19    84    1
    88    20    85    1
    89    22    86    1
    90    23    87    1
    91    23    88    1
    92    27    89    1
    93    28    90    1
    94    31    91    1
    95    32    92    1
    96    35    93    1
    97    36    94    1
    98    36    95    1
    99    37    96    1
   100    37    97    1
   101    40    98    1
   102    41    99    1
   103    44   100    1
   104    45   101    1
   105    45   102    1
   106    48   103    1
   107    49   104    1
   108    51   105    1
   109    51   106    1
   110    51   107    1
   111    53   108    1
   112    54   109    1
   113    54   110    1
   114    55   111    1
   115    55   112    1
   116    56   113    1
   117    56   114    1
   118    57   115    1
   119    57   116    1
   120    58   117    1
   121    58   118    1
   122    59   119    1
   123    60   120    1
   124    60   121    1
   125    60   122    1
   126    61   123    1
   127    61   124    1
   128    61   125    1
   129    64   126    1
