
     RDKit          3D

 78 84  0  0  0  0  0  0  0  0999 V2000
   -8.0367   -3.4903   -2.6724 C   0  0  0  0  0  0  0  0  0  0  0  0
   -7.5287   -2.2349   -3.0592 O   0  0  0  0  0  0  0  0  0  0  0  0
   -6.9853   -1.3974   -2.0876 C   0  0  0  0  0  0  0  0  0  0  0  0
   -6.9456   -1.7951   -0.7589 C   0  0  0  0  0  0  0  0  0  0  0  0
   -6.4105   -0.9752    0.2118 C   0  0  0  0  0  0  0  0  0  0  0  0
   -5.8916    0.2695   -0.0796 C   0  0  0  0  0  0  0  0  0  0  0  0
   -5.3472    1.0932    0.9429 N   0  0  0  0  0  0  0  0  0  0  0  0
   -6.0113    1.3834    2.0582 N   0  0  0  0  0  0  0  0  0  0  0  0
   -5.2733    2.1727    2.8464 C   0  0  0  0  0  0  0  0  0  0  0  0
   -5.7159    2.6803    4.1634 C   0  0  0  0  0  0  0  0  0  0  0  0
   -6.9734    3.4780    3.9896 C   0  0  0  0  0  0  0  0  0  0  0  0
   -5.9890    1.5286    5.1062 C   0  0  0  0  0  0  0  0  0  0  0  0
   -4.0895    2.3646    2.1519 C   0  0  0  0  0  0  0  0  0  0  0  0
   -4.1443    1.6819    0.9551 C   0  0  0  0  0  0  0  0  0  0  0  0
   -3.1803    1.5837   -0.0732 N   0  0  0  0  0  0  0  0  0  0  0  0
   -2.1901    0.5294   -0.0727 C   0  0  0  0  0  0  0  0  0  0  0  0
   -2.2584   -0.2556    0.8720 O   0  0  0  0  0  0  0  0  0  0  0  0
   -1.2200    0.4329   -1.1029 N   0  0  0  0  0  0  0  0  0  0  0  0
   -0.2297   -0.5838   -1.1634 C   0  0  0  0  0  0  0  0  0  0  0  0
   -0.1682   -1.6589   -0.3318 C   0  0  0  0  0  0  0  0  0  0  0  0
    0.8530   -2.6093   -0.4366 C   0  0  0  0  0  0  0  0  0  0  0  0
    1.8509   -2.5029   -1.3907 C   0  0  0  0  0  0  0  0  0  0  0  0
    2.8541   -3.4597   -1.4736 O   0  0  0  0  0  0  0  0  0  0  0  0
    4.1685   -3.1294   -1.1555 C   0  0  0  0  0  0  0  0  0  0  0  0
    4.5137   -1.8876   -0.6754 C   0  0  0  0  0  0  0  0  0  0  0  0
    5.8406   -1.5773   -0.3571 C   0  0  0  0  0  0  0  0  0  0  0  0
    6.1287   -0.2904    0.1144 N   0  0  0  0  0  0  0  0  0  0  0  0
    7.4204    0.1233    0.5304 C   0  0  0  0  0  0  0  0  0  0  0  0
    8.4391   -0.7131    0.8653 C   0  0  0  0  0  0  0  0  0  0  0  0
    9.6852   -0.2213    1.2534 C   0  0  0  0  0  0  0  0  0  0  0  0
    9.9310    1.1219    1.3127 C   0  0  0  0  0  0  0  0  0  0  0  0
   10.9789    1.9019    1.6343 N   0  0  0  0  0  0  0  0  0  0  0  0
   10.6575    3.1765    1.5149 N   0  0  0  0  0  0  0  0  0  0  0  0
    9.3821    3.2955    1.1089 C   0  0  0  0  0  0  0  0  0  0  0  0
    8.9057    1.9911    0.9757 C   0  0  0  0  0  0  0  0  0  0  0  0
    7.6895    1.5029    0.5968 C   0  0  0  0  0  0  0  0  0  0  0  0
    6.7584   -2.5393   -0.5392 N   0  0  0  0  0  0  0  0  0  0  0  0
    6.4273   -3.7534   -1.0073 C   0  0  0  0  0  0  0  0  0  0  0  0
    5.1579   -4.0619   -1.3160 N   0  0  0  0  0  0  0  0  0  0  0  0
    1.7704   -1.4101   -2.2244 C   0  0  0  0  0  0  0  0  0  0  0  0
    2.7435   -1.2882   -3.2078 C   0  0  0  0  0  0  0  0  0  0  0  0
    2.7634   -0.2424   -4.1170 C   0  0  0  0  0  0  0  0  0  0  0  0
    1.7812    0.6874   -4.0232 C   0  0  0  0  0  0  0  0  0  0  0  0
    0.8013    0.5729   -3.0435 C   0  0  0  0  0  0  0  0  0  0  0  0
    0.7704   -0.4575   -2.1388 C   0  0  0  0  0  0  0  0  0  0  0  0
   -5.9351    0.6615   -1.4158 C   0  0  0  0  0  0  0  0  0  0  0  0
   -6.4696   -0.1562   -2.3886 C   0  0  0  0  0  0  0  0  0  0  0  0
   -8.9594   -3.4405   -2.0931 H   0  0  0  0  0  0  0  0  0  0  0  0
   -8.1949   -4.0845   -3.6121 H   0  0  0  0  0  0  0  0  0  0  0  0
   -7.2809   -4.0803   -2.0934 H   0  0  0  0  0  0  0  0  0  0  0  0
   -7.3557   -2.7828   -0.5195 H   0  0  0  0  0  0  0  0  0  0  0  0
   -6.4006   -1.3304    1.2455 H   0  0  0  0  0  0  0  0  0  0  0  0
   -4.9032    3.3183    4.5646 H   0  0  0  0  0  0  0  0  0  0  0  0
   -6.8664    4.2648    3.2245 H   0  0  0  0  0  0  0  0  0  0  0  0
   -7.2965    3.9026    4.9764 H   0  0  0  0  0  0  0  0  0  0  0  0
   -7.8053    2.8167    3.6738 H   0  0  0  0  0  0  0  0  0  0  0  0
   -5.0479    1.3843    5.7070 H   0  0  0  0  0  0  0  0  0  0  0  0
   -6.7662    1.8667    5.8297 H   0  0  0  0  0  0  0  0  0  0  0  0
   -6.2438    0.5927    4.5929 H   0  0  0  0  0  0  0  0  0  0  0  0
   -3.2737    2.9544    2.5078 H   0  0  0  0  0  0  0  0  0  0  0  0
   -3.1383    2.2563   -0.8642 H   0  0  0  0  0  0  0  0  0  0  0  0
   -1.2968    1.1904   -1.8476 H   0  0  0  0  0  0  0  0  0  0  0  0
   -0.9183   -1.7977    0.4206 H   0  0  0  0  0  0  0  0  0  0  0  0
    0.8755   -3.4422    0.2294 H   0  0  0  0  0  0  0  0  0  0  0  0
    3.7456   -1.1441   -0.5363 H   0  0  0  0  0  0  0  0  0  0  0  0
    5.3210    0.4098    0.1590 H   0  0  0  0  0  0  0  0  0  0  0  0
    8.3431   -1.7672    0.8603 H   0  0  0  0  0  0  0  0  0  0  0  0
   10.4898   -0.8977    1.5176 H   0  0  0  0  0  0  0  0  0  0  0  0
   11.8954    1.5053    1.9304 H   0  0  0  0  0  0  0  0  0  0  0  0
    8.8288    4.2094    0.9208 H   0  0  0  0  0  0  0  0  0  0  0  0
    6.8786    2.1752    0.3303 H   0  0  0  0  0  0  0  0  0  0  0  0
    7.2317   -4.4728   -1.1243 H   0  0  0  0  0  0  0  0  0  0  0  0
    3.4957   -2.0741   -3.2544 H   0  0  0  0  0  0  0  0  0  0  0  0
    3.5598   -0.2310   -4.8451 H   0  0  0  0  0  0  0  0  0  0  0  0
    1.7632    1.5321   -4.7249 H   0  0  0  0  0  0  0  0  0  0  0  0
    0.0621    1.3386   -3.0249 H   0  0  0  0  0  0  0  0  0  0  0  0
   -5.5244    1.6384   -1.6234 H   0  0  0  0  0  0  0  0  0  0  0  0
   -6.4965    0.1601   -3.4191 H   0  0  0  0  0  0  0  0  0  0  0  0
  1  2  1  0
  2  3  1  0
  3  4  2  0
  4  5  1  0
  5  6  2  0
  6  7  1  0
  7  8  1  0
  8  9  2  0
  9 10  1  0
 10 11  1  0
 10 12  1  0
  9 13  1  0
 13 14  2  0
 14 15  1  0
 15 16  1  0
 16 17  2  0
 16 18  1  0
 18 19  1  0
 19 20  2  0
 20 21  1  0
 21 22  2  0
 22 23  1  0
 23 24  1  0
 24 25  2  0
 25 26  1  0
 26 27  1  0
 27 28  1  0
 28 29  2  0
 29 30  1  0
 30 31  2  0
 31 32  1  0
 32 33  1  0
 33 34  2  0
 34 35  1  0
 35 36  2  0
 26 37  2  0
 37 38  1  0
 38 39  2  0
 22 40  1  0
 40 41  2  0
 41 42  1  0
 42 43  2  0
 43 44  1  0
 44 45  2  0
  6 46  1  0
 46 47  2  0
 47  3  1  0
 14  7  1  0
 45 19  1  0
 39 24  1  0
 45 40  1  0
 36 28  1  0
 35 31  1  0
  1 48  1  0
  1 49  1  0
  1 50  1  0
  4 51  1  0
  5 52  1  0
 10 53  1  0
 11 54  1  0
 11 55  1  0
 11 56  1  0
 12 57  1  0
 12 58  1  0
 12 59  1  0
 13 60  1  0
 15 61  1  0
 18 62  1  0
 20 63  1  0
 21 64  1  0
 25 65  1  0
 27 66  1  0
 29 67  1  0
 30 68  1  0
 32 69  1  0
 34 70  1  0
 36 71  1  0
 38 72  1  0
 41 73  1  0
 42 74  1  0
 43 75  1  0
 44 76  1  0
 46 77  1  0
 47 78  1  0
M  END
$$$$
