@<TRIPOS>MOLECULE
*****
 78 84 0 0 0
SMALL
GASTEIGER

@<TRIPOS>ATOM
      1 C          -8.0367   -3.4903   -2.6724 C.3     1  UNL1        0.0788
      2 O          -7.5287   -2.2349   -3.0592 O.3     1  UNL1       -0.4951
      3 C          -6.9853   -1.3974   -2.0876 C.ar    1  UNL1        0.1202
      4 C          -6.9456   -1.7951   -0.7589 C.ar    1  UNL1       -0.0179
      5 C          -6.4105   -0.9752    0.2118 C.ar    1  UNL1       -0.0327
      6 C          -5.8916    0.2695   -0.0796 C.ar    1  UNL1        0.0677
      7 N          -5.3472    1.0932    0.9429 N.ar    1  UNL1       -0.2181
      8 N          -6.0113    1.3834    2.0582 N.ar    1  UNL1       -0.1694
      9 C          -5.2733    2.1727    2.8464 C.ar    1  UNL1        0.0679
     10 C          -5.7159    2.6803    4.1634 C.3     1  UNL1       -0.0025
     11 C          -6.9734    3.4780    3.9896 C.3     1  UNL1       -0.0572
     12 C          -5.9890    1.5286    5.1062 C.3     1  UNL1       -0.0572
     13 C          -4.0895    2.3646    2.1519 C.ar    1  UNL1        0.0018
     14 C          -4.1443    1.6819    0.9551 C.ar    1  UNL1        0.1299
     15 N          -3.1803    1.5837   -0.0732 N.am    1  UNL1       -0.2538
     16 C          -2.1901    0.5294   -0.0727 C.2     1  UNL1        0.3092
     17 O          -2.2584   -0.2556    0.8720 O.2     1  UNL1       -0.2521
     18 N          -1.2200    0.4329   -1.1029 N.am    1  UNL1       -0.2686
     19 C          -0.2297   -0.5838   -1.1634 C.ar    1  UNL1        0.0427
     20 C          -0.1682   -1.6589   -0.3318 C.ar    1  UNL1       -0.0363
     21 C           0.8530   -2.6093   -0.4366 C.ar    1  UNL1       -0.0169
     22 C           1.8509   -2.5029   -1.3907 C.ar    1  UNL1        0.1381
     23 O           2.8541   -3.4597   -1.4736 O.3     1  UNL1       -0.4373
     24 C           4.1685   -3.1294   -1.1555 C.ar    1  UNL1        0.2252
     25 C           4.5137   -1.8876   -0.6754 C.ar    1  UNL1        0.0405
     26 C           5.8406   -1.5773   -0.3571 C.ar    1  UNL1        0.1297
     27 N           6.1287   -0.2904    0.1144 N.pl3   1  UNL1       -0.2992
     28 C           7.4204    0.1233    0.5304 C.ar    1  UNL1        0.0331
     29 C           8.4391   -0.7131    0.8653 C.ar    1  UNL1       -0.0385
     30 C           9.6852   -0.2213    1.2534 C.ar    1  UNL1       -0.0345
     31 C           9.9310    1.1219    1.3127 C.ar    1  UNL1        0.0658
     32 N          10.9789    1.9019    1.6343 N.ar    1  UNL1       -0.2770
     33 N          10.6575    3.1765    1.5149 N.ar    1  UNL1       -0.1812
     34 C           9.3821    3.2955    1.1089 C.ar    1  UNL1        0.0569
     35 C           8.9057    1.9911    0.9757 C.ar    1  UNL1        0.0212
     36 C           7.6895    1.5029    0.5968 C.ar    1  UNL1       -0.0298
     37 N           6.7584   -2.5393   -0.5392 N.ar    1  UNL1       -0.2204
     38 C           6.4273   -3.7534   -1.0073 C.ar    1  UNL1        0.1219
     39 N           5.1579   -4.0619   -1.3160 N.ar    1  UNL1       -0.2010
     40 C           1.7704   -1.4101   -2.2244 C.ar    1  UNL1        0.0262
     41 C           2.7435   -1.2882   -3.2078 C.ar    1  UNL1       -0.0505
     42 C           2.7634   -0.2424   -4.1170 C.ar    1  UNL1       -0.0611
     43 C           1.7812    0.6874   -4.0232 C.ar    1  UNL1       -0.0611
     44 C           0.8013    0.5729   -3.0435 C.ar    1  UNL1       -0.0521
     45 C           0.7704   -0.4575   -2.1388 C.ar    1  UNL1        0.0069
     46 C          -5.9351    0.6615   -1.4158 C.ar    1  UNL1       -0.0327
     47 C          -6.4696   -0.1562   -2.3886 C.ar    1  UNL1       -0.0179
     48 H          -8.9594   -3.4405   -2.0931 H       1  UNL1        0.0660
     49 H          -8.1949   -4.0845   -3.6121 H       1  UNL1        0.0660
     50 H          -7.2809   -4.0803   -2.0934 H       1  UNL1        0.0660
     51 H          -7.3557   -2.7828   -0.5195 H       1  UNL1        0.0655
     52 H          -6.4006   -1.3304    1.2455 H       1  UNL1        0.0640
     53 H          -4.9032    3.3183    4.5646 H       1  UNL1        0.0359
     54 H          -6.8664    4.2648    3.2245 H       1  UNL1        0.0236
     55 H          -7.2965    3.9026    4.9764 H       1  UNL1        0.0236
     56 H          -7.8053    2.8167    3.6738 H       1  UNL1        0.0236
     57 H          -5.0479    1.3843    5.7070 H       1  UNL1        0.0236
     58 H          -6.7662    1.8667    5.8297 H       1  UNL1        0.0236
     59 H          -6.2438    0.5927    4.5929 H       1  UNL1        0.0236
     60 H          -3.2737    2.9544    2.5078 H       1  UNL1        0.0671
     61 H          -3.1383    2.2563   -0.8642 H       1  UNL1        0.1578
     62 H          -1.2968    1.1904   -1.8476 H       1  UNL1        0.1564
     63 H          -0.9183   -1.7977    0.4206 H       1  UNL1        0.0637
     64 H           0.8755   -3.4422    0.2294 H       1  UNL1        0.0655
     65 H           3.7456   -1.1441   -0.5363 H       1  UNL1        0.0706
     66 H           5.3210    0.4098    0.1590 H       1  UNL1        0.1536
     67 H           8.3431   -1.7672    0.8603 H       1  UNL1        0.0637
     68 H          10.4898   -0.8977    1.5176 H       1  UNL1        0.0639
     69 H          11.8954    1.5053    1.9304 H       1  UNL1        0.1889
     70 H           8.8288    4.2094    0.9208 H       1  UNL1        0.0854
     71 H           6.8786    2.1752    0.3303 H       1  UNL1        0.0643
     72 H           7.2317   -4.4728   -1.1243 H       1  UNL1        0.1049
     73 H           3.4957   -2.0741   -3.2544 H       1  UNL1        0.0625
     74 H           3.5598   -0.2310   -4.8451 H       1  UNL1        0.0618
     75 H           1.7632    1.5321   -4.7249 H       1  UNL1        0.0618
     76 H           0.0621    1.3386   -3.0249 H       1  UNL1        0.0624
     77 H          -5.5244    1.6384   -1.6234 H       1  UNL1        0.0640
     78 H          -6.4965    0.1601   -3.4191 H       1  UNL1        0.0655
@<TRIPOS>BOND
     1     1     2    1
     2     2     3    1
     3     3     4   ar
     4     4     5   ar
     5     5     6   ar
     6     6     7    1
     7     7     8   ar
     8     8     9   ar
     9     9    10    1
    10    10    11    1
    11    10    12    1
    12     9    13   ar
    13    13    14   ar
    14    14    15    1
    15    15    16   am
    16    16    17    2
    17    16    18   am
    18    18    19    1
    19    19    20   ar
    20    20    21   ar
    21    21    22   ar
    22    22    23    1
    23    23    24    1
    24    24    25   ar
    25    25    26   ar
    26    26    27    1
    27    27    28    1
    28    28    29   ar
    29    29    30   ar
    30    30    31   ar
    31    31    32   ar
    32    32    33   ar
    33    33    34   ar
    34    34    35   ar
    35    35    36   ar
    36    26    37   ar
    37    37    38   ar
    38    38    39   ar
    39    22    40   ar
    40    40    41   ar
    41    41    42   ar
    42    42    43   ar
    43    43    44   ar
    44    44    45   ar
    45     6    46   ar
    46    46    47   ar
    47    47     3   ar
    48    14     7   ar
    49    45    19   ar
    50    39    24   ar
    51    45    40   ar
    52    36    28   ar
    53    35    31   ar
    54     1    48    1
    55     1    49    1
    56     1    50    1
    57     4    51    1
    58     5    52    1
    59    10    53    1
    60    11    54    1
    61    11    55    1
    62    11    56    1
    63    12    57    1
    64    12    58    1
    65    12    59    1
    66    13    60    1
    67    15    61    1
    68    18    62    1
    69    20    63    1
    70    21    64    1
    71    25    65    1
    72    27    66    1
    73    29    67    1
    74    30    68    1
    75    32    69    1
    76    34    70    1
    77    36    71    1
    78    38    72    1
    79    41    73    1
    80    42    74    1
    81    43    75    1
    82    44    76    1
    83    46    77    1
    84    47    78    1
