
     RDKit          3D

 32 32  0  0  0  0  0  0  0  0999 V2000
   -1.0144    0.4958    0.3559 C   0  0  1  0  0  0  0  0  0  0  0  0
   -1.0743    1.7940   -0.1976 O   0  0  0  0  0  0  0  0  0  0  0  0
   -1.4826    2.8722    0.5338 C   0  0  0  0  0  0  0  0  0  0  0  0
   -1.4913    4.1800   -0.1951 C   0  0  0  0  0  0  0  0  0  0  0  0
   -1.8122    2.7104    1.7227 O   0  0  0  0  0  0  0  0  0  0  0  0
   -1.9628   -0.4418   -0.2539 C   0  0  0  0  0  0  0  0  0  0  0  0
   -2.8437   -0.9973   -0.9377 O   0  0  0  0  0  0  0  0  0  0  0  0
   -1.8659   -1.7055    0.3149 O   0  0  0  0  0  0  0  0  0  0  0  0
   -2.6253   -2.8216   -0.0374 C   0  0  0  0  0  0  0  0  0  0  0  0
    0.3831    0.0128    0.4250 C   0  0  0  0  0  0  0  0  0  0  0  0
    1.1176    0.1363    1.6134 C   0  0  0  0  0  0  0  0  0  0  0  0
    2.3944   -0.3244    1.6560 C   0  0  0  0  0  0  0  0  0  0  0  0
    3.0565   -0.9216    0.6044 C   0  0  0  0  0  0  0  0  0  0  0  0
    4.3937   -1.3529    0.8031 N   0  0  0  0  0  0  0  0  0  0  0  0
    2.3555   -1.0533   -0.5722 C   0  0  0  0  0  0  0  0  0  0  0  0
    1.0686   -0.5835   -0.5994 C   0  0  0  0  0  0  0  0  0  0  0  0
    0.4233   -0.7530   -1.8826 C   0  0  0  0  0  0  0  0  0  0  0  0
   -0.4929   -0.7275   -2.8906 O   0  0  0  0  0  0  0  0  0  0  0  0
    0.9098   -1.2801   -2.9195 O   0  0  0  0  0  0  0  0  0  0  0  0
   -1.3566    0.6057    1.4292 H   0  0  0  0  0  0  0  0  0  0  0  0
   -0.4992    4.6313   -0.2920 H   0  0  0  0  0  0  0  0  0  0  0  0
   -2.1093    4.8742    0.4441 H   0  0  0  0  0  0  0  0  0  0  0  0
   -2.0533    4.0740   -1.1430 H   0  0  0  0  0  0  0  0  0  0  0  0
   -3.7028   -2.6361    0.1455 H   0  0  0  0  0  0  0  0  0  0  0  0
   -2.2503   -3.6625    0.6176 H   0  0  0  0  0  0  0  0  0  0  0  0
   -2.4365   -3.0979   -1.0745 H   0  0  0  0  0  0  0  0  0  0  0  0
    0.5997    0.6069    2.4463 H   0  0  0  0  0  0  0  0  0  0  0  0
    2.8597   -0.1762    2.6183 H   0  0  0  0  0  0  0  0  0  0  0  0
    4.7621   -2.0406    1.5085 H   0  0  0  0  0  0  0  0  0  0  0  0
    5.0654   -0.9157    0.1548 H   0  0  0  0  0  0  0  0  0  0  0  0
    2.8623   -1.5157   -1.3927 H   0  0  0  0  0  0  0  0  0  0  0  0
   -1.1782    0.0137   -3.0052 H   0  0  0  0  0  0  0  0  0  0  0  0
  1  2  1  0
  2  3  1  0
  3  4  1  0
  3  5  2  0
  1  6  1  0
  6  7  2  0
  6  8  1  0
  8  9  1  0
  1 10  1  0
 10 11  2  0
 11 12  1  0
 12 13  2  0
 13 14  1  0
 13 15  1  0
 15 16  2  0
 16 17  1  0
 17 18  1  0
 17 19  2  0
 16 10  1  0
  1 20  1  1
  4 21  1  0
  4 22  1  0
  4 23  1  0
  9 24  1  0
  9 25  1  0
  9 26  1  0
 11 27  1  0
 12 28  1  0
 14 29  1  0
 14 30  1  0
 15 31  1  0
 18 32  1  0
M  END
$$$$
