@<TRIPOS>MOLECULE
*****
 43 46 0 0 0
SMALL
GASTEIGER

@<TRIPOS>ATOM
      1 C           1.3459   -0.6126    3.0455 C.3     1  UNL1        0.0071
      2 N           1.6843   -1.0536    1.7068 N.pl3   1  UNL1       -0.2870
      3 C           3.0513   -1.0255    1.3236 C.ar    1  UNL1        0.0531
      4 C           4.0516   -0.5893    2.1714 C.ar    1  UNL1       -0.0374
      5 C           5.3758   -0.5620    1.8087 C.ar    1  UNL1       -0.0418
      6 C           5.7281   -0.9818    0.5597 C.ar    1  UNL1        0.0277
      7 N           4.7688   -1.4098   -0.2791 N.ar    1  UNL1       -0.2614
      8 C           3.4732   -1.4390    0.0688 C.ar    1  UNL1        0.0489
      9 C           0.7168   -1.5098    0.7665 C.ar    1  UNL1        0.1260
     10 C           0.0660   -0.6459   -0.0885 C.ar    1  UNL1       -0.0104
     11 C          -0.8753   -1.0468   -1.0083 C.ar    1  UNL1        0.0275
     12 C          -1.5436   -0.2041   -1.8713 C.ar    1  UNL1        0.0598
     13 N          -1.2275    1.1801   -1.8141 N.pl3   1  UNL1       -0.3129
     14 C          -1.9001    2.0762   -0.9516 C.ar    1  UNL1        0.0329
     15 C          -2.8657    1.5690   -0.0947 C.ar    1  UNL1       -0.0377
     16 C          -3.5570    2.3906    0.7671 C.ar    1  UNL1       -0.0232
     17 C          -3.2585    3.7354    0.7511 C.ar    1  UNL1        0.1417
     18 F          -3.9019    4.5916    1.5719 F       1  UNL1       -0.2040
     19 C          -2.3021    4.2678   -0.0913 C.ar    1  UNL1        0.0778
     20 CL         -1.9075    5.9750   -0.1286 Cl      1  UNL1       -0.0805
     21 C          -1.6293    3.4142   -0.9410 C.ar    1  UNL1       -0.0194
     22 C          -2.4847   -0.6862   -2.7683 C.ar    1  UNL1        0.0915
     23 C          -3.1783    0.1945   -3.6558 C.1     1  UNL1        0.1026
     24 N          -3.7573    0.9080   -4.3640 N.1     1  UNL1       -0.1908
     25 C          -2.7735   -2.0291   -2.8168 C.ar    1  UNL1        0.0475
     26 N          -2.1142   -2.8421   -1.9696 N.ar    1  UNL1       -0.2521
     27 C          -1.1900   -2.3900   -1.0838 C.ar    1  UNL1        0.0910
     28 C          -0.5343   -3.2518   -0.2243 C.ar    1  UNL1        0.0557
     29 N           0.3794   -2.8185    0.6602 N.ar    1  UNL1       -0.2379
     30 H           1.8931   -1.1722    3.8218 H       1  UNL1        0.0432
     31 H           0.2657   -0.7268    3.2625 H       1  UNL1        0.0432
     32 H           1.5585    0.4908    3.0651 H       1  UNL1        0.0432
     33 H           3.7565   -0.2565    3.1684 H       1  UNL1        0.0637
     34 H           6.1239   -0.2150    2.4969 H       1  UNL1        0.0633
     35 H           6.7789   -0.9767    0.2310 H       1  UNL1        0.0829
     36 H           2.6951   -1.7831   -0.6049 H       1  UNL1        0.0848
     37 H           0.3104    0.4045   -0.0310 H       1  UNL1        0.0659
     38 H          -0.4638    1.5872   -2.4298 H       1  UNL1        0.1522
     39 H          -3.0848    0.5145   -0.0966 H       1  UNL1        0.0637
     40 H          -4.3215    1.9920    1.4460 H       1  UNL1        0.0647
     41 H          -0.8794    3.8319   -1.6025 H       1  UNL1        0.0652
     42 H          -3.5178   -2.4293   -3.5232 H       1  UNL1        0.0843
     43 H          -0.7556   -4.3174   -0.2539 H       1  UNL1        0.0852
@<TRIPOS>BOND
     1     1     2    1
     2     2     3    1
     3     3     4   ar
     4     4     5   ar
     5     5     6   ar
     6     6     7   ar
     7     7     8   ar
     8     2     9    1
     9     9    10   ar
    10    10    11   ar
    11    11    12   ar
    12    12    13    1
    13    13    14    1
    14    14    15   ar
    15    15    16   ar
    16    16    17   ar
    17    17    18    1
    18    17    19   ar
    19    19    20    1
    20    19    21   ar
    21    12    22   ar
    22    22    23    1
    23    23    24    3
    24    22    25   ar
    25    25    26   ar
    26    26    27   ar
    27    27    28   ar
    28    28    29   ar
    29     8     3   ar
    30    29     9   ar
    31    27    11   ar
    32    21    14   ar
    33     1    30    1
    34     1    31    1
    35     1    32    1
    36     4    33    1
    37     5    34    1
    38     6    35    1
    39     8    36    1
    40    10    37    1
    41    13    38    1
    42    15    39    1
    43    16    40    1
    44    21    41    1
    45    25    42    1
    46    28    43    1
