
     RDKit          3D

 64 69  0  0  0  0  0  0  0  0999 V2000
   -3.4573    0.5351    1.0610 O   0  0  0  0  0  0  0  0  0  0  0  0
   -2.4447    0.8347    0.3178 C   0  0  0  0  0  0  0  0  0  0  0  0
   -2.2338    2.2150    0.1764 N   0  0  0  0  0  0  0  0  0  0  0  0
   -3.0583    3.1972    0.8118 C   0  0  0  0  0  0  0  0  0  0  0  0
   -2.6918    3.6167    2.0685 C   0  0  0  0  0  0  0  0  0  0  0  0
   -3.4834    4.5674    2.6922 C   0  0  0  0  0  0  0  0  0  0  0  0
   -4.5893    5.0494    2.0421 C   0  0  0  0  0  0  0  0  0  0  0  0
   -5.5055    5.9606    2.4238 N   0  0  0  0  0  0  0  0  0  0  0  0
   -6.3665    6.0594    1.4207 N   0  0  0  0  0  0  0  0  0  0  0  0
   -6.0493    5.2658    0.4290 N   0  0  0  0  0  0  0  0  0  0  0  0
   -4.9423    4.6162    0.7793 C   0  0  0  0  0  0  0  0  0  0  0  0
   -4.1606    3.6583    0.1293 C   0  0  0  0  0  0  0  0  0  0  0  0
   -1.6881   -0.2068   -0.2566 C   0  0  2  0  0  0  0  0  0  0  0  0
   -2.0163   -1.6370    0.0289 C   0  0  0  0  0  0  0  0  0  0  0  0
   -1.0862   -2.2615   -1.0387 C   0  0  2  0  0  0  0  0  0  0  0  0
   -0.8335   -3.5968   -0.6777 N   0  0  0  0  0  0  0  0  0  0  0  0
   -2.0837   -4.3295   -0.6359 C   0  0  0  0  0  0  0  0  0  0  0  0
   -2.7024   -4.4390   -2.0241 C   0  0  0  0  0  0  0  0  0  0  0  0
   -1.7452   -4.6814   -3.0002 O   0  0  0  0  0  0  0  0  0  0  0  0
   -0.6707   -5.3096   -2.4249 C   0  0  0  0  0  0  0  0  0  0  0  0
    0.0586   -4.3286   -1.5177 C   0  0  0  0  0  0  0  0  0  0  0  0
    0.1237   -1.3473   -0.9752 C   0  0  0  0  0  0  0  0  0  0  0  0
   -0.2303   -0.2235   -0.1390 N   0  0  0  0  0  0  0  0  0  0  0  0
    0.5973    0.6416    0.5510 C   0  0  0  0  0  0  0  0  0  0  0  0
    0.0168    1.4315    1.3813 O   0  0  0  0  0  0  0  0  0  0  0  0
    2.0231    0.7741    0.4582 C   0  0  0  0  0  0  0  0  0  0  0  0
    2.8764    0.1895   -0.2926 C   0  0  0  0  0  0  0  0  0  0  0  0
    4.3033    0.3435   -0.3462 C   0  0  0  0  0  0  0  0  0  0  0  0
    4.9793   -0.1859   -1.4902 C   0  0  0  0  0  0  0  0  0  0  0  0
    6.3305   -0.1311   -1.6200 C   0  0  0  0  0  0  0  0  0  0  0  0
    7.0966   -0.8049   -3.0591 Cl  0  0  0  0  0  0  0  0  0  0  0  0
    7.0826    0.4473   -0.6302 C   0  0  0  0  0  0  0  0  0  0  0  0
    6.5089    0.9645    0.4750 C   0  0  0  0  0  0  0  0  0  0  0  0
    5.0973    0.9032    0.6056 C   0  0  0  0  0  0  0  0  0  0  0  0
    4.6225    1.4115    1.8430 N   0  0  0  0  0  0  0  0  0  0  0  0
    4.2349    0.6801    2.9342 C   0  0  0  0  0  0  0  0  0  0  0  0
    3.9126    1.5142    3.9144 N   0  0  0  0  0  0  0  0  0  0  0  0
    4.0835    2.7476    3.4795 N   0  0  0  0  0  0  0  0  0  0  0  0
    4.5121    2.6767    2.2283 N   0  0  0  0  0  0  0  0  0  0  0  0
   -1.4845    2.5713   -0.4157 H   0  0  0  0  0  0  0  0  0  0  0  0
   -1.8289    3.2396    2.5735 H   0  0  0  0  0  0  0  0  0  0  0  0
   -3.1818    4.8849    3.6761 H   0  0  0  0  0  0  0  0  0  0  0  0
   -6.5324    5.1198   -0.4951 H   0  0  0  0  0  0  0  0  0  0  0  0
   -4.4225    3.3016   -0.8711 H   0  0  0  0  0  0  0  0  0  0  0  0
   -1.8097   -0.1392   -1.4121 H   0  0  0  0  0  0  0  0  0  0  0  0
   -3.0787   -1.8830   -0.1719 H   0  0  0  0  0  0  0  0  0  0  0  0
   -1.6537   -1.9389    1.0211 H   0  0  0  0  0  0  0  0  0  0  0  0
   -1.6402   -2.2064   -1.9843 H   0  0  0  0  0  0  0  0  0  0  0  0
   -2.8223   -3.8754    0.0379 H   0  0  0  0  0  0  0  0  0  0  0  0
   -1.9107   -5.3983   -0.3228 H   0  0  0  0  0  0  0  0  0  0  0  0
   -3.3874   -5.3371   -2.0417 H   0  0  0  0  0  0  0  0  0  0  0  0
   -3.2815   -3.5609   -2.3113 H   0  0  0  0  0  0  0  0  0  0  0  0
    0.0291   -5.6183   -3.2506 H   0  0  0  0  0  0  0  0  0  0  0  0
   -0.9165   -6.2470   -1.8903 H   0  0  0  0  0  0  0  0  0  0  0  0
    0.7342   -3.7472   -2.1347 H   0  0  0  0  0  0  0  0  0  0  0  0
    0.6954   -4.9666   -0.8393 H   0  0  0  0  0  0  0  0  0  0  0  0
    0.3501   -0.9973   -1.9808 H   0  0  0  0  0  0  0  0  0  0  0  0
    0.9830   -1.9253   -0.5592 H   0  0  0  0  0  0  0  0  0  0  0  0
    2.4509    1.5712    1.1371 H   0  0  0  0  0  0  0  0  0  0  0  0
    2.4610   -0.5245   -1.0266 H   0  0  0  0  0  0  0  0  0  0  0  0
    4.3692   -0.6320   -2.2548 H   0  0  0  0  0  0  0  0  0  0  0  0
    8.1677    0.4587   -0.7998 H   0  0  0  0  0  0  0  0  0  0  0  0
    7.0740    1.4193    1.2570 H   0  0  0  0  0  0  0  0  0  0  0  0
    4.2157   -0.3872    2.9362 H   0  0  0  0  0  0  0  0  0  0  0  0
  1  2  2  0
  2  3  1  0
  3  4  1  0
  4  5  2  0
  5  6  1  0
  6  7  2  0
  7  8  1  0
  8  9  2  0
  9 10  1  0
 10 11  1  0
 11 12  2  0
  2 13  1  0
 13 14  1  0
 14 15  1  0
 15 16  1  0
 16 17  1  0
 17 18  1  0
 18 19  1  0
 19 20  1  0
 20 21  1  0
 15 22  1  0
 22 23  1  0
 23 24  1  0
 24 25  2  0
 24 26  1  0
 26 27  2  0
 27 28  1  0
 28 29  2  0
 29 30  1  0
 30 31  1  0
 30 32  2  0
 32 33  1  0
 33 34  2  0
 34 35  1  0
 35 36  1  0
 36 37  2  0
 37 38  1  0
 38 39  2  0
 12  4  1  0
 23 13  1  0
 34 28  1  0
 39 35  1  0
 11  7  1  0
 21 16  1  0
  3 40  1  0
  5 41  1  0
  6 42  1  0
 10 43  1  0
 12 44  1  0
 13 45  1  6
 14 46  1  0
 14 47  1  0
 15 48  1  6
 17 49  1  0
 17 50  1  0
 18 51  1  0
 18 52  1  0
 20 53  1  0
 20 54  1  0
 21 55  1  0
 21 56  1  0
 22 57  1  0
 22 58  1  0
 26 59  1  0
 27 60  1  0
 29 61  1  0
 32 62  1  0
 33 63  1  0
 36 64  1  0
M  END
$$$$
