@<TRIPOS>MOLECULE
*****
 64 69 0 0 0
SMALL
GASTEIGER

@<TRIPOS>ATOM
      1 O          -3.4573    0.5351    1.0610 O.2     1  UNL1       -0.2734
      2 C          -2.4447    0.8347    0.3178 C.2     1  UNL1        0.2378
      3 N          -2.2338    2.2150    0.1764 N.am    1  UNL1       -0.2839
      4 C          -3.0583    3.1972    0.8118 C.ar    1  UNL1        0.0356
      5 C          -2.6918    3.6167    2.0685 C.ar    1  UNL1       -0.0383
      6 C          -3.4834    4.5674    2.6922 C.ar    1  UNL1       -0.0307
      7 C          -4.5893    5.0494    2.0421 C.ar    1  UNL1        0.1126
      8 N          -5.5055    5.9606    2.4238 N.ar    1  UNL1       -0.1297
      9 N          -6.3665    6.0594    1.4207 N.ar    1  UNL1       -0.0673
     10 N          -6.0493    5.2658    0.4290 N.ar    1  UNL1       -0.2571
     11 C          -4.9423    4.6162    0.7793 C.ar    1  UNL1        0.0876
     12 C          -4.1606    3.6583    0.1293 C.ar    1  UNL1       -0.0135
     13 C          -1.6881   -0.2068   -0.2566 C.3     1  UNL1        0.1043
     14 C          -2.0163   -1.6370    0.0289 C.3     1  UNL1       -0.0086
     15 C          -1.0862   -2.2615   -1.0387 C.3     1  UNL1        0.0285
     16 N          -0.8335   -3.5968   -0.6777 N.3     1  UNL1       -0.2935
     17 C          -2.0837   -4.3295   -0.6359 C.3     1  UNL1        0.0228
     18 C          -2.7024   -4.4390   -2.0241 C.3     1  UNL1        0.0604
     19 O          -1.7452   -4.6814   -3.0002 O.3     1  UNL1       -0.3772
     20 C          -0.6707   -5.3096   -2.4249 C.3     1  UNL1        0.0604
     21 C           0.0586   -4.3286   -1.5177 C.3     1  UNL1        0.0228
     22 C           0.1237   -1.3473   -0.9752 C.3     1  UNL1        0.0314
     23 N          -0.2303   -0.2235   -0.1390 N.am    1  UNL1       -0.2849
     24 C           0.5973    0.6416    0.5510 C.2     1  UNL1        0.2401
     25 O           0.0168    1.4315    1.3813 O.2     1  UNL1       -0.2706
     26 C           2.0231    0.7741    0.4582 C.2     1  UNL1        0.0010
     27 C           2.8764    0.1895   -0.2926 C.2     1  UNL1       -0.0476
     28 C           4.3033    0.3435   -0.3462 C.ar    1  UNL1        0.0020
     29 C           4.9793   -0.1859   -1.4902 C.ar    1  UNL1       -0.0342
     30 C           6.3305   -0.1311   -1.6200 C.ar    1  UNL1        0.0417
     31 CL          7.0966   -0.8049   -3.0591 Cl      1  UNL1       -0.0835
     32 C           7.0826    0.4473   -0.6302 C.ar    1  UNL1       -0.0413
     33 C           6.5089    0.9645    0.4750 C.ar    1  UNL1       -0.0342
     34 C           5.0973    0.9032    0.6056 C.ar    1  UNL1        0.0760
     35 N           4.6225    1.4115    1.8430 N.ar    1  UNL1       -0.1997
     36 C           4.2349    0.6801    2.9342 C.ar    1  UNL1        0.1437
     37 N           3.9126    1.5142    3.9144 N.ar    1  UNL1       -0.1165
     38 N           4.0835    2.7476    3.4795 N.ar    1  UNL1       -0.0230
     39 N           4.5121    2.6767    2.2283 N.ar    1  UNL1       -0.0391
     40 H          -1.4845    2.5713   -0.4157 H       1  UNL1        0.1549
     41 H          -1.8289    3.2396    2.5735 H       1  UNL1        0.0637
     42 H          -3.1818    4.8849    3.6761 H       1  UNL1        0.0641
     43 H          -6.5324    5.1198   -0.4951 H       1  UNL1        0.1907
     44 H          -4.4225    3.3016   -0.8711 H       1  UNL1        0.0658
     45 H          -1.8097   -0.1392   -1.4121 H       1  UNL1        0.0597
     46 H          -3.0787   -1.8830   -0.1719 H       1  UNL1        0.0303
     47 H          -1.6537   -1.9389    1.0211 H       1  UNL1        0.0303
     48 H          -1.6402   -2.2064   -1.9843 H       1  UNL1        0.0479
     49 H          -2.8223   -3.8754    0.0379 H       1  UNL1        0.0449
     50 H          -1.9107   -5.3983   -0.3228 H       1  UNL1        0.0449
     51 H          -3.3874   -5.3371   -2.0417 H       1  UNL1        0.0572
     52 H          -3.2815   -3.5609   -2.3113 H       1  UNL1        0.0572
     53 H           0.0291   -5.6183   -3.2506 H       1  UNL1        0.0572
     54 H          -0.9165   -6.2470   -1.8903 H       1  UNL1        0.0572
     55 H           0.7342   -3.7472   -2.1347 H       1  UNL1        0.0449
     56 H           0.6954   -4.9666   -0.8393 H       1  UNL1        0.0449
     57 H           0.3501   -0.9973   -1.9808 H       1  UNL1        0.0480
     58 H           0.9830   -1.9253   -0.5592 H       1  UNL1        0.0480
     59 H           2.4509    1.5712    1.1371 H       1  UNL1        0.0670
     60 H           2.4610   -0.5245   -1.0266 H       1  UNL1        0.0626
     61 H           4.3692   -0.6320   -2.2548 H       1  UNL1        0.0639
     62 H           8.1677    0.4587   -0.7998 H       1  UNL1        0.0633
     63 H           7.0740    1.4193    1.2570 H       1  UNL1        0.0639
     64 H           4.2157   -0.3872    2.9362 H       1  UNL1        0.1067
@<TRIPOS>BOND
     1     1     2    2
     2     2     3   am
     3     3     4    1
     4     4     5   ar
     5     5     6   ar
     6     6     7   ar
     7     7     8   ar
     8     8     9   ar
     9     9    10   ar
    10    10    11   ar
    11    11    12   ar
    12     2    13    1
    13    13    14    1
    14    14    15    1
    15    15    16    1
    16    16    17    1
    17    17    18    1
    18    18    19    1
    19    19    20    1
    20    20    21    1
    21    15    22    1
    22    22    23    1
    23    23    24   am
    24    24    25    2
    25    24    26    1
    26    26    27    2
    27    27    28    1
    28    28    29   ar
    29    29    30   ar
    30    30    31    1
    31    30    32   ar
    32    32    33   ar
    33    33    34   ar
    34    34    35    1
    35    35    36   ar
    36    36    37   ar
    37    37    38   ar
    38    38    39   ar
    39    12     4   ar
    40    23    13    1
    41    34    28   ar
    42    39    35   ar
    43    11     7   ar
    44    21    16    1
    45     3    40    1
    46     5    41    1
    47     6    42    1
    48    10    43    1
    49    12    44    1
    50    13    45    1
    51    14    46    1
    52    14    47    1
    53    15    48    1
    54    17    49    1
    55    17    50    1
    56    18    51    1
    57    18    52    1
    58    20    53    1
    59    20    54    1
    60    21    55    1
    61    21    56    1
    62    22    57    1
    63    22    58    1
    64    26    59    1
    65    27    60    1
    66    29    61    1
    67    32    62    1
    68    33    63    1
    69    36    64    1
