
     RDKit          3D

 42 45  0  0  0  0  0  0  0  0999 V2000
    6.0662   -0.0070   -0.9848 C   0  0  0  0  0  0  0  0  0  0  0  0
    4.8405   -0.0875   -0.1700 C   0  0  0  0  0  0  0  0  0  0  0  0
    3.5107    0.1833   -0.5198 C   0  0  0  0  0  0  0  0  0  0  0  0
    2.7423   -0.0426    0.5947 C   0  0  0  0  0  0  0  0  0  0  0  0
    1.2436    0.1475    0.5943 C   0  0  1  0  0  0  0  0  0  0  0  0
    0.7171    0.1273   -0.8231 C   0  0  0  0  0  0  0  0  0  0  0  0
   -0.5481   -0.6902   -0.9571 C   0  0  1  0  0  0  0  0  0  0  0  0
   -0.1483   -2.1274   -1.1176 C   0  0  0  0  0  0  0  0  0  0  0  0
   -1.6758   -3.0227   -1.5229 S   0  0  0  0  0  0  0  0  0  0  0  0
   -2.9009   -2.3665   -0.4087 C   0  0  0  0  0  0  0  0  0  0  0  0
   -4.1189   -3.0949   -0.2835 N   0  0  0  0  0  0  0  0  0  0  0  0
   -2.6388   -1.2965    0.2143 N   0  0  0  0  0  0  0  0  0  0  0  0
   -1.4848   -0.4602    0.1998 C   0  0  2  0  0  0  0  0  0  0  0  0
   -1.9935    0.9442    0.1679 C   0  0  0  0  0  0  0  0  0  0  0  0
   -1.6564    1.8249    1.1396 C   0  0  0  0  0  0  0  0  0  0  0  0
   -2.1441    3.1429    1.0652 C   0  0  0  0  0  0  0  0  0  0  0  0
   -2.9477    3.5097    0.0153 C   0  0  0  0  0  0  0  0  0  0  0  0
   -3.4149    4.7903   -0.0474 F   0  0  0  0  0  0  0  0  0  0  0  0
   -3.2766    2.5903   -0.9634 C   0  0  0  0  0  0  0  0  0  0  0  0
   -2.8167    1.3229   -0.9052 C   0  0  0  0  0  0  0  0  0  0  0  0
   -3.1195    0.3657   -1.8340 F   0  0  0  0  0  0  0  0  0  0  0  0
   -0.6902   -0.7920    1.4456 C   0  0  0  0  0  0  0  0  0  0  0  0
    0.6592   -0.8675    1.2837 O   0  0  0  0  0  0  0  0  0  0  0  0
    3.5343   -0.4182    1.5419 O   0  0  0  0  0  0  0  0  0  0  0  0
    4.7809   -0.4534    1.1168 N   0  0  0  0  0  0  0  0  0  0  0  0
    6.3683   -1.0250   -1.3560 H   0  0  0  0  0  0  0  0  0  0  0  0
    6.9370    0.3701   -0.4063 H   0  0  0  0  0  0  0  0  0  0  0  0
    5.9270    0.6243   -1.8953 H   0  0  0  0  0  0  0  0  0  0  0  0
    3.2495    0.5113   -1.5227 H   0  0  0  0  0  0  0  0  0  0  0  0
    1.1040    1.0989    1.1198 H   0  0  0  0  0  0  0  0  0  0  0  0
    1.4660   -0.3890   -1.4587 H   0  0  0  0  0  0  0  0  0  0  0  0
    0.6038    1.1454   -1.2501 H   0  0  0  0  0  0  0  0  0  0  0  0
   -1.0224   -0.3749   -1.8995 H   0  0  0  0  0  0  0  0  0  0  0  0
    0.3660   -2.5752   -0.2706 H   0  0  0  0  0  0  0  0  0  0  0  0
    0.5132   -2.1829   -2.0065 H   0  0  0  0  0  0  0  0  0  0  0  0
   -4.2103   -4.0003    0.2050 H   0  0  0  0  0  0  0  0  0  0  0  0
   -4.9670   -2.6716   -0.7203 H   0  0  0  0  0  0  0  0  0  0  0  0
   -1.0275    1.6113    1.9891 H   0  0  0  0  0  0  0  0  0  0  0  0
   -1.8984    3.8667    1.8157 H   0  0  0  0  0  0  0  0  0  0  0  0
   -3.9113    2.8768   -1.7946 H   0  0  0  0  0  0  0  0  0  0  0  0
   -0.9754   -1.8791    1.7650 H   0  0  0  0  0  0  0  0  0  0  0  0
   -1.0422   -0.2293    2.3261 H   0  0  0  0  0  0  0  0  0  0  0  0
  1  2  1  0
  2  3  1  0
  3  4  2  0
  4  5  1  0
  5  6  1  0
  6  7  1  0
  7  8  1  0
  8  9  1  0
  9 10  1  0
 10 11  1  0
 10 12  2  0
 12 13  1  0
 13 14  1  1
 14 15  2  0
 15 16  1  0
 16 17  2  0
 17 18  1  0
 17 19  1  0
 19 20  2  0
 20 21  1  0
 13 22  1  0
 22 23  1  0
  4 24  1  0
 24 25  1  0
 25  2  2  0
 23  5  1  0
 13  7  1  0
 20 14  1  0
  1 26  1  0
  1 27  1  0
  1 28  1  0
  3 29  1  0
  5 30  1  1
  6 31  1  0
  6 32  1  0
  7 33  1  6
  8 34  1  0
  8 35  1  0
 11 36  1  0
 11 37  1  0
 15 38  1  0
 16 39  1  0
 19 40  1  0
 22 41  1  0
 22 42  1  0
M  END
$$$$
