@<TRIPOS>MOLECULE
*****
 42 45 0 0 0
SMALL
GASTEIGER

@<TRIPOS>ATOM
      1 C           6.0662   -0.0070   -0.9848 C.3     1  UNL1       -0.0191
      2 C           4.8405   -0.0875   -0.1700 C.ar    1  UNL1        0.0809
      3 C           3.5107    0.1833   -0.5198 C.ar    1  UNL1        0.0058
      4 C           2.7423   -0.0426    0.5947 C.ar    1  UNL1        0.1660
      5 C           1.2436    0.1475    0.5943 C.3     1  UNL1        0.1192
      6 C           0.7171    0.1273   -0.8231 C.3     1  UNL1       -0.0132
      7 C          -0.5481   -0.6902   -0.9571 C.3     1  UNL1        0.0028
      8 C          -0.1483   -2.1274   -1.1176 C.3     1  UNL1        0.0064
      9 S          -1.6758   -3.0227   -1.5229 S.3     1  UNL1       -0.0907
     10 C          -2.9009   -2.3665   -0.4087 C.2     1  UNL1        0.1476
     11 N          -4.1189   -3.0949   -0.2835 N.pl3   1  UNL1       -0.3380
     12 N          -2.6388   -1.2965    0.2143 N.2     1  UNL1       -0.2495
     13 C          -1.4848   -0.4602    0.1998 C.3     1  UNL1        0.1185
     14 C          -1.9935    0.9442    0.1679 C.ar    1  UNL1        0.0178
     15 C          -1.6564    1.8249    1.1396 C.ar    1  UNL1       -0.0507
     16 C          -2.1441    3.1429    1.0652 C.ar    1  UNL1       -0.0259
     17 C          -2.9477    3.5097    0.0153 C.ar    1  UNL1        0.1261
     18 F          -3.4149    4.7903   -0.0474 F       1  UNL1       -0.2054
     19 C          -3.2766    2.5903   -0.9634 C.ar    1  UNL1        0.0091
     20 C          -2.8167    1.3229   -0.9052 C.ar    1  UNL1        0.1317
     21 F          -3.1195    0.3657   -1.8340 F       1  UNL1       -0.2050
     22 C          -0.6902   -0.7920    1.4456 C.3     1  UNL1        0.0783
     23 O           0.6592   -0.8675    1.2837 O.3     1  UNL1       -0.3661
     24 O           3.5343   -0.4182    1.5419 O.2     1  UNL1       -0.3567
     25 N           4.7809   -0.4534    1.1168 N.ar    1  UNL1       -0.0832
     26 H           6.3683   -1.0250   -1.3560 H       1  UNL1        0.0294
     27 H           6.9370    0.3701   -0.4063 H       1  UNL1        0.0294
     28 H           5.9270    0.6243   -1.8953 H       1  UNL1        0.0294
     29 H           3.2495    0.5113   -1.5227 H       1  UNL1        0.0672
     30 H           1.1040    1.0989    1.1198 H       1  UNL1        0.0678
     31 H           1.4660   -0.3890   -1.4587 H       1  UNL1        0.0298
     32 H           0.6038    1.1454   -1.2501 H       1  UNL1        0.0298
     33 H          -1.0224   -0.3749   -1.8995 H       1  UNL1        0.0337
     34 H           0.3660   -2.5752   -0.2706 H       1  UNL1        0.0384
     35 H           0.5132   -2.1829   -2.0065 H       1  UNL1        0.0384
     36 H          -4.2103   -4.0003    0.2050 H       1  UNL1        0.1442
     37 H          -4.9670   -2.6716   -0.7203 H       1  UNL1        0.1442
     38 H          -1.0275    1.6113    1.9891 H       1  UNL1        0.0623
     39 H          -1.8984    3.8667    1.8157 H       1  UNL1        0.0646
     40 H          -3.9113    2.8768   -1.7946 H       1  UNL1        0.0675
     41 H          -0.9754   -1.8791    1.7650 H       1  UNL1        0.0588
     42 H          -1.0422   -0.2293    2.3261 H       1  UNL1        0.0588
@<TRIPOS>BOND
     1     1     2    1
     2     2     3   ar
     3     3     4   ar
     4     4     5    1
     5     5     6    1
     6     6     7    1
     7     7     8    1
     8     8     9    1
     9     9    10    1
    10    10    11    1
    11    10    12    2
    12    12    13    1
    13    13    14    1
    14    14    15   ar
    15    15    16   ar
    16    16    17   ar
    17    17    18    1
    18    17    19   ar
    19    19    20   ar
    20    20    21    1
    21    13    22    1
    22    22    23    1
    23     4    24   ar
    24    24    25   ar
    25    25     2   ar
    26    23     5    1
    27    13     7    1
    28    20    14   ar
    29     1    26    1
    30     1    27    1
    31     1    28    1
    32     3    29    1
    33     5    30    1
    34     6    31    1
    35     6    32    1
    36     7    33    1
    37     8    34    1
    38     8    35    1
    39    11    36    1
    40    11    37    1
    41    15    38    1
    42    16    39    1
    43    19    40    1
    44    22    41    1
    45    22    42    1
