@<TRIPOS>MOLECULE
*****
 54 57 0 0 0
SMALL
GASTEIGER

@<TRIPOS>ATOM
      1 C          -1.1046   -2.4814    0.8767 C.3     1  UNL1       -0.0394
      2 C          -2.1822   -2.2472   -0.0923 C.ar    1  UNL1       -0.0454
      3 C          -3.3020   -3.0803    0.0015 C.ar    1  UNL1       -0.0558
      4 C          -4.3666   -2.9443   -0.8533 C.ar    1  UNL1       -0.0262
      5 C          -4.3029   -1.9635   -1.8090 C.ar    1  UNL1        0.1237
      6 F          -5.3484   -1.8087   -2.6741 F       1  UNL1       -0.2055
      7 C          -3.2044   -1.1720   -1.8765 C.ar    1  UNL1       -0.0213
      8 C          -2.0928   -1.2623   -1.0353 C.ar    1  UNL1       -0.0221
      9 C          -0.9693   -0.3854   -1.2725 C.3     1  UNL1        0.0505
     10 N          -0.5798    0.5949   -0.3269 N.ar    1  UNL1       -0.3187
     11 C           0.4422    0.4954    0.5479 C.ar    1  UNL1        0.1044
     12 N           1.4579   -0.4916    0.6169 N.pl3   1  UNL1       -0.3147
     13 C           1.7671   -1.1398    1.8706 C.3     1  UNL1        0.0136
     14 C           3.1729   -0.7570    2.2271 C.3     1  UNL1       -0.0355
     15 C           4.1794   -0.9385    1.1366 C.3     1  UNL1       -0.0322
     16 C           3.7411   -0.6666   -0.2435 C.3     1  UNL1        0.0296
     17 C           4.1039    0.7478   -0.6633 C.3     1  UNL1       -0.0455
     18 N           4.4450   -1.5609   -1.1472 N.3     1  UNL1       -0.3236
     19 C           2.2705   -0.8683   -0.5172 C.3     1  UNL1        0.0313
     20 C           0.4734    1.6091    1.3708 C.ar    1  UNL1        0.0043
     21 C          -0.5408    2.4212    1.0025 C.ar    1  UNL1        0.0975
     22 N          -0.9076    3.6282    1.4949 N.ar    1  UNL1       -0.2354
     23 C          -1.9642    4.2289    0.9095 C.ar    1  UNL1        0.0991
     24 N          -2.6029    3.6460   -0.1051 N.ar    1  UNL1       -0.3006
     25 C          -3.7267    4.3605   -0.6850 C.3     1  UNL1        0.0161
     26 C          -2.2528    2.4277   -0.6199 C.ar    1  UNL1        0.2779
     27 O          -2.9017    1.9523   -1.5735 O.2     1  UNL1       -0.2653
     28 C          -1.1802    1.7827   -0.0470 C.ar    1  UNL1        0.1346
     29 H          -1.3340   -3.4083    1.4819 H       1  UNL1        0.0278
     30 H          -1.0344   -1.6802    1.6441 H       1  UNL1        0.0278
     31 H          -0.1516   -2.7186    0.3660 H       1  UNL1        0.0278
     32 H          -3.3539   -3.8536    0.7516 H       1  UNL1        0.0621
     33 H          -5.2462   -3.6114   -0.7713 H       1  UNL1        0.0646
     34 H          -3.1741   -0.4256   -2.6496 H       1  UNL1        0.0649
     35 H          -1.0702    0.1441   -2.2625 H       1  UNL1        0.0542
     36 H          -0.0745   -1.0707   -1.4870 H       1  UNL1        0.0542
     37 H           1.1085   -0.8188    2.7041 H       1  UNL1        0.0464
     38 H           1.7330   -2.2464    1.7340 H       1  UNL1        0.0464
     39 H           3.4731   -1.4344    3.0786 H       1  UNL1        0.0281
     40 H           3.1837    0.2696    2.6362 H       1  UNL1        0.0281
     41 H           4.6586   -1.9426    1.2309 H       1  UNL1        0.0284
     42 H           5.0279   -0.2226    1.3750 H       1  UNL1        0.0284
     43 H           4.5918    0.7594   -1.6714 H       1  UNL1        0.0248
     44 H           4.8463    1.1705    0.0622 H       1  UNL1        0.0248
     45 H           3.2014    1.3862   -0.7485 H       1  UNL1        0.0248
     46 H           4.6387   -1.0988   -2.0709 H       1  UNL1        0.1188
     47 H           5.3438   -1.8386   -0.7168 H       1  UNL1        0.1188
     48 H           2.0579   -0.2520   -1.4212 H       1  UNL1        0.0482
     49 H           2.0751   -1.9238   -0.7531 H       1  UNL1        0.0482
     50 H           1.1853    1.7871    2.1628 H       1  UNL1        0.0673
     51 H          -2.2526    5.1878    1.3055 H       1  UNL1        0.1030
     52 H          -4.4474    3.6558   -1.1468 H       1  UNL1        0.0457
     53 H          -3.2889    5.0704   -1.4285 H       1  UNL1        0.0457
     54 H          -4.2204    4.9883    0.0815 H       1  UNL1        0.0457
@<TRIPOS>BOND
     1     1     2    1
     2     2     3   ar
     3     3     4   ar
     4     4     5   ar
     5     5     6    1
     6     5     7   ar
     7     7     8   ar
     8     8     9    1
     9     9    10    1
    10    10    11   ar
    11    11    12    1
    12    12    13    1
    13    13    14    1
    14    14    15    1
    15    15    16    1
    16    16    17    1
    17    16    18    1
    18    16    19    1
    19    11    20   ar
    20    20    21   ar
    21    21    22   ar
    22    22    23   ar
    23    23    24   ar
    24    24    25    1
    25    24    26   ar
    26    26    27    2
    27    26    28   ar
    28     8     2   ar
    29    28    10   ar
    30    19    12    1
    31    28    21   ar
    32     1    29    1
    33     1    30    1
    34     1    31    1
    35     3    32    1
    36     4    33    1
    37     7    34    1
    38     9    35    1
    39     9    36    1
    40    13    37    1
    41    13    38    1
    42    14    39    1
    43    14    40    1
    44    15    41    1
    45    15    42    1
    46    17    43    1
    47    17    44    1
    48    17    45    1
    49    18    46    1
    50    18    47    1
    51    19    48    1
    52    19    49    1
    53    20    50    1
    54    23    51    1
    55    25    52    1
    56    25    53    1
    57    25    54    1
