@<TRIPOS>MOLECULE
*****
 47 49 0 0 0
SMALL
GASTEIGER

@<TRIPOS>ATOM
      1 C          -3.0868    3.1975   -1.5248 C.3     1  UNL1        0.0790
      2 O          -3.7390    2.1472   -0.8355 O.3     1  UNL1       -0.4913
      3 C          -3.0255    0.9722   -0.6504 C.ar    1  UNL1        0.1658
      4 C          -1.7365    0.8017   -1.1049 C.ar    1  UNL1       -0.0078
      5 C          -1.0182   -0.3871   -0.9162 C.ar    1  UNL1       -0.0035
      6 C           0.3158   -0.4525   -1.4742 C.2     1  UNL1       -0.0465
      7 C           1.4314   -0.6567   -0.8189 C.2     1  UNL1        0.0010
      8 C           1.4585   -0.8500    0.6479 C.3     1  UNL1       -0.0174
      9 C           2.5369    0.0433    1.2603 C.3     1  UNL1       -0.0139
     10 C           1.9611    1.4439    1.2973 C.3     1  UNL1       -0.0581
     11 C           3.8340   -0.0351    0.5862 C.ar    1  UNL1       -0.0334
     12 C           5.0211    0.2546    1.2934 C.ar    1  UNL1       -0.0576
     13 C           6.2628    0.2144    0.7206 C.ar    1  UNL1       -0.0615
     14 C           6.3571   -0.1252   -0.6101 C.ar    1  UNL1       -0.0611
     15 C           5.2109   -0.4120   -1.3189 C.ar    1  UNL1       -0.0507
     16 C           3.9413   -0.3710   -0.7322 C.ar    1  UNL1        0.0254
     17 C           2.7511   -0.6960   -1.4974 C.2     1  UNL1        0.1895
     18 O           2.8042   -1.0068   -2.7068 O.2     1  UNL1       -0.2870
     19 C          -1.6821   -1.3754   -0.2493 C.ar    1  UNL1        0.0705
     20 BR         -0.8696   -3.0724    0.0173 Br      1  UNL1       -0.0458
     21 C          -2.9806   -1.2337    0.2219 C.ar    1  UNL1        0.1797
     22 O          -3.6276   -2.2618    0.9000 O.3     1  UNL1       -0.4903
     23 C          -3.4977   -2.3204    2.3201 C.3     1  UNL1        0.0790
     24 C          -3.6630   -0.0513    0.0222 C.ar    1  UNL1        0.2047
     25 O          -4.9662    0.1293    0.4795 O.3     1  UNL1       -0.4885
     26 C          -6.0029   -0.2405   -0.4324 C.3     1  UNL1        0.0791
     27 H          -2.7120    2.7770   -2.4943 H       1  UNL1        0.0660
     28 H          -2.2023    3.5256   -0.9509 H       1  UNL1        0.0660
     29 H          -3.7767    4.0328   -1.7610 H       1  UNL1        0.0660
     30 H          -1.2606    1.6242   -1.6306 H       1  UNL1        0.0662
     31 H           0.3983   -0.3140   -2.5809 H       1  UNL1        0.0628
     32 H           0.4815   -0.5353    1.0463 H       1  UNL1        0.0320
     33 H           1.6855   -1.8572    0.9873 H       1  UNL1        0.0320
     34 H           2.6979   -0.2501    2.3274 H       1  UNL1        0.0349
     35 H           1.8620    1.8490    0.2805 H       1  UNL1        0.0236
     36 H           2.5295    2.1065    1.9847 H       1  UNL1        0.0236
     37 H           0.9143    1.3299    1.6909 H       1  UNL1        0.0236
     38 H           4.9162    0.5175    2.3344 H       1  UNL1        0.0621
     39 H           7.1599    0.4490    1.3153 H       1  UNL1        0.0618
     40 H           7.3403   -0.1639   -1.0912 H       1  UNL1        0.0618
     41 H           5.2359   -0.6857   -2.3740 H       1  UNL1        0.0625
     42 H          -2.6322   -2.9677    2.5433 H       1  UNL1        0.0660
     43 H          -4.3991   -2.7935    2.7783 H       1  UNL1        0.0660
     44 H          -3.3899   -1.2966    2.7574 H       1  UNL1        0.0660
     45 H          -5.8083    0.2020   -1.4325 H       1  UNL1        0.0660
     46 H          -6.9910    0.1330   -0.1103 H       1  UNL1        0.0660
     47 H          -6.0396   -1.3385   -0.5147 H       1  UNL1        0.0660
@<TRIPOS>BOND
     1     1     2    1
     2     2     3    1
     3     3     4   ar
     4     4     5   ar
     5     5     6    1
     6     6     7    2
     7     7     8    1
     8     8     9    1
     9     9    10    1
    10     9    11    1
    11    11    12   ar
    12    12    13   ar
    13    13    14   ar
    14    14    15   ar
    15    15    16   ar
    16    16    17    1
    17    17    18    2
    18     5    19   ar
    19    19    20    1
    20    19    21   ar
    21    21    22    1
    22    22    23    1
    23    21    24   ar
    24    24    25    1
    25    25    26    1
    26    24     3   ar
    27    17     7    1
    28    16    11   ar
    29     1    27    1
    30     1    28    1
    31     1    29    1
    32     4    30    1
    33     6    31    1
    34     8    32    1
    35     8    33    1
    36     9    34    1
    37    10    35    1
    38    10    36    1
    39    10    37    1
    40    12    38    1
    41    13    39    1
    42    14    40    1
    43    15    41    1
    44    23    42    1
    45    23    43    1
    46    23    44    1
    47    26    45    1
    48    26    46    1
    49    26    47    1
