@<TRIPOS>MOLECULE
*****
 60 63 0 0 0
SMALL
GASTEIGER

@<TRIPOS>ATOM
      1 C           9.3419   -1.4967    0.4113 C.3     1  UNL1        0.0788
      2 O           8.2419   -0.7030    0.0063 O.3     1  UNL1       -0.4951
      3 C           6.9321   -1.1777    0.1400 C.ar    1  UNL1        0.1206
      4 C           6.7057   -2.4220    0.6668 C.ar    1  UNL1       -0.0165
      5 C           5.4205   -2.8848    0.7967 C.ar    1  UNL1       -0.0162
      6 C           4.3742   -2.1055    0.4015 C.ar    1  UNL1        0.1239
      7 C           4.5587   -0.8626   -0.1271 C.ar    1  UNL1       -0.0014
      8 C           5.8637   -0.4150   -0.2495 C.ar    1  UNL1       -0.0133
      9 C           3.4152   -0.0196   -0.5540 C.3     1  UNL1       -0.0098
     10 C           2.2418   -0.8989   -0.8239 C.3     1  UNL1        0.0739
     11 C           1.0296   -0.1341   -1.2181 C.2     1  UNL1        0.2239
     12 O           0.4843   -0.3361   -2.3277 O.2     1  UNL1       -0.2750
     13 N           0.4712    0.8410   -0.3376 N.am    1  UNL1       -0.2823
     14 C          -0.6773    1.6065   -0.6378 C.ar    1  UNL1        0.0756
     15 C          -0.6014    2.8241   -1.2724 C.ar    1  UNL1       -0.0363
     16 C          -1.6991    3.5811   -1.5694 C.ar    1  UNL1       -0.0520
     17 C          -2.9693    3.1575   -1.2420 C.ar    1  UNL1       -0.0114
     18 C          -4.1524    3.9460   -1.5487 C.ar    1  UNL1        0.0194
     19 C          -4.2795    4.7696   -2.6365 C.ar    1  UNL1        0.0568
     20 N          -5.5001    5.3277   -2.5885 N.ar    1  UNL1       -0.1817
     21 N          -6.1517    4.8994   -1.5264 N.ar    1  UNL1       -0.2841
     22 C          -5.3326    4.0356   -0.8601 C.ar    1  UNL1        0.0300
     23 C          -3.0718    1.9233   -0.5964 C.ar    1  UNL1       -0.0103
     24 C          -1.9464    1.1794   -0.3088 C.ar    1  UNL1        0.1422
     25 O          -2.0711   -0.0622    0.3423 O.3     1  UNL1       -0.4888
     26 C          -3.3476   -0.5532    0.7069 C.3     1  UNL1        0.1023
     27 C          -3.0993   -1.8915    1.3686 C.3     1  UNL1        0.0325
     28 N          -4.2703   -2.5613    1.8173 N.3     1  UNL1       -0.3051
     29 C          -4.9299   -1.9112    2.9247 C.3     1  UNL1       -0.0129
     30 C          -5.1707   -2.9559    0.7727 C.3     1  UNL1       -0.0129
     31 C           1.9752   -1.7072    0.4519 C.3     1  UNL1        0.1010
     32 O           3.0747   -2.6097    0.5484 O.3     1  UNL1       -0.4909
     33 H           9.1482   -1.8642    1.4547 H       1  UNL1        0.0660
     34 H           9.5545   -2.3117   -0.2829 H       1  UNL1        0.0660
     35 H          10.2308   -0.8093    0.4392 H       1  UNL1        0.0660
     36 H           7.5536   -3.0402    0.9813 H       1  UNL1        0.0655
     37 H           5.2069   -3.8679    1.2102 H       1  UNL1        0.0655
     38 H           6.0452    0.5689   -0.6674 H       1  UNL1        0.0658
     39 H           3.7552    0.5145   -1.4848 H       1  UNL1        0.0323
     40 H           3.1877    0.7170    0.2416 H       1  UNL1        0.0323
     41 H           2.4993   -1.6213   -1.5995 H       1  UNL1        0.0431
     42 H           0.9916    0.9554    0.5838 H       1  UNL1        0.1549
     43 H           0.3664    3.1962   -1.5474 H       1  UNL1        0.0637
     44 H          -1.6339    4.5527   -2.0758 H       1  UNL1        0.0624
     45 H          -3.5267    4.9407   -3.4025 H       1  UNL1        0.0854
     46 H          -7.1133    5.1807   -1.2607 H       1  UNL1        0.1882
     47 H          -5.5756    3.5132    0.0532 H       1  UNL1        0.0830
     48 H          -4.0722    1.5974   -0.3427 H       1  UNL1        0.0661
     49 H          -3.9975   -0.6956   -0.1728 H       1  UNL1        0.0709
     50 H          -3.7960    0.1816    1.3987 H       1  UNL1        0.0709
     51 H          -2.4109   -1.7672    2.2316 H       1  UNL1        0.0460
     52 H          -2.6094   -2.5307    0.6037 H       1  UNL1        0.0460
     53 H          -5.9899   -2.2321    2.9250 H       1  UNL1        0.0391
     54 H          -4.4408   -2.2631    3.8512 H       1  UNL1        0.0391
     55 H          -4.9099   -0.8097    2.8488 H       1  UNL1        0.0391
     56 H          -6.1299   -3.2728    1.2275 H       1  UNL1        0.0391
     57 H          -5.3981   -2.1586    0.0426 H       1  UNL1        0.0391
     58 H          -4.7787   -3.8129    0.1868 H       1  UNL1        0.0391
     59 H           1.0308   -2.2254    0.2945 H       1  UNL1        0.0704
     60 H           1.9524   -1.0185    1.3316 H       1  UNL1        0.0704
@<TRIPOS>BOND
     1     1     2    1
     2     2     3    1
     3     3     4   ar
     4     4     5   ar
     5     5     6   ar
     6     6     7   ar
     7     7     8   ar
     8     7     9    1
     9     9    10    1
    10    10    11    1
    11    11    12    2
    12    11    13   am
    13    13    14    1
    14    14    15   ar
    15    15    16   ar
    16    16    17   ar
    17    17    18    1
    18    18    19   ar
    19    19    20   ar
    20    20    21   ar
    21    21    22   ar
    22    17    23   ar
    23    23    24   ar
    24    24    25    1
    25    25    26    1
    26    26    27    1
    27    27    28    1
    28    28    29    1
    29    28    30    1
    30    10    31    1
    31    31    32    1
    32     8     3   ar
    33    24    14   ar
    34    32     6    1
    35    22    18   ar
    36     1    33    1
    37     1    34    1
    38     1    35    1
    39     4    36    1
    40     5    37    1
    41     8    38    1
    42     9    39    1
    43     9    40    1
    44    10    41    1
    45    13    42    1
    46    15    43    1
    47    16    44    1
    48    19    45    1
    49    21    46    1
    50    22    47    1
    51    23    48    1
    52    26    49    1
    53    26    50    1
    54    27    51    1
    55    27    52    1
    56    29    53    1
    57    29    54    1
    58    29    55    1
    59    30    56    1
    60    30    57    1
    61    30    58    1
    62    31    59    1
    63    31    60    1
