
     RDKit          3D

 60 63  0  0  0  0  0  0  0  0999 V2000
    9.3419   -1.4967    0.4113 C   0  0  0  0  0  0  0  0  0  0  0  0
    8.2419   -0.7030    0.0063 O   0  0  0  0  0  0  0  0  0  0  0  0
    6.9321   -1.1777    0.1400 C   0  0  0  0  0  0  0  0  0  0  0  0
    6.7057   -2.4220    0.6668 C   0  0  0  0  0  0  0  0  0  0  0  0
    5.4205   -2.8848    0.7967 C   0  0  0  0  0  0  0  0  0  0  0  0
    4.3742   -2.1055    0.4015 C   0  0  0  0  0  0  0  0  0  0  0  0
    4.5587   -0.8626   -0.1271 C   0  0  0  0  0  0  0  0  0  0  0  0
    5.8637   -0.4150   -0.2495 C   0  0  0  0  0  0  0  0  0  0  0  0
    3.4152   -0.0196   -0.5540 C   0  0  0  0  0  0  0  0  0  0  0  0
    2.2418   -0.8989   -0.8239 C   0  0  0  0  0  0  0  0  0  0  0  0
    1.0296   -0.1341   -1.2181 C   0  0  0  0  0  0  0  0  0  0  0  0
    0.4843   -0.3361   -2.3277 O   0  0  0  0  0  0  0  0  0  0  0  0
    0.4712    0.8410   -0.3376 N   0  0  0  0  0  0  0  0  0  0  0  0
   -0.6773    1.6065   -0.6378 C   0  0  0  0  0  0  0  0  0  0  0  0
   -0.6014    2.8241   -1.2724 C   0  0  0  0  0  0  0  0  0  0  0  0
   -1.6991    3.5811   -1.5694 C   0  0  0  0  0  0  0  0  0  0  0  0
   -2.9693    3.1575   -1.2420 C   0  0  0  0  0  0  0  0  0  0  0  0
   -4.1524    3.9460   -1.5487 C   0  0  0  0  0  0  0  0  0  0  0  0
   -4.2795    4.7696   -2.6365 C   0  0  0  0  0  0  0  0  0  0  0  0
   -5.5001    5.3277   -2.5885 N   0  0  0  0  0  0  0  0  0  0  0  0
   -6.1517    4.8994   -1.5264 N   0  0  0  0  0  0  0  0  0  0  0  0
   -5.3326    4.0356   -0.8601 C   0  0  0  0  0  0  0  0  0  0  0  0
   -3.0718    1.9233   -0.5964 C   0  0  0  0  0  0  0  0  0  0  0  0
   -1.9464    1.1794   -0.3088 C   0  0  0  0  0  0  0  0  0  0  0  0
   -2.0711   -0.0622    0.3423 O   0  0  0  0  0  0  0  0  0  0  0  0
   -3.3476   -0.5532    0.7069 C   0  0  0  0  0  0  0  0  0  0  0  0
   -3.0993   -1.8915    1.3686 C   0  0  0  0  0  0  0  0  0  0  0  0
   -4.2703   -2.5613    1.8173 N   0  0  0  0  0  0  0  0  0  0  0  0
   -4.9299   -1.9112    2.9247 C   0  0  0  0  0  0  0  0  0  0  0  0
   -5.1707   -2.9559    0.7727 C   0  0  0  0  0  0  0  0  0  0  0  0
    1.9752   -1.7072    0.4519 C   0  0  0  0  0  0  0  0  0  0  0  0
    3.0747   -2.6097    0.5484 O   0  0  0  0  0  0  0  0  0  0  0  0
    9.1482   -1.8642    1.4547 H   0  0  0  0  0  0  0  0  0  0  0  0
    9.5545   -2.3117   -0.2829 H   0  0  0  0  0  0  0  0  0  0  0  0
   10.2308   -0.8093    0.4392 H   0  0  0  0  0  0  0  0  0  0  0  0
    7.5536   -3.0402    0.9813 H   0  0  0  0  0  0  0  0  0  0  0  0
    5.2069   -3.8679    1.2102 H   0  0  0  0  0  0  0  0  0  0  0  0
    6.0452    0.5689   -0.6674 H   0  0  0  0  0  0  0  0  0  0  0  0
    3.7552    0.5145   -1.4848 H   0  0  0  0  0  0  0  0  0  0  0  0
    3.1877    0.7170    0.2416 H   0  0  0  0  0  0  0  0  0  0  0  0
    2.4993   -1.6213   -1.5995 H   0  0  0  0  0  0  0  0  0  0  0  0
    0.9916    0.9554    0.5838 H   0  0  0  0  0  0  0  0  0  0  0  0
    0.3664    3.1962   -1.5474 H   0  0  0  0  0  0  0  0  0  0  0  0
   -1.6339    4.5527   -2.0758 H   0  0  0  0  0  0  0  0  0  0  0  0
   -3.5267    4.9407   -3.4025 H   0  0  0  0  0  0  0  0  0  0  0  0
   -7.1133    5.1807   -1.2607 H   0  0  0  0  0  0  0  0  0  0  0  0
   -5.5756    3.5132    0.0532 H   0  0  0  0  0  0  0  0  0  0  0  0
   -4.0722    1.5974   -0.3427 H   0  0  0  0  0  0  0  0  0  0  0  0
   -3.9975   -0.6956   -0.1728 H   0  0  0  0  0  0  0  0  0  0  0  0
   -3.7960    0.1816    1.3987 H   0  0  0  0  0  0  0  0  0  0  0  0
   -2.4109   -1.7672    2.2316 H   0  0  0  0  0  0  0  0  0  0  0  0
   -2.6094   -2.5307    0.6037 H   0  0  0  0  0  0  0  0  0  0  0  0
   -5.9899   -2.2321    2.9250 H   0  0  0  0  0  0  0  0  0  0  0  0
   -4.4408   -2.2631    3.8512 H   0  0  0  0  0  0  0  0  0  0  0  0
   -4.9099   -0.8097    2.8488 H   0  0  0  0  0  0  0  0  0  0  0  0
   -6.1299   -3.2728    1.2275 H   0  0  0  0  0  0  0  0  0  0  0  0
   -5.3981   -2.1586    0.0426 H   0  0  0  0  0  0  0  0  0  0  0  0
   -4.7787   -3.8129    0.1868 H   0  0  0  0  0  0  0  0  0  0  0  0
    1.0308   -2.2254    0.2945 H   0  0  0  0  0  0  0  0  0  0  0  0
    1.9524   -1.0185    1.3316 H   0  0  0  0  0  0  0  0  0  0  0  0
  1  2  1  0
  2  3  1  0
  3  4  2  0
  4  5  1  0
  5  6  2  0
  6  7  1  0
  7  8  2  0
  7  9  1  0
  9 10  1  0
 10 11  1  0
 11 12  2  0
 11 13  1  0
 13 14  1  0
 14 15  2  0
 15 16  1  0
 16 17  2  0
 17 18  1  0
 18 19  1  0
 19 20  2  0
 20 21  1  0
 21 22  1  0
 17 23  1  0
 23 24  2  0
 24 25  1  0
 25 26  1  0
 26 27  1  0
 27 28  1  0
 28 29  1  0
 28 30  1  0
 10 31  1  0
 31 32  1  0
  8  3  1  0
 24 14  1  0
 32  6  1  0
 22 18  2  0
  1 33  1  0
  1 34  1  0
  1 35  1  0
  4 36  1  0
  5 37  1  0
  8 38  1  0
  9 39  1  0
  9 40  1  0
 10 41  1  0
 13 42  1  0
 15 43  1  0
 16 44  1  0
 19 45  1  0
 21 46  1  0
 22 47  1  0
 23 48  1  0
 26 49  1  0
 26 50  1  0
 27 51  1  0
 27 52  1  0
 29 53  1  0
 29 54  1  0
 29 55  1  0
 30 56  1  0
 30 57  1  0
 30 58  1  0
 31 59  1  0
 31 60  1  0
M  END
$$$$
