@<TRIPOS>MOLECULE
*****
 39 40 0 0 0
SMALL
GASTEIGER

@<TRIPOS>ATOM
      1 C           4.6053    1.6367    0.4070 C.3     1  UNL1       -0.0613
      2 C           3.3183    1.9745   -0.2820 C.3     1  UNL1       -0.0303
      3 C           2.2133    1.0221    0.0001 C.ar    1  UNL1       -0.0438
      4 C           1.1987    1.3891    0.8939 C.ar    1  UNL1       -0.0565
      5 C           0.2018    0.4613    1.1139 C.ar    1  UNL1       -0.0383
      6 C           0.1198   -0.7849    0.5340 C.ar    1  UNL1        0.0623
      7 N          -0.9259   -1.7005    0.7981 N.pl3   1  UNL1       -0.2154
      8 S          -2.4163   -1.4060    1.6086 S.O2    1  UNL1        0.0724
      9 O          -2.0922   -0.8598    2.9813 O.2     1  UNL1       -0.1500
     10 O          -3.2001   -2.6459    1.8191 O.2     1  UNL1       -0.1500
     11 C          -3.3230   -0.2132    0.7067 C.ar    1  UNL1        0.1087
     12 C          -4.0626   -0.8025   -0.3070 C.ar    1  UNL1       -0.0324
     13 C          -4.8714   -0.0597   -1.1597 C.ar    1  UNL1       -0.0246
     14 C          -4.9373    1.3231   -0.9849 C.ar    1  UNL1        0.1235
     15 F          -5.6889    2.1525   -1.7506 F       1  UNL1       -0.2055
     16 C          -4.2022    1.8943    0.0203 C.ar    1  UNL1       -0.0246
     17 C          -3.4029    1.1547    0.8619 C.ar    1  UNL1       -0.0324
     18 C           1.1354   -1.0976   -0.3324 C.ar    1  UNL1        0.0842
     19 C           1.1822   -2.3939   -1.0249 C.2     1  UNL1        0.3389
     20 O           1.8816   -3.3496   -0.2880 O.3     1  UNL1       -0.4771
     21 O           0.7280   -2.8053   -2.1246 O.2     1  UNL1       -0.2451
     22 C           2.1639   -0.2200   -0.5999 C.ar    1  UNL1       -0.0315
     23 C           3.2469   -0.5811   -1.5416 C.3     1  UNL1       -0.0386
     24 H           5.0711    2.6143    0.7312 H       1  UNL1        0.0233
     25 H           4.4811    1.0549    1.3433 H       1  UNL1        0.0233
     26 H           5.3774    1.1874   -0.2772 H       1  UNL1        0.0233
     27 H           3.5274    2.0500   -1.3787 H       1  UNL1        0.0311
     28 H           2.9729    2.9883    0.0148 H       1  UNL1        0.0311
     29 H           1.2221    2.3568    1.3717 H       1  UNL1        0.0621
     30 H          -0.5413    0.7869    1.8037 H       1  UNL1        0.0637
     31 H          -0.7849   -2.6974    0.4591 H       1  UNL1        0.1737
     32 H          -4.1107   -1.8684   -0.5633 H       1  UNL1        0.0638
     33 H          -5.4652   -0.4619   -1.9609 H       1  UNL1        0.0647
     34 H          -4.1872    2.9651    0.2371 H       1  UNL1        0.0647
     35 H          -2.7948    1.5052    1.6768 H       1  UNL1        0.0638
     36 H           1.7753   -4.3474   -0.5034 H       1  UNL1        0.2954
     37 H           4.2110   -0.7810   -0.9896 H       1  UNL1        0.0278
     38 H           3.3723    0.1227   -2.3817 H       1  UNL1        0.0278
     39 H           3.0011   -1.5639   -1.9997 H       1  UNL1        0.0278
@<TRIPOS>BOND
     1     1     2    1
     2     2     3    1
     3     3     4   ar
     4     4     5   ar
     5     5     6   ar
     6     6     7    1
     7     7     8    1
     8     8     9    2
     9     8    10    2
    10     8    11    1
    11    11    12   ar
    12    12    13   ar
    13    13    14   ar
    14    14    15    1
    15    14    16   ar
    16    16    17   ar
    17     6    18   ar
    18    18    19    1
    19    19    20    1
    20    19    21    2
    21    18    22   ar
    22    22    23    1
    23    22     3   ar
    24    17    11   ar
    25     1    24    1
    26     1    25    1
    27     1    26    1
    28     2    27    1
    29     2    28    1
    30     4    29    1
    31     5    30    1
    32     7    31    1
    33    12    32    1
    34    13    33    1
    35    16    34    1
    36    17    35    1
    37    20    36    1
    38    23    37    1
    39    23    38    1
    40    23    39    1
