
     RDKit          3D

 39 40  0  0  0  0  0  0  0  0999 V2000
    4.6053    1.6367    0.4070 C   0  0  0  0  0  0  0  0  0  0  0  0
    3.3183    1.9745   -0.2820 C   0  0  0  0  0  0  0  0  0  0  0  0
    2.2133    1.0221    0.0001 C   0  0  0  0  0  0  0  0  0  0  0  0
    1.1987    1.3891    0.8939 C   0  0  0  0  0  0  0  0  0  0  0  0
    0.2018    0.4613    1.1139 C   0  0  0  0  0  0  0  0  0  0  0  0
    0.1198   -0.7849    0.5340 C   0  0  0  0  0  0  0  0  0  0  0  0
   -0.9259   -1.7005    0.7981 N   0  0  0  0  0  0  0  0  0  0  0  0
   -2.4163   -1.4060    1.6086 S   0  0  0  0  0  0  0  0  0  0  0  0
   -2.0922   -0.8598    2.9813 O   0  0  0  0  0  0  0  0  0  0  0  0
   -3.2001   -2.6459    1.8191 O   0  0  0  0  0  0  0  0  0  0  0  0
   -3.3230   -0.2132    0.7067 C   0  0  0  0  0  0  0  0  0  0  0  0
   -4.0626   -0.8025   -0.3070 C   0  0  0  0  0  0  0  0  0  0  0  0
   -4.8714   -0.0597   -1.1597 C   0  0  0  0  0  0  0  0  0  0  0  0
   -4.9373    1.3231   -0.9849 C   0  0  0  0  0  0  0  0  0  0  0  0
   -5.6889    2.1525   -1.7506 F   0  0  0  0  0  0  0  0  0  0  0  0
   -4.2022    1.8943    0.0203 C   0  0  0  0  0  0  0  0  0  0  0  0
   -3.4029    1.1547    0.8619 C   0  0  0  0  0  0  0  0  0  0  0  0
    1.1354   -1.0976   -0.3324 C   0  0  0  0  0  0  0  0  0  0  0  0
    1.1822   -2.3939   -1.0249 C   0  0  0  0  0  0  0  0  0  0  0  0
    1.8816   -3.3496   -0.2880 O   0  0  0  0  0  0  0  0  0  0  0  0
    0.7280   -2.8053   -2.1246 O   0  0  0  0  0  0  0  0  0  0  0  0
    2.1639   -0.2200   -0.5999 C   0  0  0  0  0  0  0  0  0  0  0  0
    3.2469   -0.5811   -1.5416 C   0  0  0  0  0  0  0  0  0  0  0  0
    5.0711    2.6143    0.7312 H   0  0  0  0  0  0  0  0  0  0  0  0
    4.4811    1.0549    1.3433 H   0  0  0  0  0  0  0  0  0  0  0  0
    5.3774    1.1874   -0.2772 H   0  0  0  0  0  0  0  0  0  0  0  0
    3.5274    2.0500   -1.3787 H   0  0  0  0  0  0  0  0  0  0  0  0
    2.9729    2.9883    0.0148 H   0  0  0  0  0  0  0  0  0  0  0  0
    1.2221    2.3568    1.3717 H   0  0  0  0  0  0  0  0  0  0  0  0
   -0.5413    0.7869    1.8037 H   0  0  0  0  0  0  0  0  0  0  0  0
   -0.7849   -2.6974    0.4591 H   0  0  0  0  0  0  0  0  0  0  0  0
   -4.1107   -1.8684   -0.5633 H   0  0  0  0  0  0  0  0  0  0  0  0
   -5.4652   -0.4619   -1.9609 H   0  0  0  0  0  0  0  0  0  0  0  0
   -4.1872    2.9651    0.2371 H   0  0  0  0  0  0  0  0  0  0  0  0
   -2.7948    1.5052    1.6768 H   0  0  0  0  0  0  0  0  0  0  0  0
    1.7753   -4.3474   -0.5034 H   0  0  0  0  0  0  0  0  0  0  0  0
    4.2110   -0.7810   -0.9896 H   0  0  0  0  0  0  0  0  0  0  0  0
    3.3723    0.1227   -2.3817 H   0  0  0  0  0  0  0  0  0  0  0  0
    3.0011   -1.5639   -1.9997 H   0  0  0  0  0  0  0  0  0  0  0  0
  1  2  1  0
  2  3  1  0
  3  4  2  0
  4  5  1  0
  5  6  2  0
  6  7  1  0
  7  8  1  0
  8  9  2  0
  8 10  2  0
  8 11  1  0
 11 12  2  0
 12 13  1  0
 13 14  2  0
 14 15  1  0
 14 16  1  0
 16 17  2  0
  6 18  1  0
 18 19  1  0
 19 20  1  0
 19 21  2  0
 18 22  2  0
 22 23  1  0
 22  3  1  0
 17 11  1  0
  1 24  1  0
  1 25  1  0
  1 26  1  0
  2 27  1  0
  2 28  1  0
  4 29  1  0
  5 30  1  0
  7 31  1  0
 12 32  1  0
 13 33  1  0
 16 34  1  0
 17 35  1  0
 20 36  1  0
 23 37  1  0
 23 38  1  0
 23 39  1  0
M  END
$$$$
