@<TRIPOS>MOLECULE
*****
 45 48 0 0 0
SMALL
GASTEIGER

@<TRIPOS>ATOM
      1 O          -0.6353   -0.5881   -0.7869 O.2     1  UNL1       -0.2683
      2 C          -1.0558    0.1429    0.1789 C.2     1  UNL1        0.2672
      3 N          -0.0837    0.8163    0.9545 N.am    1  UNL1       -0.2803
      4 C           1.3276    0.6718    0.6522 C.ar    1  UNL1        0.0337
      5 C           2.0949   -0.3200    1.2229 C.ar    1  UNL1       -0.0399
      6 C           3.4429   -0.4594    0.9370 C.ar    1  UNL1       -0.0523
      7 C           4.0700    0.3995    0.0615 C.ar    1  UNL1       -0.0177
      8 C           5.4912    0.2829   -0.2633 C.ar    1  UNL1       -0.0164
      9 C           6.3885   -0.1837    0.6744 C.ar    1  UNL1       -0.0526
     10 C           7.7348   -0.3152    0.4295 C.ar    1  UNL1       -0.0414
     11 C           8.2200    0.0355   -0.8145 C.ar    1  UNL1        0.0593
     12 CL          9.9348   -0.1346   -1.1155 Cl      1  UNL1       -0.0820
     13 C           7.3426    0.5017   -1.7595 C.ar    1  UNL1        0.0598
     14 CL          7.9971    0.9415   -3.3375 Cl      1  UNL1       -0.0820
     15 C           5.9906    0.6267   -1.4936 C.ar    1  UNL1       -0.0342
     16 C           3.3027    1.3917   -0.5095 C.ar    1  UNL1       -0.0523
     17 C           1.9568    1.5301   -0.2236 C.ar    1  UNL1       -0.0399
     18 C          -2.4782    0.2527    0.4381 C.2     1  UNL1        0.1520
     19 C          -3.2981   -0.4199   -0.3495 C.2     1  UNL1        0.1533
     20 O          -2.7367   -1.1959   -1.3845 O.2     1  UNL1       -0.5040
     21 C          -4.7239   -0.4183   -0.2283 C.ar    1  UNL1        0.0485
     22 C          -5.4727   -1.1801   -1.1352 C.ar    1  UNL1       -0.0076
     23 C          -6.8603   -1.2259   -1.0773 C.ar    1  UNL1        0.1177
     24 O          -7.5649   -1.9923   -1.9932 O.3     1  UNL1       -0.5067
     25 C          -7.5283   -0.5091   -0.1090 C.ar    1  UNL1       -0.0183
     26 C          -6.8017    0.2376    0.7806 C.ar    1  UNL1       -0.0309
     27 C          -5.4552    0.2686    0.7071 C.ar    1  UNL1        0.1194
     28 S          -4.5810    1.2412    1.8708 S.O2    1  UNL1        0.0733
     29 O          -5.0109    2.6680    1.8525 O.2     1  UNL1       -0.1499
     30 O          -4.8202    0.6501    3.2262 O.2     1  UNL1       -0.1499
     31 N          -2.9116    1.0563    1.4983 N.pl3   1  UNL1       -0.2079
     32 H          -0.3867    1.4159    1.7426 H       1  UNL1        0.1552
     33 H           1.6040   -1.0052    1.9185 H       1  UNL1        0.0636
     34 H           4.0186   -1.2525    1.4045 H       1  UNL1        0.0624
     35 H           6.0433   -0.4725    1.6728 H       1  UNL1        0.0624
     36 H           8.4354   -0.6861    1.1799 H       1  UNL1        0.0633
     37 H           5.2993    0.9919   -2.2348 H       1  UNL1        0.0639
     38 H           3.8024    2.0651   -1.1981 H       1  UNL1        0.0624
     39 H           1.3676    2.3160   -0.6827 H       1  UNL1        0.0636
     40 H          -2.8816   -0.9886   -2.3548 H       1  UNL1        0.2923
     41 H          -4.9674   -1.7457   -1.8976 H       1  UNL1        0.0662
     42 H          -7.4298   -2.9922   -2.0423 H       1  UNL1        0.2921
     43 H          -8.6018   -0.5310   -0.0473 H       1  UNL1        0.0655
     44 H          -7.3166    0.8004    1.5404 H       1  UNL1        0.0638
     45 H          -2.2628    1.5658    2.0954 H       1  UNL1        0.1740
@<TRIPOS>BOND
     1     1     2    2
     2     2     3   am
     3     3     4    1
     4     4     5   ar
     5     5     6   ar
     6     6     7   ar
     7     7     8    1
     8     8     9   ar
     9     9    10   ar
    10    10    11   ar
    11    11    12    1
    12    11    13   ar
    13    13    14    1
    14    13    15   ar
    15     7    16   ar
    16    16    17   ar
    17     2    18    1
    18    18    19    2
    19    19    20    1
    20    19    21    1
    21    21    22   ar
    22    22    23   ar
    23    23    24    1
    24    23    25   ar
    25    25    26   ar
    26    26    27   ar
    27    27    28    1
    28    28    29    2
    29    28    30    2
    30    28    31    1
    31    17     4   ar
    32    31    18    1
    33    15     8   ar
    34    27    21   ar
    35     3    32    1
    36     5    33    1
    37     6    34    1
    38     9    35    1
    39    10    36    1
    40    15    37    1
    41    16    38    1
    42    17    39    1
    43    20    40    1
    44    22    41    1
    45    24    42    1
    46    25    43    1
    47    26    44    1
    48    31    45    1
