
     RDKit          3D

 45 48  0  0  0  0  0  0  0  0999 V2000
   -0.6353   -0.5881   -0.7869 O   0  0  0  0  0  0  0  0  0  0  0  0
   -1.0558    0.1429    0.1789 C   0  0  0  0  0  0  0  0  0  0  0  0
   -0.0837    0.8163    0.9545 N   0  0  0  0  0  0  0  0  0  0  0  0
    1.3276    0.6718    0.6522 C   0  0  0  0  0  0  0  0  0  0  0  0
    2.0949   -0.3200    1.2229 C   0  0  0  0  0  0  0  0  0  0  0  0
    3.4429   -0.4594    0.9370 C   0  0  0  0  0  0  0  0  0  0  0  0
    4.0700    0.3995    0.0615 C   0  0  0  0  0  0  0  0  0  0  0  0
    5.4912    0.2829   -0.2633 C   0  0  0  0  0  0  0  0  0  0  0  0
    6.3885   -0.1837    0.6744 C   0  0  0  0  0  0  0  0  0  0  0  0
    7.7348   -0.3152    0.4295 C   0  0  0  0  0  0  0  0  0  0  0  0
    8.2200    0.0355   -0.8145 C   0  0  0  0  0  0  0  0  0  0  0  0
    9.9348   -0.1346   -1.1155 Cl  0  0  0  0  0  0  0  0  0  0  0  0
    7.3426    0.5017   -1.7595 C   0  0  0  0  0  0  0  0  0  0  0  0
    7.9971    0.9415   -3.3375 Cl  0  0  0  0  0  0  0  0  0  0  0  0
    5.9906    0.6267   -1.4936 C   0  0  0  0  0  0  0  0  0  0  0  0
    3.3027    1.3917   -0.5095 C   0  0  0  0  0  0  0  0  0  0  0  0
    1.9568    1.5301   -0.2236 C   0  0  0  0  0  0  0  0  0  0  0  0
   -2.4782    0.2527    0.4381 C   0  0  0  0  0  0  0  0  0  0  0  0
   -3.2981   -0.4199   -0.3495 C   0  0  0  0  0  0  0  0  0  0  0  0
   -2.7367   -1.1959   -1.3845 O   0  0  0  0  0  0  0  0  0  0  0  0
   -4.7239   -0.4183   -0.2283 C   0  0  0  0  0  0  0  0  0  0  0  0
   -5.4727   -1.1801   -1.1352 C   0  0  0  0  0  0  0  0  0  0  0  0
   -6.8603   -1.2259   -1.0773 C   0  0  0  0  0  0  0  0  0  0  0  0
   -7.5649   -1.9923   -1.9932 O   0  0  0  0  0  0  0  0  0  0  0  0
   -7.5283   -0.5091   -0.1090 C   0  0  0  0  0  0  0  0  0  0  0  0
   -6.8017    0.2376    0.7806 C   0  0  0  0  0  0  0  0  0  0  0  0
   -5.4552    0.2686    0.7071 C   0  0  0  0  0  0  0  0  0  0  0  0
   -4.5810    1.2412    1.8708 S   0  0  0  0  0  6  0  0  0  0  0  0
   -5.0109    2.6680    1.8525 O   0  0  0  0  0  0  0  0  0  0  0  0
   -4.8202    0.6501    3.2262 O   0  0  0  0  0  0  0  0  0  0  0  0
   -2.9116    1.0563    1.4983 N   0  0  0  0  0  0  0  0  0  0  0  0
   -0.3867    1.4159    1.7426 H   0  0  0  0  0  0  0  0  0  0  0  0
    1.6040   -1.0052    1.9185 H   0  0  0  0  0  0  0  0  0  0  0  0
    4.0186   -1.2525    1.4045 H   0  0  0  0  0  0  0  0  0  0  0  0
    6.0433   -0.4725    1.6728 H   0  0  0  0  0  0  0  0  0  0  0  0
    8.4354   -0.6861    1.1799 H   0  0  0  0  0  0  0  0  0  0  0  0
    5.2993    0.9919   -2.2348 H   0  0  0  0  0  0  0  0  0  0  0  0
    3.8024    2.0651   -1.1981 H   0  0  0  0  0  0  0  0  0  0  0  0
    1.3676    2.3160   -0.6827 H   0  0  0  0  0  0  0  0  0  0  0  0
   -2.8816   -0.9886   -2.3548 H   0  0  0  0  0  0  0  0  0  0  0  0
   -4.9674   -1.7457   -1.8976 H   0  0  0  0  0  0  0  0  0  0  0  0
   -7.4298   -2.9922   -2.0423 H   0  0  0  0  0  0  0  0  0  0  0  0
   -8.6018   -0.5310   -0.0473 H   0  0  0  0  0  0  0  0  0  0  0  0
   -7.3166    0.8004    1.5404 H   0  0  0  0  0  0  0  0  0  0  0  0
   -2.2628    1.5658    2.0954 H   0  0  0  0  0  0  0  0  0  0  0  0
  1  2  2  0
  2  3  1  0
  3  4  1  0
  4  5  2  0
  5  6  1  0
  6  7  2  0
  7  8  1  0
  8  9  2  0
  9 10  1  0
 10 11  2  0
 11 12  1  0
 11 13  1  0
 13 14  1  0
 13 15  2  0
  7 16  1  0
 16 17  2  0
  2 18  1  0
 18 19  2  0
 19 20  1  0
 19 21  1  0
 21 22  2  0
 22 23  1  0
 23 24  1  0
 23 25  2  0
 25 26  1  0
 26 27  2  0
 27 28  1  0
 28 29  2  0
 28 30  2  0
 28 31  1  0
 17  4  1  0
 31 18  1  0
 15  8  1  0
 27 21  1  0
  3 32  1  0
  5 33  1  0
  6 34  1  0
  9 35  1  0
 10 36  1  0
 15 37  1  0
 16 38  1  0
 17 39  1  0
 20 40  1  0
 22 41  1  0
 24 42  1  0
 25 43  1  0
 26 44  1  0
 31 45  1  0
M  END
$$$$
