@<TRIPOS>MOLECULE
*****
 79 83 0 0 0
SMALL
GASTEIGER

@<TRIPOS>ATOM
      1 C           7.8933    4.0229   -1.0876 C.3     1  UNL1        0.0124
      2 C           7.8635    2.5455   -0.9372 C.2     1  UNL1        0.2125
      3 O           8.7965    1.8533   -1.4342 O.2     1  UNL1       -0.2759
      4 N           6.8116    1.9203   -0.2513 N.am    1  UNL1       -0.3017
      5 C           5.7458    2.7033    0.3191 C.3     1  UNL1        0.0153
      6 C           5.2409    1.9278    1.5231 C.3     1  UNL1       -0.0260
      7 C           4.5395    0.6903    1.0052 C.3     1  UNL1        0.0386
      8 C           3.2034    1.0899    0.5104 C.2     1  UNL1        0.2188
      9 O           2.8833    2.3187    0.5848 O.2     1  UNL1       -0.2753
     10 N           2.2532    0.1974   -0.0416 N.am    1  UNL1       -0.2999
     11 C           2.4402   -1.2166   -0.2018 C.3     1  UNL1        0.0223
     12 C           1.0359   -1.7581   -0.0356 C.3     1  UNL1        0.0129
     13 C           0.9348   -3.1646   -0.4808 C.ar    1  UNL1       -0.0389
     14 C           0.6737   -3.5737   -1.7615 C.ar    1  UNL1       -0.0553
     15 C           0.5890   -4.8943   -2.1466 C.ar    1  UNL1       -0.0262
     16 C           0.7729   -5.8922   -1.2117 C.ar    1  UNL1        0.1237
     17 F           0.6937   -7.2021   -1.5608 F       1  UNL1       -0.2055
     18 C           1.0388   -5.5078    0.0929 C.ar    1  UNL1       -0.0233
     19 C           1.1198   -4.1618    0.4595 C.ar    1  UNL1       -0.0442
     20 C           1.4068   -3.8759    1.8865 C.3     1  UNL1       -0.0394
     21 C           0.2359   -0.7833   -0.8186 C.3     1  UNL1        0.0620
     22 C          -1.1895   -0.6955   -0.3569 C.ar    1  UNL1        0.2326
     23 N          -2.3104   -0.6024   -1.0971 N.ar    1  UNL1       -0.1949
     24 C          -3.3847   -0.5470   -0.2931 C.ar    1  UNL1        0.1816
     25 C          -4.8308   -0.4356   -0.6902 C.3     1  UNL1        0.0530
     26 C          -5.4891   -1.7226   -0.2381 C.3     1  UNL1       -0.0487
     27 C          -4.9545   -0.2534   -2.1857 C.3     1  UNL1       -0.0487
     28 C          -5.4918    0.6658   -0.0062 C.ar    1  UNL1       -0.0332
     29 C          -6.0015    1.7159   -0.7303 C.ar    1  UNL1       -0.0460
     30 C          -6.6448    2.8009   -0.1417 C.ar    1  UNL1        0.0556
     31 C          -7.1891    3.9308   -0.9709 C.3     1  UNL1        0.4174
     32 F          -8.0615    4.6585   -0.1944 F       1  UNL1       -0.1659
     33 F          -7.8373    3.3532   -2.0479 F       1  UNL1       -0.1659
     34 F          -6.1658    4.7048   -1.4912 F       1  UNL1       -0.1659
     35 C          -6.7695    2.8092    1.2304 C.ar    1  UNL1       -0.0385
     36 C          -6.2738    1.7757    2.0133 C.ar    1  UNL1        0.0556
     37 C          -6.4306    1.8272    3.4923 C.3     1  UNL1        0.4174
     38 F          -5.5420    2.7559    4.0411 F       1  UNL1       -0.1659
     39 F          -7.6979    2.2310    3.8645 F       1  UNL1       -0.1659
     40 F          -6.2253    0.5723    4.0168 F       1  UNL1       -0.1659
     41 C          -5.6472    0.7298    1.3734 C.ar    1  UNL1       -0.0460
     42 N          -2.8874   -0.6091    0.9537 N.ar    1  UNL1       -0.0604
     43 O          -1.5874   -0.6963    0.8909 O.2     1  UNL1       -0.3377
     44 C           0.9565    0.5417   -0.5330 C.3     1  UNL1        0.0266
     45 C           5.3406   -0.0117   -0.0403 C.3     1  UNL1       -0.0260
     46 C           6.7748    0.4870   -0.1082 C.3     1  UNL1        0.0153
     47 H           7.1212    4.3745   -1.8327 H       1  UNL1        0.0323
     48 H           7.7702    4.5448   -0.1129 H       1  UNL1        0.0323
     49 H           8.9210    4.3339   -1.4434 H       1  UNL1        0.0323
     50 H           4.9162    2.7704   -0.4445 H       1  UNL1        0.0465
     51 H           6.0430    3.7325    0.5959 H       1  UNL1        0.0465
     52 H           6.1020    1.6898    2.1788 H       1  UNL1        0.0288
     53 H           4.5142    2.5725    2.0713 H       1  UNL1        0.0288
     54 H           4.4458    0.0175    1.8999 H       1  UNL1        0.0395
     55 H           2.8286   -1.4905   -1.2071 H       1  UNL1        0.0471
     56 H           3.1415   -1.6389    0.5430 H       1  UNL1        0.0471
     57 H           0.7461   -1.6900    1.0409 H       1  UNL1        0.0372
     58 H           0.5245   -2.8176   -2.5174 H       1  UNL1        0.0621
     59 H           0.3771   -5.1156   -3.1939 H       1  UNL1        0.0646
     60 H           1.1863   -6.2800    0.8433 H       1  UNL1        0.0649
     61 H           1.5238   -4.8071    2.4785 H       1  UNL1        0.0278
     62 H           2.3538   -3.3213    2.0466 H       1  UNL1        0.0278
     63 H           0.5429   -3.3501    2.3816 H       1  UNL1        0.0278
     64 H           0.3014   -0.9045   -1.9078 H       1  UNL1        0.0418
     65 H          -5.1781   -1.9180    0.8034 H       1  UNL1        0.0242
     66 H          -6.5833   -1.5603   -0.2828 H       1  UNL1        0.0242
     67 H          -5.1512   -2.5143   -0.9409 H       1  UNL1        0.0242
     68 H          -4.4692   -1.1200   -2.7275 H       1  UNL1        0.0242
     69 H          -5.9990   -0.1281   -2.4866 H       1  UNL1        0.0242
     70 H          -4.3979    0.6608   -2.4817 H       1  UNL1        0.0242
     71 H          -5.9408    1.7823   -1.8151 H       1  UNL1        0.0626
     72 H          -7.2745    3.6628    1.6749 H       1  UNL1        0.0629
     73 H          -5.2489   -0.0916    1.9354 H       1  UNL1        0.0626
     74 H           0.3268    1.0863    0.2005 H       1  UNL1        0.0472
     75 H           1.0615    1.1594   -1.4365 H       1  UNL1        0.0472
     76 H           5.4291   -1.0921    0.2246 H       1  UNL1        0.0288
     77 H           4.8865    0.0353   -1.0471 H       1  UNL1        0.0288
     78 H           7.3160    0.1514    0.8019 H       1  UNL1        0.0465
     79 H           7.2316    0.0407   -1.0067 H       1  UNL1        0.0465
@<TRIPOS>BOND
     1     1     2    1
     2     2     3    2
     3     2     4   am
     4     4     5    1
     5     5     6    1
     6     6     7    1
     7     7     8    1
     8     8     9    2
     9     8    10   am
    10    10    11    1
    11    11    12    1
    12    12    13    1
    13    13    14   ar
    14    14    15   ar
    15    15    16   ar
    16    16    17    1
    17    16    18   ar
    18    18    19   ar
    19    19    20    1
    20    12    21    1
    21    21    22    1
    22    22    23   ar
    23    23    24   ar
    24    24    25    1
    25    25    26    1
    26    25    27    1
    27    25    28    1
    28    28    29   ar
    29    29    30   ar
    30    30    31    1
    31    31    32    1
    32    31    33    1
    33    31    34    1
    34    30    35   ar
    35    35    36   ar
    36    36    37    1
    37    37    38    1
    38    37    39    1
    39    37    40    1
    40    36    41   ar
    41    24    42   ar
    42    42    43   ar
    43    21    44    1
    44     7    45    1
    45    45    46    1
    46    46     4    1
    47    44    10    1
    48    19    13   ar
    49    43    22   ar
    50    41    28   ar
    51     1    47    1
    52     1    48    1
    53     1    49    1
    54     5    50    1
    55     5    51    1
    56     6    52    1
    57     6    53    1
    58     7    54    1
    59    11    55    1
    60    11    56    1
    61    12    57    1
    62    14    58    1
    63    15    59    1
    64    18    60    1
    65    20    61    1
    66    20    62    1
    67    20    63    1
    68    21    64    1
    69    26    65    1
    70    26    66    1
    71    26    67    1
    72    27    68    1
    73    27    69    1
    74    27    70    1
    75    29    71    1
    76    35    72    1
    77    41    73    1
    78    44    74    1
    79    44    75    1
    80    45    76    1
    81    45    77    1
    82    46    78    1
    83    46    79    1
