
     RDKit          3D

 79 83  0  0  0  0  0  0  0  0999 V2000
    7.8933    4.0229   -1.0876 C   0  0  0  0  0  0  0  0  0  0  0  0
    7.8635    2.5455   -0.9372 C   0  0  0  0  0  0  0  0  0  0  0  0
    8.7965    1.8533   -1.4342 O   0  0  0  0  0  0  0  0  0  0  0  0
    6.8116    1.9203   -0.2513 N   0  0  0  0  0  0  0  0  0  0  0  0
    5.7458    2.7033    0.3191 C   0  0  0  0  0  0  0  0  0  0  0  0
    5.2409    1.9278    1.5231 C   0  0  0  0  0  0  0  0  0  0  0  0
    4.5395    0.6903    1.0052 C   0  0  0  0  0  0  0  0  0  0  0  0
    3.2034    1.0899    0.5104 C   0  0  0  0  0  0  0  0  0  0  0  0
    2.8833    2.3187    0.5848 O   0  0  0  0  0  0  0  0  0  0  0  0
    2.2532    0.1974   -0.0416 N   0  0  0  0  0  0  0  0  0  0  0  0
    2.4402   -1.2166   -0.2018 C   0  0  0  0  0  0  0  0  0  0  0  0
    1.0359   -1.7581   -0.0356 C   0  0  2  0  0  0  0  0  0  0  0  0
    0.9348   -3.1646   -0.4808 C   0  0  0  0  0  0  0  0  0  0  0  0
    0.6737   -3.5737   -1.7615 C   0  0  0  0  0  0  0  0  0  0  0  0
    0.5890   -4.8943   -2.1466 C   0  0  0  0  0  0  0  0  0  0  0  0
    0.7729   -5.8922   -1.2117 C   0  0  0  0  0  0  0  0  0  0  0  0
    0.6937   -7.2021   -1.5608 F   0  0  0  0  0  0  0  0  0  0  0  0
    1.0388   -5.5078    0.0929 C   0  0  0  0  0  0  0  0  0  0  0  0
    1.1198   -4.1618    0.4595 C   0  0  0  0  0  0  0  0  0  0  0  0
    1.4068   -3.8759    1.8865 C   0  0  0  0  0  0  0  0  0  0  0  0
    0.2359   -0.7833   -0.8186 C   0  0  1  0  0  0  0  0  0  0  0  0
   -1.1895   -0.6955   -0.3569 C   0  0  0  0  0  0  0  0  0  0  0  0
   -2.3104   -0.6024   -1.0971 N   0  0  0  0  0  0  0  0  0  0  0  0
   -3.3847   -0.5470   -0.2931 C   0  0  0  0  0  0  0  0  0  0  0  0
   -4.8308   -0.4356   -0.6902 C   0  0  0  0  0  0  0  0  0  0  0  0
   -5.4891   -1.7226   -0.2381 C   0  0  0  0  0  0  0  0  0  0  0  0
   -4.9545   -0.2534   -2.1857 C   0  0  0  0  0  0  0  0  0  0  0  0
   -5.4918    0.6658   -0.0062 C   0  0  0  0  0  0  0  0  0  0  0  0
   -6.0015    1.7159   -0.7303 C   0  0  0  0  0  0  0  0  0  0  0  0
   -6.6448    2.8009   -0.1417 C   0  0  0  0  0  0  0  0  0  0  0  0
   -7.1891    3.9308   -0.9709 C   0  0  0  0  0  0  0  0  0  0  0  0
   -8.0615    4.6585   -0.1944 F   0  0  0  0  0  0  0  0  0  0  0  0
   -7.8373    3.3532   -2.0479 F   0  0  0  0  0  0  0  0  0  0  0  0
   -6.1658    4.7048   -1.4912 F   0  0  0  0  0  0  0  0  0  0  0  0
   -6.7695    2.8092    1.2304 C   0  0  0  0  0  0  0  0  0  0  0  0
   -6.2738    1.7757    2.0133 C   0  0  0  0  0  0  0  0  0  0  0  0
   -6.4306    1.8272    3.4923 C   0  0  0  0  0  0  0  0  0  0  0  0
   -5.5420    2.7559    4.0411 F   0  0  0  0  0  0  0  0  0  0  0  0
   -7.6979    2.2310    3.8645 F   0  0  0  0  0  0  0  0  0  0  0  0
   -6.2253    0.5723    4.0168 F   0  0  0  0  0  0  0  0  0  0  0  0
   -5.6472    0.7298    1.3734 C   0  0  0  0  0  0  0  0  0  0  0  0
   -2.8874   -0.6091    0.9537 N   0  0  0  0  0  0  0  0  0  0  0  0
   -1.5874   -0.6963    0.8909 O   0  0  0  0  0  0  0  0  0  0  0  0
    0.9565    0.5417   -0.5330 C   0  0  0  0  0  0  0  0  0  0  0  0
    5.3406   -0.0117   -0.0403 C   0  0  0  0  0  0  0  0  0  0  0  0
    6.7748    0.4870   -0.1082 C   0  0  0  0  0  0  0  0  0  0  0  0
    7.1212    4.3745   -1.8327 H   0  0  0  0  0  0  0  0  0  0  0  0
    7.7702    4.5448   -0.1129 H   0  0  0  0  0  0  0  0  0  0  0  0
    8.9210    4.3339   -1.4434 H   0  0  0  0  0  0  0  0  0  0  0  0
    4.9162    2.7704   -0.4445 H   0  0  0  0  0  0  0  0  0  0  0  0
    6.0430    3.7325    0.5959 H   0  0  0  0  0  0  0  0  0  0  0  0
    6.1020    1.6898    2.1788 H   0  0  0  0  0  0  0  0  0  0  0  0
    4.5142    2.5725    2.0713 H   0  0  0  0  0  0  0  0  0  0  0  0
    4.4458    0.0175    1.8999 H   0  0  0  0  0  0  0  0  0  0  0  0
    2.8286   -1.4905   -1.2071 H   0  0  0  0  0  0  0  0  0  0  0  0
    3.1415   -1.6389    0.5430 H   0  0  0  0  0  0  0  0  0  0  0  0
    0.7461   -1.6900    1.0409 H   0  0  0  0  0  0  0  0  0  0  0  0
    0.5245   -2.8176   -2.5174 H   0  0  0  0  0  0  0  0  0  0  0  0
    0.3771   -5.1156   -3.1939 H   0  0  0  0  0  0  0  0  0  0  0  0
    1.1863   -6.2800    0.8433 H   0  0  0  0  0  0  0  0  0  0  0  0
    1.5238   -4.8071    2.4785 H   0  0  0  0  0  0  0  0  0  0  0  0
    2.3538   -3.3213    2.0466 H   0  0  0  0  0  0  0  0  0  0  0  0
    0.5429   -3.3501    2.3816 H   0  0  0  0  0  0  0  0  0  0  0  0
    0.3014   -0.9045   -1.9078 H   0  0  0  0  0  0  0  0  0  0  0  0
   -5.1781   -1.9180    0.8034 H   0  0  0  0  0  0  0  0  0  0  0  0
   -6.5833   -1.5603   -0.2828 H   0  0  0  0  0  0  0  0  0  0  0  0
   -5.1512   -2.5143   -0.9409 H   0  0  0  0  0  0  0  0  0  0  0  0
   -4.4692   -1.1200   -2.7275 H   0  0  0  0  0  0  0  0  0  0  0  0
   -5.9990   -0.1281   -2.4866 H   0  0  0  0  0  0  0  0  0  0  0  0
   -4.3979    0.6608   -2.4817 H   0  0  0  0  0  0  0  0  0  0  0  0
   -5.9408    1.7823   -1.8151 H   0  0  0  0  0  0  0  0  0  0  0  0
   -7.2745    3.6628    1.6749 H   0  0  0  0  0  0  0  0  0  0  0  0
   -5.2489   -0.0916    1.9354 H   0  0  0  0  0  0  0  0  0  0  0  0
    0.3268    1.0863    0.2005 H   0  0  0  0  0  0  0  0  0  0  0  0
    1.0615    1.1594   -1.4365 H   0  0  0  0  0  0  0  0  0  0  0  0
    5.4291   -1.0921    0.2246 H   0  0  0  0  0  0  0  0  0  0  0  0
    4.8865    0.0353   -1.0471 H   0  0  0  0  0  0  0  0  0  0  0  0
    7.3160    0.1514    0.8019 H   0  0  0  0  0  0  0  0  0  0  0  0
    7.2316    0.0407   -1.0067 H   0  0  0  0  0  0  0  0  0  0  0  0
  1  2  1  0
  2  3  2  0
  2  4  1  0
  4  5  1  0
  5  6  1  0
  6  7  1  0
  7  8  1  0
  8  9  2  0
  8 10  1  0
 10 11  1  0
 11 12  1  0
 12 13  1  0
 13 14  2  0
 14 15  1  0
 15 16  2  0
 16 17  1  0
 16 18  1  0
 18 19  2  0
 19 20  1  0
 12 21  1  0
 21 22  1  0
 22 23  2  0
 23 24  1  0
 24 25  1  0
 25 26  1  0
 25 27  1  0
 25 28  1  0
 28 29  2  0
 29 30  1  0
 30 31  1  0
 31 32  1  0
 31 33  1  0
 31 34  1  0
 30 35  2  0
 35 36  1  0
 36 37  1  0
 37 38  1  0
 37 39  1  0
 37 40  1  0
 36 41  2  0
 24 42  2  0
 42 43  1  0
 21 44  1  0
  7 45  1  0
 45 46  1  0
 46  4  1  0
 44 10  1  0
 19 13  1  0
 43 22  1  0
 41 28  1  0
  1 47  1  0
  1 48  1  0
  1 49  1  0
  5 50  1  0
  5 51  1  0
  6 52  1  0
  6 53  1  0
  7 54  1  0
 11 55  1  0
 11 56  1  0
 12 57  1  1
 14 58  1  0
 15 59  1  0
 18 60  1  0
 20 61  1  0
 20 62  1  0
 20 63  1  0
 21 64  1  6
 26 65  1  0
 26 66  1  0
 26 67  1  0
 27 68  1  0
 27 69  1  0
 27 70  1  0
 29 71  1  0
 35 72  1  0
 41 73  1  0
 44 74  1  0
 44 75  1  0
 45 76  1  0
 45 77  1  0
 46 78  1  0
 46 79  1  0
M  END
$$$$
