
     RDKit          3D

 54 56  0  0  0  0  0  0  0  0999 V2000
   -8.9842   -1.6067   -1.8325 C   0  0  0  0  0  0  0  0  0  0  0  0
   -7.6137   -1.0746   -1.6042 C   0  0  0  0  0  0  0  0  0  0  0  0
   -6.6390   -1.1383   -2.5209 N   0  0  0  0  0  0  0  0  0  0  0  0
   -5.3981   -0.6529   -2.3042 C   0  0  0  0  0  0  0  0  0  0  0  0
   -4.4900   -0.7143   -3.1630 O   0  0  0  0  0  0  0  0  0  0  0  0
   -5.1668   -0.0734   -1.0710 C   0  0  0  0  0  0  0  0  0  0  0  0
   -3.9206    0.4423   -0.7809 C   0  0  0  0  0  0  0  0  0  0  0  0
   -3.7043    1.0146    0.4511 C   0  0  0  0  0  0  0  0  0  0  0  0
   -2.3589    1.5685    0.7478 C   0  0  0  0  0  0  0  0  0  0  0  0
   -1.5543    0.5030    1.3086 N   0  0  0  0  0  0  0  0  0  0  0  0
   -2.0242   -0.1360    2.5080 C   0  0  0  0  0  0  0  0  0  0  0  0
   -0.3339    0.1486    0.6535 C   0  0  0  0  0  0  0  0  0  0  0  0
   -0.0417   -0.6801   -0.3873 C   0  0  0  0  0  0  0  0  0  0  0  0
    1.2348   -0.8073   -0.7737 C   0  0  0  0  0  0  0  0  0  0  0  0
    2.1938   -0.1208   -0.1321 C   0  0  0  0  0  0  0  0  0  0  0  0
    3.6499   -0.0846   -0.3445 C   0  0  0  0  0  0  0  0  0  0  0  0
    4.0819   -0.7942   -1.2750 O   0  0  0  0  0  0  0  0  0  0  0  0
    4.4533    0.7279    0.4948 N   0  0  0  0  0  0  0  0  0  0  0  0
    5.9081    0.7774    0.3132 C   0  0  1  0  0  0  0  0  0  0  0  0
    6.4392   -0.5896    0.5232 C   0  0  0  0  0  0  0  0  0  0  0  0
    7.8901   -0.8232    0.3443 C   0  0  0  0  0  0  0  0  0  0  0  0
    8.4207   -0.7166   -1.0094 C   0  0  0  0  0  0  0  0  0  0  0  0
    7.6676   -0.7462   -2.0062 O   0  0  0  0  0  0  0  0  0  0  0  0
    9.7809   -0.5792   -1.2108 O   0  0  0  0  0  0  0  0  0  0  0  0
    6.3467    1.5810   -0.7964 C   0  0  0  0  0  0  0  0  0  0  0  0
    7.5322    1.9274   -0.9998 O   0  0  0  0  0  0  0  0  0  0  0  0
    5.4116    2.0317   -1.7452 O   0  0  0  0  0  0  0  0  0  0  0  0
    1.3136    0.7769    1.0982 S   0  0  0  0  0  0  0  0  0  0  0  0
   -4.6875    1.0920    1.4086 C   0  0  0  0  0  0  0  0  0  0  0  0
   -5.9253    0.5836    1.1300 C   0  0  0  0  0  0  0  0  0  0  0  0
   -6.1455    0.0034   -0.1193 C   0  0  0  0  0  0  0  0  0  0  0  0
   -7.3686   -0.5019   -0.3973 N   0  0  0  0  0  0  0  0  0  0  0  0
   -9.0310   -2.3121   -2.6654 H   0  0  0  0  0  0  0  0  0  0  0  0
   -9.3268   -2.0797   -0.8799 H   0  0  0  0  0  0  0  0  0  0  0  0
   -9.6686   -0.7463   -2.0150 H   0  0  0  0  0  0  0  0  0  0  0  0
   -3.1565    0.3752   -1.5421 H   0  0  0  0  0  0  0  0  0  0  0  0
   -2.4449    2.4104    1.4886 H   0  0  0  0  0  0  0  0  0  0  0  0
   -1.8792    1.9757   -0.1855 H   0  0  0  0  0  0  0  0  0  0  0  0
   -2.9675   -0.6703    2.2837 H   0  0  0  0  0  0  0  0  0  0  0  0
   -1.2700   -0.8919    2.8084 H   0  0  0  0  0  0  0  0  0  0  0  0
   -2.1421    0.6025    3.3422 H   0  0  0  0  0  0  0  0  0  0  0  0
   -0.9033   -1.2232   -0.8766 H   0  0  0  0  0  0  0  0  0  0  0  0
    1.5136   -1.4818   -1.6281 H   0  0  0  0  0  0  0  0  0  0  0  0
    3.9502    1.2702    1.2269 H   0  0  0  0  0  0  0  0  0  0  0  0
    6.2407    1.3406    1.2838 H   0  0  0  0  0  0  0  0  0  0  0  0
    5.8380   -1.3945   -0.0071 H   0  0  0  0  0  0  0  0  0  0  0  0
    6.2224   -0.8486    1.6145 H   0  0  0  0  0  0  0  0  0  0  0  0
    8.0837   -1.8877    0.6780 H   0  0  0  0  0  0  0  0  0  0  0  0
    8.4559   -0.2042    1.0857 H   0  0  0  0  0  0  0  0  0  0  0  0
   10.1834   -0.1057   -2.0101 H   0  0  0  0  0  0  0  0  0  0  0  0
    5.6062    2.7884   -2.3691 H   0  0  0  0  0  0  0  0  0  0  0  0
   -4.4559    1.5510    2.3491 H   0  0  0  0  0  0  0  0  0  0  0  0
   -6.7118    0.6324    1.8673 H   0  0  0  0  0  0  0  0  0  0  0  0
   -8.1046   -0.4390    0.3351 H   0  0  0  0  0  0  0  0  0  0  0  0
  1  2  1  0
  2  3  2  0
  3  4  1  0
  4  5  2  0
  4  6  1  0
  6  7  2  0
  7  8  1  0
  8  9  1  0
  9 10  1  0
 10 11  1  0
 10 12  1  0
 12 13  2  0
 13 14  1  0
 14 15  2  0
 15 16  1  0
 16 17  2  0
 16 18  1  0
 18 19  1  0
 19 20  1  0
 20 21  1  0
 21 22  1  0
 22 23  2  0
 22 24  1  0
 19 25  1  0
 25 26  2  0
 25 27  1  0
 15 28  1  0
  8 29  2  0
 29 30  1  0
 30 31  2  0
 31 32  1  0
 32  2  1  0
 31  6  1  0
 28 12  1  0
  1 33  1  0
  1 34  1  0
  1 35  1  0
  7 36  1  0
  9 37  1  0
  9 38  1  0
 11 39  1  0
 11 40  1  0
 11 41  1  0
 13 42  1  0
 14 43  1  0
 18 44  1  0
 19 45  1  1
 20 46  1  0
 20 47  1  0
 21 48  1  0
 21 49  1  0
 24 50  1  0
 27 51  1  0
 29 52  1  0
 30 53  1  0
 32 54  1  0
M  END
$$$$
