@<TRIPOS>MOLECULE
*****
 54 56 0 0 0
SMALL
GASTEIGER

@<TRIPOS>ATOM
      1 C          -8.9842   -1.6067   -1.8325 C.3     0  UNK0       -0.0063
      2 C          -7.6137   -1.0746   -1.6042 C.ar    0  UNK0        0.1083
      3 N          -6.6390   -1.1383   -2.5209 N.ar    0  UNK0       -0.1958
      4 C          -5.3981   -0.6529   -2.3042 C.ar    0  UNK0        0.2809
      5 O          -4.4900   -0.7143   -3.1630 O.2     0  UNK0       -0.2651
      6 C          -5.1668   -0.0734   -1.0710 C.ar    0  UNK0        0.0648
      7 C          -3.9206    0.4423   -0.7809 C.ar    0  UNK0       -0.0427
      8 C          -3.7043    1.0146    0.4511 C.ar    0  UNK0       -0.0293
      9 C          -2.3589    1.5685    0.7478 C.3     0  UNK0        0.0374
     10 N          -1.5543    0.5030    1.3086 N.pl3   0  UNK0       -0.3233
     11 C          -2.0242   -0.1360    2.5080 C.3     0  UNK0        0.0015
     12 C          -0.3339    0.1486    0.6535 C.ar    0  UNK0        0.0687
     13 C          -0.0417   -0.6801   -0.3873 C.ar    0  UNK0       -0.0326
     14 C           1.2348   -0.8073   -0.7737 C.ar    0  UNK0       -0.0407
     15 C           2.1938   -0.1208   -0.1321 C.ar    0  UNK0        0.0756
     16 C           3.6499   -0.0846   -0.3445 C.2     0  UNK0        0.2514
     17 O           4.0819   -0.7942   -1.2750 O.2     0  UNK0       -0.2696
     18 N           4.4533    0.7279    0.4948 N.am    1  GLU1       -0.2979
     19 CA          5.9081    0.7774    0.3132 C.3     1  GLU1        0.1210
     20 CB          6.4392   -0.5896    0.5232 C.3     1  GLU1       -0.0140
     21 CG          7.8901   -0.8232    0.3443 C.3     1  GLU1        0.0470
     22 CD          8.4207   -0.7166   -1.0094 C.2     1  GLU1        0.3048
     23 OE1         7.6676   -0.7462   -2.0062 O.2     1  GLU1       -0.2510
     24 OE2         9.7809   -0.5792   -1.2108 O.3     1  GLU1       -0.4806
     25 C           6.3467    1.5810   -0.7964 C.2     1  GLU1        0.3253
     26 O           7.5322    1.9274   -0.9998 O.2     1  GLU1       -0.2489
     27 OXT         5.4116    2.0317   -1.7452 O.3     1  GLU1       -0.4793
     28 S           1.3136    0.7769    1.0982 S.2     0  UNK0       -0.0691
     29 C          -4.6875    1.0920    1.4086 C.ar    0  UNK0       -0.0551
     30 C          -5.9253    0.5836    1.1300 C.ar    0  UNK0       -0.0373
     31 C          -6.1455    0.0034   -0.1193 C.ar    0  UNK0        0.0530
     32 N          -7.3686   -0.5019   -0.3973 N.ar    0  UNK0       -0.3430
     33 H          -9.0310   -2.3121   -2.6654 H       0  UNK0        0.0307
     34 H          -9.3268   -2.0797   -0.8799 H       0  UNK0        0.0307
     35 H          -9.6686   -0.7463   -2.0150 H       0  UNK0        0.0307
     36 H          -3.1565    0.3752   -1.5421 H       0  UNK0        0.0629
     37 H          -2.4449    2.4104    1.4886 H       0  UNK0        0.0513
     38 H          -1.8792    1.9757   -0.1855 H       0  UNK0        0.0513
     39 H          -2.9675   -0.6703    2.2837 H       0  UNK0        0.0428
     40 H          -1.2700   -0.8919    2.8084 H       0  UNK0        0.0428
     41 H          -2.1421    0.6025    3.3422 H       0  UNK0        0.0428
     42 H          -0.9033   -1.2232   -0.8766 H       0  UNK0        0.0642
     43 H           1.5136   -1.4818   -1.6281 H       0  UNK0        0.0631
     44 H           3.9502    1.2702    1.2269 H       1  GLU1        0.1499
     45 HA          6.2407    1.3406    1.2838 H       1  GLU1        0.0614
     46 HB1         5.8380   -1.3945   -0.0071 H       1  GLU1        0.0294
     47 HB2         6.2224   -0.8486    1.6145 H       1  GLU1        0.0294
     48 HG1         8.0837   -1.8877    0.6780 H       1  GLU1        0.0378
     49 HG2         8.4559   -0.2042    1.0857 H       1  GLU1        0.0378
     50 HE2        10.1834   -0.1057   -2.0101 H       1  GLU1        0.2951
     51 HXT         5.6062    2.7884   -2.3691 H       1  GLU1        0.2951
     52 H          -4.4559    1.5510    2.3491 H       0  UNK0        0.0621
     53 H          -6.7118    0.6324    1.8673 H       0  UNK0        0.0638
     54 H          -8.1046   -0.4390    0.3351 H       0  UNK0        0.1670
@<TRIPOS>BOND
     1     1     2    1
     2     2     3   ar
     3     3     4   ar
     4     4     5    2
     5     4     6   ar
     6     6     7   ar
     7     7     8   ar
     8     8     9    1
     9     9    10    1
    10    10    11    1
    11    10    12    1
    12    12    13   ar
    13    13    14   ar
    14    14    15   ar
    15    15    16    1
    16    16    17    2
    17    16    18   am
    18    18    19    1
    19    19    20    1
    20    20    21    1
    21    21    22    1
    22    22    23    2
    23    22    24    1
    24    19    25    1
    25    25    26    2
    26    25    27    1
    27    15    28   ar
    28     8    29   ar
    29    29    30   ar
    30    30    31   ar
    31    31    32   ar
    32    32     2   ar
    33    31     6   ar
    34    28    12   ar
    35     1    33    1
    36     1    34    1
    37     1    35    1
    38     7    36    1
    39     9    37    1
    40     9    38    1
    41    11    39    1
    42    11    40    1
    43    11    41    1
    44    13    42    1
    45    14    43    1
    46    18    44    1
    47    19    45    1
    48    20    46    1
    49    20    47    1
    50    21    48    1
    51    21    49    1
    52    24    50    1
    53    27    51    1
    54    29    52    1
    55    30    53    1
    56    32    54    1
