@<TRIPOS>MOLECULE
*****
 43 45 0 0 0
SMALL
GASTEIGER

@<TRIPOS>ATOM
      1 C           6.2012    1.1377   -0.1120 C.3     1  UNL1       -0.0397
      2 C           4.7075    1.0614   -0.0500 C.ar    1  UNL1       -0.0501
      3 C           4.0021    1.3416   -1.1963 C.ar    1  UNL1       -0.0578
      4 C           2.6002    1.2850   -1.1939 C.ar    1  UNL1       -0.0475
      5 C           1.9224    0.9487   -0.0443 C.ar    1  UNL1        0.0157
      6 S           0.1499    0.8591    0.0261 S.3     1  UNL1       -0.0873
      7 C          -0.3371   -0.8061   -0.3925 C.ar    1  UNL1        0.0337
      8 C           0.6013   -1.7884   -0.7046 C.ar    1  UNL1       -0.0462
      9 C           0.2375   -3.0691   -1.0271 C.ar    1  UNL1       -0.0606
     10 C          -1.0909   -3.4010   -1.0450 C.ar    1  UNL1       -0.0599
     11 C          -2.0527   -2.4539   -0.7410 C.ar    1  UNL1       -0.0396
     12 C          -1.6601   -1.1725   -0.4199 C.ar    1  UNL1        0.0437
     13 N          -2.6270   -0.1920   -0.1067 N.pl3   1  UNL1       -0.3266
     14 C          -2.6976    0.9976   -0.9222 C.3     1  UNL1        0.0248
     15 C          -4.0838    1.3048   -1.3882 C.3     1  UNL1        0.0117
     16 N          -5.0987    0.6457   -0.6030 N.3     1  UNL1       -0.3130
     17 C          -4.7394    0.5033    0.7884 C.3     1  UNL1        0.0117
     18 C          -3.5180   -0.3653    0.9893 C.3     1  UNL1        0.0248
     19 C           2.6515    0.6742    1.0847 C.ar    1  UNL1       -0.0365
     20 C           1.9363    0.3130    2.3214 C.3     1  UNL1       -0.0386
     21 C           4.0396    0.7255    1.0999 C.ar    1  UNL1       -0.0549
     22 H           6.4480    1.9967   -0.7498 H       1  UNL1        0.0278
     23 H           6.5812    1.3203    0.9018 H       1  UNL1        0.0278
     24 H           6.6247    0.1940   -0.5371 H       1  UNL1        0.0278
     25 H           4.4958    1.6116   -2.1269 H       1  UNL1        0.0621
     26 H           2.0366    1.5050   -2.0955 H       1  UNL1        0.0629
     27 H           1.6459   -1.5104   -0.6859 H       1  UNL1        0.0629
     28 H           0.9805   -3.8009   -1.2619 H       1  UNL1        0.0618
     29 H          -1.4409   -4.3957   -1.2919 H       1  UNL1        0.0618
     30 H          -3.1111   -2.7003   -0.7505 H       1  UNL1        0.0636
     31 H          -2.3372    1.8385   -0.3072 H       1  UNL1        0.0476
     32 H          -2.0286    0.9143   -1.8255 H       1  UNL1        0.0476
     33 H          -4.2602    2.3928   -1.3437 H       1  UNL1        0.0439
     34 H          -4.2532    0.9703   -2.4532 H       1  UNL1        0.0439
     35 H          -5.4355   -0.2484   -1.0210 H       1  UNL1        0.1220
     36 H          -4.4946    1.5171    1.1694 H       1  UNL1        0.0439
     37 H          -5.6103    0.0455    1.3003 H       1  UNL1        0.0439
     38 H          -3.8663   -1.4230    1.1225 H       1  UNL1        0.0476
     39 H          -3.0371   -0.0236    1.9461 H       1  UNL1        0.0476
     40 H           2.4692    0.8112    3.1714 H       1  UNL1        0.0278
     41 H           1.9226   -0.7769    2.5253 H       1  UNL1        0.0278
     42 H           0.9000    0.6994    2.3536 H       1  UNL1        0.0278
     43 H           4.6265    0.5130    1.9769 H       1  UNL1        0.0623
@<TRIPOS>BOND
     1     1     2    1
     2     2     3   ar
     3     3     4   ar
     4     4     5   ar
     5     5     6    1
     6     6     7    1
     7     7     8   ar
     8     8     9   ar
     9     9    10   ar
    10    10    11   ar
    11    11    12   ar
    12    12    13    1
    13    13    14    1
    14    14    15    1
    15    15    16    1
    16    16    17    1
    17    17    18    1
    18     5    19   ar
    19    19    20    1
    20    19    21   ar
    21    21     2   ar
    22    12     7   ar
    23    18    13    1
    24     1    22    1
    25     1    23    1
    26     1    24    1
    27     3    25    1
    28     4    26    1
    29     8    27    1
    30     9    28    1
    31    10    29    1
    32    11    30    1
    33    14    31    1
    34    14    32    1
    35    15    33    1
    36    15    34    1
    37    16    35    1
    38    17    36    1
    39    17    37    1
    40    18    38    1
    41    18    39    1
    42    20    40    1
    43    20    41    1
    44    20    42    1
    45    21    43    1
