@<TRIPOS>MOLECULE
*****
 46 49 0 0 0
SMALL
GASTEIGER

@<TRIPOS>ATOM
      1 O           5.6182    2.8777   -0.2480 O.2     1  UNL1       -0.2681
      2 C           5.8944    1.8049    0.3485 C.2     1  UNL1        0.2665
      3 N           7.2204    1.6751    0.8286 N.am    1  UNL1       -0.1935
      4 O           8.1474    2.6692    0.6493 O.3     1  UNL1       -0.2949
      5 C           4.8626    0.7926    0.5033 C.ar    1  UNL1        0.0390
      6 C           5.0858   -0.4044    1.1418 C.ar    1  UNL1       -0.0493
      7 C           4.0626   -1.3557    1.2707 C.ar    1  UNL1       -0.0576
      8 C           2.8049   -1.1404    0.7720 C.ar    1  UNL1       -0.0440
      9 C           2.5856    0.0801    0.1232 C.ar    1  UNL1       -0.0417
     10 C           3.5764    1.0104   -0.0057 C.ar    1  UNL1       -0.0461
     11 C           1.2070    0.3261   -0.4416 C.3     1  UNL1       -0.0089
     12 C           0.7084   -0.9425   -1.0976 C.3     1  UNL1        0.0276
     13 N          -0.6600   -0.7210   -1.5115 N.pl3   1  UNL1       -0.3103
     14 C          -1.6707   -0.4644   -0.5451 C.ar    1  UNL1        0.2159
     15 N          -1.3978   -0.4298    0.7642 N.ar    1  UNL1       -0.2229
     16 C          -2.3431   -0.1901    1.6630 C.ar    1  UNL1        0.0332
     17 C          -3.6380    0.0266    1.2077 C.ar    1  UNL1       -0.0174
     18 C          -3.9558   -0.0011   -0.1256 C.ar    1  UNL1        0.0775
     19 C          -5.2942    0.2200   -0.6402 C.ar    1  UNL1        0.0186
     20 C          -6.3355    0.4743    0.2027 C.ar    1  UNL1       -0.0497
     21 C          -7.6036    0.6783   -0.3664 C.ar    1  UNL1       -0.0430
     22 C          -7.7956    0.6254   -1.7199 C.ar    1  UNL1        0.0276
     23 N          -6.7505    0.3731   -2.5218 N.ar    1  UNL1       -0.2626
     24 C          -5.5291    0.1751   -1.9963 C.ar    1  UNL1        0.0367
     25 N          -2.9333   -0.2535   -0.9946 N.ar    1  UNL1       -0.2145
     26 C           0.7641   -2.1517   -0.2476 C.3     1  UNL1       -0.0302
     27 C           1.6982   -2.1157    0.8980 C.3     1  UNL1       -0.0257
     28 H           7.4699    0.7925    1.3263 H       1  UNL1        0.1825
     29 H           8.6502    2.5315   -0.1987 H       1  UNL1        0.2414
     30 H           6.0699   -0.6303    1.5592 H       1  UNL1        0.0625
     31 H           4.2941   -2.2757    1.7803 H       1  UNL1        0.0621
     32 H           3.4341    1.9674   -0.5047 H       1  UNL1        0.0628
     33 H           0.5878    0.7230    0.3500 H       1  UNL1        0.0331
     34 H           1.2998    1.0903   -1.2443 H       1  UNL1        0.0331
     35 H           1.3683   -1.1255   -1.9870 H       1  UNL1        0.0501
     36 H          -0.8648   -0.7582   -2.5349 H       1  UNL1        0.1492
     37 H          -2.0808   -0.1713    2.7031 H       1  UNL1        0.0831
     38 H          -4.4052    0.2225    1.9586 H       1  UNL1        0.0654
     39 H          -6.2460    0.5277    1.2678 H       1  UNL1        0.0625
     40 H          -8.4236    0.8791    0.3060 H       1  UNL1        0.0633
     41 H          -8.7820    0.7842   -2.1615 H       1  UNL1        0.0829
     42 H          -4.7184   -0.0245   -2.6774 H       1  UNL1        0.0836
     43 H          -0.2691   -2.4074    0.1126 H       1  UNL1        0.0286
     44 H           1.0730   -3.0239   -0.8919 H       1  UNL1        0.0286
     45 H           1.0994   -1.8770    1.8281 H       1  UNL1        0.0314
     46 H           2.1146   -3.1464    1.0974 H       1  UNL1        0.0314
@<TRIPOS>BOND
     1     1     2    2
     2     2     3   am
     3     3     4    1
     4     2     5    1
     5     5     6   ar
     6     6     7   ar
     7     7     8   ar
     8     8     9   ar
     9     9    10   ar
    10     9    11    1
    11    11    12    1
    12    12    13    1
    13    13    14    1
    14    14    15   ar
    15    15    16   ar
    16    16    17   ar
    17    17    18   ar
    18    18    19    1
    19    19    20   ar
    20    20    21   ar
    21    21    22   ar
    22    22    23   ar
    23    23    24   ar
    24    18    25   ar
    25    12    26    1
    26    26    27    1
    27    10     5   ar
    28    25    14   ar
    29    27     8    1
    30    24    19   ar
    31     3    28    1
    32     4    29    1
    33     6    30    1
    34     7    31    1
    35    10    32    1
    36    11    33    1
    37    11    34    1
    38    12    35    1
    39    13    36    1
    40    16    37    1
    41    17    38    1
    42    20    39    1
    43    21    40    1
    44    22    41    1
    45    24    42    1
    46    26    43    1
    47    26    44    1
    48    27    45    1
    49    27    46    1
