@<TRIPOS>MOLECULE
*****
 45 46 0 0 0
SMALL
GASTEIGER

@<TRIPOS>ATOM
      1 C          -3.0502   -1.8766    2.3199 C.3     1  UNL1       -0.0370
      2 C          -3.4997   -1.3511    0.9951 C.3     1  UNL1        0.0766
      3 C          -4.3430   -2.4310    0.3516 C.3     1  UNL1       -0.0370
      4 O          -2.5202   -0.8683    0.1822 O.3     1  UNL1       -0.2733
      5 N          -2.6268    0.3884   -0.2329 N.3     1  UNL1       -0.0453
      6 C          -2.1986    1.2976    0.7957 C.3     1  UNL1        0.1256
      7 C          -2.9263    2.5912    0.7556 C.2     1  UNL1        0.2536
      8 O          -2.6321    3.4758    1.6095 O.2     1  UNL1       -0.2722
      9 N          -3.9277    2.8951   -0.1774 N.am    1  UNL1       -0.1963
     10 O          -4.5404    4.1131   -0.1353 O.3     1  UNL1       -0.2951
     11 S          -1.6127    0.6566   -1.6294 S.O2    1  UNL1        0.0830
     12 O          -1.7501    2.0696   -2.1196 O.2     1  UNL1       -0.1509
     13 O          -2.0270   -0.2372   -2.7636 O.2     1  UNL1       -0.1509
     14 C           0.0552    0.3306   -1.2830 C.ar    1  UNL1        0.1077
     15 C           0.8652    1.3560   -0.8598 C.ar    1  UNL1       -0.0347
     16 C           2.1932    1.1663   -0.5644 C.ar    1  UNL1       -0.0522
     17 C           2.7779   -0.0801   -0.6821 C.ar    1  UNL1       -0.0178
     18 C           4.1778   -0.2952   -0.3721 C.ar    1  UNL1       -0.0179
     19 C           4.8879   -1.2595   -1.0464 C.ar    1  UNL1       -0.0540
     20 C           6.2392   -1.4810   -0.7589 C.ar    1  UNL1       -0.0612
     21 C           6.8616   -0.7165    0.2173 C.ar    1  UNL1       -0.0617
     22 C           6.1317    0.2498    0.8861 C.ar    1  UNL1       -0.0612
     23 C           4.8002    0.4570    0.5919 C.ar    1  UNL1       -0.0540
     24 C           1.9704   -1.1252   -1.1090 C.ar    1  UNL1       -0.0522
     25 C           0.6308   -0.9050   -1.4008 C.ar    1  UNL1       -0.0347
     26 H          -3.9699   -1.9217    2.9757 H       1  UNL1        0.0255
     27 H          -2.7345   -2.9590    2.2495 H       1  UNL1        0.0255
     28 H          -2.3259   -1.2697    2.8609 H       1  UNL1        0.0255
     29 H          -4.2255   -0.5121    1.1949 H       1  UNL1        0.0611
     30 H          -5.2951   -2.0474   -0.0615 H       1  UNL1        0.0255
     31 H          -3.8067   -2.9306   -0.4882 H       1  UNL1        0.0255
     32 H          -4.6112   -3.2337    1.0685 H       1  UNL1        0.0255
     33 H          -2.4256    0.8778    1.8196 H       1  UNL1        0.0565
     34 H          -1.1203    1.5179    0.8017 H       1  UNL1        0.0565
     35 H          -4.2037    2.1814   -0.9054 H       1  UNL1        0.1822
     36 H          -4.8894    4.2955    0.7598 H       1  UNL1        0.2414
     37 H           0.4899    2.3826   -0.7379 H       1  UNL1        0.0637
     38 H           2.8007    1.9974   -0.2336 H       1  UNL1        0.0624
     39 H           4.3907   -1.8402   -1.7972 H       1  UNL1        0.0624
     40 H           6.7820   -2.2510   -1.3066 H       1  UNL1        0.0618
     41 H           7.9061   -0.8963    0.4314 H       1  UNL1        0.0618
     42 H           6.6650    0.8196    1.6396 H       1  UNL1        0.0618
     43 H           4.2391    1.2123    1.1178 H       1  UNL1        0.0624
     44 H           2.3588   -2.1111   -1.2203 H       1  UNL1        0.0624
     45 H           0.0388   -1.7320   -1.7268 H       1  UNL1        0.0637
@<TRIPOS>BOND
     1     1     2    1
     2     2     3    1
     3     2     4    1
     4     4     5    1
     5     5     6    1
     6     6     7    1
     7     7     8    2
     8     7     9   am
     9     9    10    1
    10     5    11    1
    11    11    12    2
    12    11    13    2
    13    11    14    1
    14    14    15   ar
    15    15    16   ar
    16    16    17   ar
    17    17    18    1
    18    18    19   ar
    19    19    20   ar
    20    20    21   ar
    21    21    22   ar
    22    22    23   ar
    23    17    24   ar
    24    24    25   ar
    25    25    14   ar
    26    23    18   ar
    27     1    26    1
    28     1    27    1
    29     1    28    1
    30     2    29    1
    31     3    30    1
    32     3    31    1
    33     3    32    1
    34     6    33    1
    35     6    34    1
    36     9    35    1
    37    10    36    1
    38    15    37    1
    39    16    38    1
    40    19    39    1
    41    20    40    1
    42    21    41    1
    43    22    42    1
    44    23    43    1
    45    24    44    1
    46    25    45    1
