
     RDKit          3D

 45 46  0  0  0  0  0  0  0  0999 V2000
   -3.0502   -1.8766    2.3199 C   0  0  0  0  0  0  0  0  0  0  0  0
   -3.4997   -1.3511    0.9951 C   0  0  0  0  0  0  0  0  0  0  0  0
   -4.3430   -2.4310    0.3516 C   0  0  0  0  0  0  0  0  0  0  0  0
   -2.5202   -0.8683    0.1822 O   0  0  0  0  0  0  0  0  0  0  0  0
   -2.6268    0.3884   -0.2329 N   0  0  0  0  0  0  0  0  0  0  0  0
   -2.1986    1.2976    0.7957 C   0  0  0  0  0  0  0  0  0  0  0  0
   -2.9263    2.5912    0.7556 C   0  0  0  0  0  0  0  0  0  0  0  0
   -2.6321    3.4758    1.6095 O   0  0  0  0  0  0  0  0  0  0  0  0
   -3.9277    2.8951   -0.1774 N   0  0  0  0  0  0  0  0  0  0  0  0
   -4.5404    4.1131   -0.1353 O   0  0  0  0  0  0  0  0  0  0  0  0
   -1.6127    0.6566   -1.6294 S   0  0  0  0  0  6  0  0  0  0  0  0
   -1.7501    2.0696   -2.1196 O   0  0  0  0  0  0  0  0  0  0  0  0
   -2.0270   -0.2372   -2.7636 O   0  0  0  0  0  0  0  0  0  0  0  0
    0.0552    0.3306   -1.2830 C   0  0  0  0  0  0  0  0  0  0  0  0
    0.8652    1.3560   -0.8598 C   0  0  0  0  0  0  0  0  0  0  0  0
    2.1932    1.1663   -0.5644 C   0  0  0  0  0  0  0  0  0  0  0  0
    2.7779   -0.0801   -0.6821 C   0  0  0  0  0  0  0  0  0  0  0  0
    4.1778   -0.2952   -0.3721 C   0  0  0  0  0  0  0  0  0  0  0  0
    4.8879   -1.2595   -1.0464 C   0  0  0  0  0  0  0  0  0  0  0  0
    6.2392   -1.4810   -0.7589 C   0  0  0  0  0  0  0  0  0  0  0  0
    6.8616   -0.7165    0.2173 C   0  0  0  0  0  0  0  0  0  0  0  0
    6.1317    0.2498    0.8861 C   0  0  0  0  0  0  0  0  0  0  0  0
    4.8002    0.4570    0.5919 C   0  0  0  0  0  0  0  0  0  0  0  0
    1.9704   -1.1252   -1.1090 C   0  0  0  0  0  0  0  0  0  0  0  0
    0.6308   -0.9050   -1.4008 C   0  0  0  0  0  0  0  0  0  0  0  0
   -3.9699   -1.9217    2.9757 H   0  0  0  0  0  0  0  0  0  0  0  0
   -2.7345   -2.9590    2.2495 H   0  0  0  0  0  0  0  0  0  0  0  0
   -2.3259   -1.2697    2.8609 H   0  0  0  0  0  0  0  0  0  0  0  0
   -4.2255   -0.5121    1.1949 H   0  0  0  0  0  0  0  0  0  0  0  0
   -5.2951   -2.0474   -0.0615 H   0  0  0  0  0  0  0  0  0  0  0  0
   -3.8067   -2.9306   -0.4882 H   0  0  0  0  0  0  0  0  0  0  0  0
   -4.6112   -3.2337    1.0685 H   0  0  0  0  0  0  0  0  0  0  0  0
   -2.4256    0.8778    1.8196 H   0  0  0  0  0  0  0  0  0  0  0  0
   -1.1203    1.5179    0.8017 H   0  0  0  0  0  0  0  0  0  0  0  0
   -4.2037    2.1814   -0.9054 H   0  0  0  0  0  0  0  0  0  0  0  0
   -4.8894    4.2955    0.7598 H   0  0  0  0  0  0  0  0  0  0  0  0
    0.4899    2.3826   -0.7379 H   0  0  0  0  0  0  0  0  0  0  0  0
    2.8007    1.9974   -0.2336 H   0  0  0  0  0  0  0  0  0  0  0  0
    4.3907   -1.8402   -1.7972 H   0  0  0  0  0  0  0  0  0  0  0  0
    6.7820   -2.2510   -1.3066 H   0  0  0  0  0  0  0  0  0  0  0  0
    7.9061   -0.8963    0.4314 H   0  0  0  0  0  0  0  0  0  0  0  0
    6.6650    0.8196    1.6396 H   0  0  0  0  0  0  0  0  0  0  0  0
    4.2391    1.2123    1.1178 H   0  0  0  0  0  0  0  0  0  0  0  0
    2.3588   -2.1111   -1.2203 H   0  0  0  0  0  0  0  0  0  0  0  0
    0.0388   -1.7320   -1.7268 H   0  0  0  0  0  0  0  0  0  0  0  0
  1  2  1  0
  2  3  1  0
  2  4  1  0
  4  5  1  0
  5  6  1  0
  6  7  1  0
  7  8  2  0
  7  9  1  0
  9 10  1  0
  5 11  1  0
 11 12  2  0
 11 13  2  0
 11 14  1  0
 14 15  2  0
 15 16  1  0
 16 17  2  0
 17 18  1  0
 18 19  2  0
 19 20  1  0
 20 21  2  0
 21 22  1  0
 22 23  2  0
 17 24  1  0
 24 25  2  0
 25 14  1  0
 23 18  1  0
  1 26  1  0
  1 27  1  0
  1 28  1  0
  2 29  1  0
  3 30  1  0
  3 31  1  0
  3 32  1  0
  6 33  1  0
  6 34  1  0
  9 35  1  0
 10 36  1  0
 15 37  1  0
 16 38  1  0
 19 39  1  0
 20 40  1  0
 21 41  1  0
 22 42  1  0
 23 43  1  0
 24 44  1  0
 25 45  1  0
M  END
$$$$
