@<TRIPOS>MOLECULE
*****
 61 65 0 0 0
SMALL
GASTEIGER

@<TRIPOS>ATOM
      1 C          -5.4668   -0.0597   -1.8155 C.3     1  UNL1       -0.0275
      2 C          -4.8130    0.3504   -0.4763 C.3     1  UNL1        0.1021
      3 O          -3.4976    0.2513   -0.5393 O.3     1  UNL1       -0.4880
      4 C          -2.3958   -0.3043   -0.0883 C.ar    1  UNL1        0.1321
      5 C          -1.1395    0.0915   -0.6588 C.ar    1  UNL1       -0.0113
      6 C           0.0343   -0.4388   -0.2436 C.ar    1  UNL1       -0.0094
      7 C           1.3093   -0.0132   -0.8485 C.ar    1  UNL1        0.0198
      8 C           1.5458    0.3973   -2.1429 C.ar    1  UNL1        0.0571
      9 N           2.8516    0.7026   -2.2944 N.ar    1  UNL1       -0.1788
     10 N           3.4506    0.4932   -1.1174 N.ar    1  UNL1       -0.2677
     11 C           4.8610    0.7031   -0.8529 C.3     1  UNL1        0.0550
     12 C           5.5218   -0.5582   -0.3435 C.3     1  UNL1       -0.0176
     13 C           6.8129   -0.8488   -1.0763 C.3     1  UNL1        0.0005
     14 N           7.6451    0.2964   -1.2541 N.3     1  UNL1       -0.3052
     15 C           8.4559    0.6046   -0.1017 C.3     1  UNL1       -0.0128
     16 C           6.9854    1.4557   -1.7661 C.3     1  UNL1        0.0005
     17 C           5.5679    1.0830   -2.1346 C.3     1  UNL1       -0.0176
     18 C           2.5359    0.0582   -0.2224 C.ar    1  UNL1        0.0335
     19 C           0.0087   -1.3774    0.7482 C.ar    1  UNL1       -0.0259
     20 C          -1.1787   -1.7954    1.3336 C.ar    1  UNL1        0.0968
     21 N          -1.4469   -2.6915    2.3086 N.ar    1  UNL1       -0.1713
     22 N          -2.7435   -2.7306    2.5068 N.ar    1  UNL1       -0.2732
     23 C          -3.4097   -3.5750    3.4754 C.3     1  UNL1        0.0302
     24 C          -3.3756   -1.8657    1.6738 C.ar    1  UNL1        0.0364
     25 C          -2.3860   -1.2675    0.9249 C.ar    1  UNL1        0.0614
     26 C          -5.3177    1.7895   -0.2142 C.3     1  UNL1        0.0195
     27 C          -6.8272    1.7151   -0.1320 C.3     1  UNL1        0.0182
     28 N          -6.9858    0.8659    1.0360 N.am    1  UNL1       -0.3149
     29 C          -5.9741    1.2599    1.9530 C.2     1  UNL1        0.2135
     30 O          -5.9796    0.9135    3.1598 O.2     1  UNL1       -0.2758
     31 C          -4.9681    2.1165    1.2287 C.3     1  UNL1        0.0315
     32 H          -5.5257    0.7916   -2.5049 H       1  UNL1        0.0265
     33 H          -6.4812   -0.4131   -1.6054 H       1  UNL1        0.0265
     34 H          -4.8020   -0.8096   -2.2500 H       1  UNL1        0.0265
     35 H          -5.3564   -0.2425    0.2767 H       1  UNL1        0.0733
     36 H          -1.2040    0.8478   -1.4476 H       1  UNL1        0.0660
     37 H           0.7454    0.4451   -2.8886 H       1  UNL1        0.0854
     38 H           5.0161    1.5426   -0.1309 H       1  UNL1        0.0545
     39 H           4.8652   -1.4544   -0.5000 H       1  UNL1        0.0298
     40 H           5.7657   -0.4734    0.7351 H       1  UNL1        0.0298
     41 H           6.6099   -1.4005   -2.0147 H       1  UNL1        0.0427
     42 H           7.3860   -1.5732   -0.4291 H       1  UNL1        0.0427
     43 H           8.7240    1.6872   -0.1520 H       1  UNL1        0.0391
     44 H           9.4150    0.0439   -0.0917 H       1  UNL1        0.0391
     45 H           7.9160    0.4418    0.8557 H       1  UNL1        0.0391
     46 H           7.5201    1.9456   -2.6096 H       1  UNL1        0.0427
     47 H           6.9041    2.1967   -0.9326 H       1  UNL1        0.0427
     48 H           5.5575    0.1902   -2.8080 H       1  UNL1        0.0298
     49 H           5.0118    1.9351   -2.5768 H       1  UNL1        0.0298
     50 H           2.7920   -0.1771    0.8012 H       1  UNL1        0.0832
     51 H           0.9411   -1.8039    1.0837 H       1  UNL1        0.0646
     52 H          -3.3845   -3.0814    4.4772 H       1  UNL1        0.0473
     53 H          -4.4454   -3.7225    3.1566 H       1  UNL1        0.0473
     54 H          -2.8287   -4.5257    3.5204 H       1  UNL1        0.0473
     55 H          -4.4258   -1.6847    1.6094 H       1  UNL1        0.0833
     56 H          -4.9351    2.5026   -0.9382 H       1  UNL1        0.0356
     57 H          -7.2665    2.7200    0.0988 H       1  UNL1        0.0466
     58 H          -7.3167    1.3373   -1.0280 H       1  UNL1        0.0466
     59 H          -7.7160    0.1309    1.1245 H       1  UNL1        0.1487
     60 H          -3.9391    1.8247    1.4824 H       1  UNL1        0.0363
     61 H          -5.2230    3.1568    1.4356 H       1  UNL1        0.0363
@<TRIPOS>BOND
     1     1     2    1
     2     2     3    1
     3     3     4    1
     4     4     5   ar
     5     5     6   ar
     6     6     7    1
     7     7     8   ar
     8     8     9   ar
     9     9    10   ar
    10    10    11    1
    11    11    12    1
    12    12    13    1
    13    13    14    1
    14    14    15    1
    15    14    16    1
    16    16    17    1
    17    10    18   ar
    18     6    19   ar
    19    19    20   ar
    20    20    21   ar
    21    21    22   ar
    22    22    23    1
    23    22    24   ar
    24    24    25   ar
    25     2    26    1
    26    26    27    1
    27    27    28    1
    28    28    29   am
    29    29    30    2
    30    29    31    1
    31    25     4   ar
    32    31    26    1
    33    18     7   ar
    34    25    20   ar
    35    17    11    1
    36     1    32    1
    37     1    33    1
    38     1    34    1
    39     2    35    1
    40     5    36    1
    41     8    37    1
    42    11    38    1
    43    12    39    1
    44    12    40    1
    45    13    41    1
    46    13    42    1
    47    15    43    1
    48    15    44    1
    49    15    45    1
    50    16    46    1
    51    16    47    1
    52    17    48    1
    53    17    49    1
    54    18    50    1
    55    19    51    1
    56    23    52    1
    57    23    53    1
    58    23    54    1
    59    24    55    1
    60    26    56    1
    61    27    57    1
    62    27    58    1
    63    28    59    1
    64    31    60    1
    65    31    61    1
