@<TRIPOS>MOLECULE
*****
 70 74 0 0 0
SMALL
GASTEIGER

@<TRIPOS>ATOM
      1 C          -0.4839   -0.5874   -3.1227 C.3     1  UNL1       -0.0421
      2 C          -0.4726   -1.3627   -1.7975 C.3     1  UNL1        0.0515
      3 C           0.8873   -1.3247   -1.1966 C.ar    1  UNL1       -0.0271
      4 C           1.1253   -1.6688    0.1141 C.ar    1  UNL1       -0.0562
      5 C           2.4098   -1.6262    0.6577 C.ar    1  UNL1       -0.0537
      6 C           3.4916   -1.2360   -0.1022 C.ar    1  UNL1       -0.0165
      7 C           4.8492   -1.1908    0.4674 C.ar    1  UNL1       -0.0015
      8 C           5.2372   -2.0770    1.4534 C.ar    1  UNL1       -0.0475
      9 C           6.5062   -2.0382    1.9869 C.ar    1  UNL1        0.0036
     10 C           7.4324   -1.0936    1.5370 C.ar    1  UNL1        0.2516
     11 O           8.5830   -1.0455    2.0089 O.2     1  UNL1       -0.2677
     12 N           7.0502   -0.2383    0.5818 N.ar    1  UNL1       -0.3116
     13 C           7.9374    0.7596    0.0650 C.3     1  UNL1        0.0375
     14 C           8.6932    1.5554    1.1263 C.3     1  UNL1       -0.0301
     15 C           9.3968    0.6956    0.0877 C.3     1  UNL1       -0.0301
     16 C           5.7887   -0.2796    0.0540 C.ar    1  UNL1        0.0159
     17 C           3.2549   -0.8905   -1.4168 C.ar    1  UNL1       -0.0537
     18 C           1.9754   -0.9352   -1.9505 C.ar    1  UNL1       -0.0562
     19 N          -1.4837   -0.7966   -0.9659 N.am    1  UNL1       -0.2605
     20 C          -1.4273    0.5555   -0.3980 C.3     1  UNL1        0.0224
     21 C          -2.8174    1.1452   -0.5826 C.3     1  UNL1        0.0076
     22 C          -3.8616    0.4371    0.2348 C.3     1  UNL1        0.1440
     23 C          -5.2437    0.8222   -0.1686 C.3     1  UNL1        0.0199
     24 C          -5.6668    0.5589   -1.5553 C.3     1  UNL1        0.0645
     25 C          -5.6060   -0.8928   -1.9585 C.3     1  UNL1       -0.0362
     26 C          -7.1745    0.9186   -1.6151 C.3     1  UNL1       -0.0362
     27 O          -5.0899    1.3221   -2.5466 O.3     1  UNL1       -0.3890
     28 C          -3.7520    0.8166    1.6891 C.ar    1  UNL1       -0.0040
     29 C          -2.8862    1.7786    2.1254 C.ar    1  UNL1       -0.0548
     30 C          -2.8489    2.0514    3.4881 C.ar    1  UNL1       -0.0614
     31 C          -3.6612    1.3714    4.3693 C.ar    1  UNL1       -0.0617
     32 C          -4.5356    0.4005    3.9312 C.ar    1  UNL1       -0.0614
     33 C          -4.5557    0.1459    2.5730 C.ar    1  UNL1       -0.0548
     34 O          -3.6285   -0.9527    0.1392 O.3     1  UNL1       -0.4387
     35 C          -2.6450   -1.5390   -0.6297 C.2     1  UNL1        0.4042
     36 O          -2.7852   -2.7114   -1.0207 O.2     1  UNL1       -0.2262
     37 H           0.0252    0.3728   -2.9828 H       1  UNL1        0.0251
     38 H          -1.5534   -0.4426   -3.3725 H       1  UNL1        0.0251
     39 H           0.0008   -1.2507   -3.8654 H       1  UNL1        0.0251
     40 H          -0.7713   -2.3922   -2.0799 H       1  UNL1        0.0549
     41 H           0.2967   -1.9788    0.7347 H       1  UNL1        0.0621
     42 H           2.5886   -1.8991    1.6919 H       1  UNL1        0.0624
     43 H           4.5158   -2.8132    1.8045 H       1  UNL1        0.0626
     44 H           6.8461   -2.7146    2.7588 H       1  UNL1        0.0672
     45 H           7.4937    1.4243   -0.7143 H       1  UNL1        0.0529
     46 H           8.7596    2.6608    1.0144 H       1  UNL1        0.0286
     47 H           8.6566    1.2525    2.1769 H       1  UNL1        0.0286
     48 H          10.0145   -0.0963    0.5061 H       1  UNL1        0.0286
     49 H           9.9423    1.2998   -0.6807 H       1  UNL1        0.0286
     50 H           5.4717    0.4123   -0.7221 H       1  UNL1        0.0816
     51 H           4.1020   -0.5858   -2.0093 H       1  UNL1        0.0624
     52 H           1.8323   -0.6556   -2.9890 H       1  UNL1        0.0621
     53 H          -0.7232    1.2053   -0.9264 H       1  UNL1        0.0467
     54 H          -1.1223    0.4251    0.6374 H       1  UNL1        0.0467
     55 H          -2.8397    2.2361   -0.5016 H       1  UNL1        0.0322
     56 H          -3.0540    0.9229   -1.6656 H       1  UNL1        0.0322
     57 H          -6.0250    0.3696    0.5095 H       1  UNL1        0.0335
     58 H          -5.3761    1.9297    0.0121 H       1  UNL1        0.0335
     59 H          -6.4614   -1.1574   -2.6134 H       1  UNL1        0.0257
     60 H          -5.5946   -1.5843   -1.1169 H       1  UNL1        0.0257
     61 H          -4.6981   -1.0440   -2.6139 H       1  UNL1        0.0257
     62 H          -7.6846    0.2990   -2.3691 H       1  UNL1        0.0257
     63 H          -7.2794    2.0087   -1.7964 H       1  UNL1        0.0257
     64 H          -7.6267    0.6923   -0.6289 H       1  UNL1        0.0257
     65 H          -5.2571    0.8416   -3.4144 H       1  UNL1        0.2101
     66 H          -2.2328    2.3406    1.4398 H       1  UNL1        0.0622
     67 H          -2.1624    2.8129    3.8303 H       1  UNL1        0.0618
     68 H          -3.6297    1.5892    5.4448 H       1  UNL1        0.0618
     69 H          -5.1846   -0.1497    4.5934 H       1  UNL1        0.0618
     70 H          -5.2623   -0.6340    2.2452 H       1  UNL1        0.0622
@<TRIPOS>BOND
     1     1     2    1
     2     2     3    1
     3     3     4   ar
     4     4     5   ar
     5     5     6   ar
     6     6     7    1
     7     7     8   ar
     8     8     9   ar
     9     9    10   ar
    10    10    11    2
    11    10    12   ar
    12    12    13    1
    13    13    14    1
    14    14    15    1
    15    12    16   ar
    16     6    17   ar
    17    17    18   ar
    18     2    19    1
    19    19    20    1
    20    20    21    1
    21    21    22    1
    22    22    23    1
    23    23    24    1
    24    24    25    1
    25    24    26    1
    26    24    27    1
    27    22    28    1
    28    28    29   ar
    29    29    30   ar
    30    30    31   ar
    31    31    32   ar
    32    32    33   ar
    33    22    34    1
    34    34    35    1
    35    35    36    2
    36    18     3   ar
    37    35    19   am
    38    16     7   ar
    39    33    28   ar
    40    15    13    1
    41     1    37    1
    42     1    38    1
    43     1    39    1
    44     2    40    1
    45     4    41    1
    46     5    42    1
    47     8    43    1
    48     9    44    1
    49    13    45    1
    50    14    46    1
    51    14    47    1
    52    15    48    1
    53    15    49    1
    54    16    50    1
    55    17    51    1
    56    18    52    1
    57    20    53    1
    58    20    54    1
    59    21    55    1
    60    21    56    1
    61    23    57    1
    62    23    58    1
    63    25    59    1
    64    25    60    1
    65    25    61    1
    66    26    62    1
    67    26    63    1
    68    26    64    1
    69    27    65    1
    70    29    66    1
    71    30    67    1
    72    31    68    1
    73    32    69    1
    74    33    70    1
