
     RDKit          3D

 70 74  0  0  0  0  0  0  0  0999 V2000
   -0.4839   -0.5874   -3.1227 C   0  0  0  0  0  0  0  0  0  0  0  0
   -0.4726   -1.3627   -1.7975 C   0  0  1  0  0  0  0  0  0  0  0  0
    0.8873   -1.3247   -1.1966 C   0  0  0  0  0  0  0  0  0  0  0  0
    1.1253   -1.6688    0.1141 C   0  0  0  0  0  0  0  0  0  0  0  0
    2.4098   -1.6262    0.6577 C   0  0  0  0  0  0  0  0  0  0  0  0
    3.4916   -1.2360   -0.1022 C   0  0  0  0  0  0  0  0  0  0  0  0
    4.8492   -1.1908    0.4674 C   0  0  0  0  0  0  0  0  0  0  0  0
    5.2372   -2.0770    1.4534 C   0  0  0  0  0  0  0  0  0  0  0  0
    6.5062   -2.0382    1.9869 C   0  0  0  0  0  0  0  0  0  0  0  0
    7.4324   -1.0936    1.5370 C   0  0  0  0  0  0  0  0  0  0  0  0
    8.5830   -1.0455    2.0089 O   0  0  0  0  0  0  0  0  0  0  0  0
    7.0502   -0.2383    0.5818 N   0  0  0  0  0  0  0  0  0  0  0  0
    7.9374    0.7596    0.0650 C   0  0  0  0  0  0  0  0  0  0  0  0
    8.6932    1.5554    1.1263 C   0  0  0  0  0  0  0  0  0  0  0  0
    9.3968    0.6956    0.0877 C   0  0  0  0  0  0  0  0  0  0  0  0
    5.7887   -0.2796    0.0540 C   0  0  0  0  0  0  0  0  0  0  0  0
    3.2549   -0.8905   -1.4168 C   0  0  0  0  0  0  0  0  0  0  0  0
    1.9754   -0.9352   -1.9505 C   0  0  0  0  0  0  0  0  0  0  0  0
   -1.4837   -0.7966   -0.9659 N   0  0  0  0  0  0  0  0  0  0  0  0
   -1.4273    0.5555   -0.3980 C   0  0  0  0  0  0  0  0  0  0  0  0
   -2.8174    1.1452   -0.5826 C   0  0  0  0  0  0  0  0  0  0  0  0
   -3.8616    0.4371    0.2348 C   0  0  2  0  0  0  0  0  0  0  0  0
   -5.2437    0.8222   -0.1686 C   0  0  0  0  0  0  0  0  0  0  0  0
   -5.6668    0.5589   -1.5553 C   0  0  0  0  0  0  0  0  0  0  0  0
   -5.6060   -0.8928   -1.9585 C   0  0  0  0  0  0  0  0  0  0  0  0
   -7.1745    0.9186   -1.6151 C   0  0  0  0  0  0  0  0  0  0  0  0
   -5.0899    1.3221   -2.5466 O   0  0  0  0  0  0  0  0  0  0  0  0
   -3.7520    0.8166    1.6891 C   0  0  0  0  0  0  0  0  0  0  0  0
   -2.8862    1.7786    2.1254 C   0  0  0  0  0  0  0  0  0  0  0  0
   -2.8489    2.0514    3.4881 C   0  0  0  0  0  0  0  0  0  0  0  0
   -3.6612    1.3714    4.3693 C   0  0  0  0  0  0  0  0  0  0  0  0
   -4.5356    0.4005    3.9312 C   0  0  0  0  0  0  0  0  0  0  0  0
   -4.5557    0.1459    2.5730 C   0  0  0  0  0  0  0  0  0  0  0  0
   -3.6285   -0.9527    0.1392 O   0  0  0  0  0  0  0  0  0  0  0  0
   -2.6450   -1.5390   -0.6297 C   0  0  0  0  0  0  0  0  0  0  0  0
   -2.7852   -2.7114   -1.0207 O   0  0  0  0  0  0  0  0  0  0  0  0
    0.0252    0.3728   -2.9828 H   0  0  0  0  0  0  0  0  0  0  0  0
   -1.5534   -0.4426   -3.3725 H   0  0  0  0  0  0  0  0  0  0  0  0
    0.0008   -1.2507   -3.8654 H   0  0  0  0  0  0  0  0  0  0  0  0
   -0.7713   -2.3922   -2.0799 H   0  0  0  0  0  0  0  0  0  0  0  0
    0.2967   -1.9788    0.7347 H   0  0  0  0  0  0  0  0  0  0  0  0
    2.5886   -1.8991    1.6919 H   0  0  0  0  0  0  0  0  0  0  0  0
    4.5158   -2.8132    1.8045 H   0  0  0  0  0  0  0  0  0  0  0  0
    6.8461   -2.7146    2.7588 H   0  0  0  0  0  0  0  0  0  0  0  0
    7.4937    1.4243   -0.7143 H   0  0  0  0  0  0  0  0  0  0  0  0
    8.7596    2.6608    1.0144 H   0  0  0  0  0  0  0  0  0  0  0  0
    8.6566    1.2525    2.1769 H   0  0  0  0  0  0  0  0  0  0  0  0
   10.0145   -0.0963    0.5061 H   0  0  0  0  0  0  0  0  0  0  0  0
    9.9423    1.2998   -0.6807 H   0  0  0  0  0  0  0  0  0  0  0  0
    5.4717    0.4123   -0.7221 H   0  0  0  0  0  0  0  0  0  0  0  0
    4.1020   -0.5858   -2.0093 H   0  0  0  0  0  0  0  0  0  0  0  0
    1.8323   -0.6556   -2.9890 H   0  0  0  0  0  0  0  0  0  0  0  0
   -0.7232    1.2053   -0.9264 H   0  0  0  0  0  0  0  0  0  0  0  0
   -1.1223    0.4251    0.6374 H   0  0  0  0  0  0  0  0  0  0  0  0
   -2.8397    2.2361   -0.5016 H   0  0  0  0  0  0  0  0  0  0  0  0
   -3.0540    0.9229   -1.6656 H   0  0  0  0  0  0  0  0  0  0  0  0
   -6.0250    0.3696    0.5095 H   0  0  0  0  0  0  0  0  0  0  0  0
   -5.3761    1.9297    0.0121 H   0  0  0  0  0  0  0  0  0  0  0  0
   -6.4614   -1.1574   -2.6134 H   0  0  0  0  0  0  0  0  0  0  0  0
   -5.5946   -1.5843   -1.1169 H   0  0  0  0  0  0  0  0  0  0  0  0
   -4.6981   -1.0440   -2.6139 H   0  0  0  0  0  0  0  0  0  0  0  0
   -7.6846    0.2990   -2.3691 H   0  0  0  0  0  0  0  0  0  0  0  0
   -7.2794    2.0087   -1.7964 H   0  0  0  0  0  0  0  0  0  0  0  0
   -7.6267    0.6923   -0.6289 H   0  0  0  0  0  0  0  0  0  0  0  0
   -5.2571    0.8416   -3.4144 H   0  0  0  0  0  0  0  0  0  0  0  0
   -2.2328    2.3406    1.4398 H   0  0  0  0  0  0  0  0  0  0  0  0
   -2.1624    2.8129    3.8303 H   0  0  0  0  0  0  0  0  0  0  0  0
   -3.6297    1.5892    5.4448 H   0  0  0  0  0  0  0  0  0  0  0  0
   -5.1846   -0.1497    4.5934 H   0  0  0  0  0  0  0  0  0  0  0  0
   -5.2623   -0.6340    2.2452 H   0  0  0  0  0  0  0  0  0  0  0  0
  1  2  1  0
  2  3  1  0
  3  4  2  0
  4  5  1  0
  5  6  2  0
  6  7  1  0
  7  8  1  0
  8  9  2  0
  9 10  1  0
 10 11  2  0
 10 12  1  0
 12 13  1  0
 13 14  1  0
 14 15  1  0
 12 16  1  0
  6 17  1  0
 17 18  2  0
  2 19  1  0
 19 20  1  0
 20 21  1  0
 21 22  1  0
 22 23  1  6
 23 24  1  0
 24 25  1  0
 24 26  1  0
 24 27  1  0
 22 28  1  0
 28 29  2  0
 29 30  1  0
 30 31  2  0
 31 32  1  0
 32 33  2  0
 22 34  1  0
 34 35  1  0
 35 36  2  0
 18  3  1  0
 35 19  1  0
 16  7  2  0
 33 28  1  0
 15 13  1  0
  1 37  1  0
  1 38  1  0
  1 39  1  0
  2 40  1  6
  4 41  1  0
  5 42  1  0
  8 43  1  0
  9 44  1  0
 13 45  1  0
 14 46  1  0
 14 47  1  0
 15 48  1  0
 15 49  1  0
 16 50  1  0
 17 51  1  0
 18 52  1  0
 20 53  1  0
 20 54  1  0
 21 55  1  0
 21 56  1  0
 23 57  1  0
 23 58  1  0
 25 59  1  0
 25 60  1  0
 25 61  1  0
 26 62  1  0
 26 63  1  0
 26 64  1  0
 27 65  1  0
 29 66  1  0
 30 67  1  0
 31 68  1  0
 32 69  1  0
 33 70  1  0
M  END
$$$$
