
     RDKit          3D

 32 34  0  0  0  0  0  0  0  0999 V2000
    5.2352    0.8724    0.1979 N   0  0  0  0  0  0  0  0  0  0  0  0
    4.0770    0.2794   -0.3270 C   0  0  0  0  0  0  0  0  0  0  0  0
    2.8288    0.7804    0.0348 C   0  0  0  0  0  0  0  0  0  0  0  0
    2.3822    1.7749    0.8276 N   0  0  0  0  0  0  0  0  0  0  0  0
    1.0238    1.7635    0.7686 C   0  0  0  0  0  0  0  0  0  0  0  0
    0.6510    0.7708   -0.0528 N   0  0  0  0  0  0  0  0  0  0  0  0
   -0.6853    0.4009   -0.4027 C   0  0  2  0  0  0  0  0  0  0  0  0
   -1.6599    0.9306    0.4320 O   0  0  0  0  0  0  0  0  0  0  0  0
   -2.7537    0.1270    0.0682 C   0  0  2  0  0  0  0  0  0  0  0  0
   -3.9801    0.4331    0.8753 C   0  0  0  0  0  0  0  0  0  0  0  0
   -4.3065    1.7739    0.6546 O   0  0  0  0  0  0  0  0  0  0  0  0
   -2.1888   -1.2461    0.3640 C   0  0  1  0  0  0  0  0  0  0  0  0
   -2.9562   -2.2573   -0.1953 O   0  0  0  0  0  0  0  0  0  0  0  0
   -0.8262   -1.1176   -0.2981 C   0  0  1  0  0  0  0  0  0  0  0  0
   -0.7856   -1.6925   -1.5599 O   0  0  0  0  0  0  0  0  0  0  0  0
    1.7384    0.1433   -0.5234 C   0  0  0  0  0  0  0  0  0  0  0  0
    1.9335   -0.8930   -1.3595 N   0  0  0  0  0  0  0  0  0  0  0  0
    3.1323   -1.3516   -1.6886 C   0  0  0  0  0  0  0  0  0  0  0  0
    4.2127   -0.7528   -1.1619 N   0  0  0  0  0  0  0  0  0  0  0  0
    5.3460    1.8189   -0.2460 H   0  0  0  0  0  0  0  0  0  0  0  0
    6.0648    0.8368    0.8297 H   0  0  0  0  0  0  0  0  0  0  0  0
    0.4252    2.4655    1.3178 H   0  0  0  0  0  0  0  0  0  0  0  0
   -0.9701    0.7099   -1.4453 H   0  0  0  0  0  0  0  0  0  0  0  0
   -2.9415    0.2837   -0.9880 H   0  0  0  0  0  0  0  0  0  0  0  0
   -3.8599    0.2691    1.9475 H   0  0  0  0  0  0  0  0  0  0  0  0
   -4.8036   -0.1643    0.4253 H   0  0  0  0  0  0  0  0  0  0  0  0
   -3.8527    2.1311   -0.1656 H   0  0  0  0  0  0  0  0  0  0  0  0
   -2.0466   -1.3553    1.4466 H   0  0  0  0  0  0  0  0  0  0  0  0
   -2.3861   -2.9245   -0.6501 H   0  0  0  0  0  0  0  0  0  0  0  0
   -0.0244   -1.5530    0.3261 H   0  0  0  0  0  0  0  0  0  0  0  0
   -1.2043   -1.0637   -2.2151 H   0  0  0  0  0  0  0  0  0  0  0  0
    3.1807   -2.1935   -2.3718 H   0  0  0  0  0  0  0  0  0  0  0  0
  1  2  1  0
  2  3  2  0
  3  4  1  0
  4  5  2  0
  5  6  1  0
  6  7  1  0
  7  8  1  0
  8  9  1  0
  9 10  1  0
 10 11  1  0
  9 12  1  0
 12 13  1  0
 12 14  1  0
 14 15  1  0
  6 16  1  0
 16 17  2  0
 17 18  1  0
 18 19  2  0
 19  2  1  0
 16  3  1  0
 14  7  1  0
  1 20  1  0
  1 21  1  0
  5 22  1  0
  7 23  1  6
  9 24  1  6
 10 25  1  0
 10 26  1  0
 11 27  1  0
 12 28  1  1
 13 29  1  0
 14 30  1  1
 15 31  1  0
 18 32  1  0
M  END
$$$$
