@<TRIPOS>MOLECULE
*****
 48 52 0 0 0
SMALL
GASTEIGER

@<TRIPOS>ATOM
      1 C           2.9535    1.0619   -0.4098 C.1     1  UNL1       -0.0813
      2 C           1.7802    0.7523   -0.4586 C.1     1  UNL1       -0.0620
      3 C           0.3844    0.3810   -0.5277 C.ar    1  UNL1        0.0612
      4 C          -0.3008    0.2248    0.6438 C.ar    1  UNL1        0.0468
      5 N          -1.6130   -0.1241    0.5887 N.ar    1  UNL1       -0.2343
      6 C          -2.1998   -0.3056   -0.6083 C.ar    1  UNL1        0.1632
      7 C          -3.4940   -0.6556   -0.9332 C.ar    1  UNL1        0.0467
      8 C          -4.5586   -0.9172    0.0130 C.ar    1  UNL1       -0.0022
      9 C          -4.7362   -2.2033    0.4707 C.ar    1  UNL1       -0.0351
     10 C          -5.7556   -2.5000    1.3878 C.ar    1  UNL1        0.0288
     11 N          -6.5521   -1.5187    1.8117 N.ar    1  UNL1       -0.2549
     12 C          -6.4234   -0.2544    1.3999 C.ar    1  UNL1        0.0715
     13 C          -7.2762    0.7100    1.8744 C.ar    1  UNL1       -0.0357
     14 C          -7.1271    2.0026    1.4389 C.ar    1  UNL1       -0.0597
     15 C          -6.1273    2.3065    0.5362 C.ar    1  UNL1       -0.0611
     16 C          -5.2631    1.3551    0.0490 C.ar    1  UNL1       -0.0520
     17 C          -5.4087    0.0558    0.4834 C.ar    1  UNL1        0.0082
     18 C          -3.5909   -0.7113   -2.3218 C.ar    1  UNL1        0.0597
     19 N          -2.3748   -0.3992   -2.7916 N.ar    1  UNL1       -0.1727
     20 N          -1.5563   -0.1604   -1.7795 N.ar    1  UNL1       -0.2200
     21 C          -0.2547    0.1857   -1.7247 C.ar    1  UNL1        0.0483
     22 C           4.3703    1.4223   -0.3729 C.3     1  UNL1        0.0613
     23 N           5.2181    0.4077   -0.9357 N.3     1  UNL1       -0.2891
     24 C           6.5873    0.8807   -0.8408 C.3     1  UNL1        0.0124
     25 C           7.2017    0.2705    0.3853 C.3     1  UNL1        0.0088
     26 N           7.4476   -1.1533    0.1725 N.3     1  UNL1       -0.3136
     27 C           6.3174   -1.6898   -0.5492 C.3     1  UNL1        0.0088
     28 C           5.0553   -0.8796   -0.3251 C.3     1  UNL1        0.0124
     29 H           0.2131    0.3811    1.5763 H       1  UNL1        0.0843
     30 H          -4.1211   -3.0342    0.1610 H       1  UNL1        0.0639
     31 H          -5.8888   -3.5010    1.7399 H       1  UNL1        0.0830
     32 H          -8.0573    0.4862    2.5764 H       1  UNL1        0.0639
     33 H          -7.7858    2.8123    1.7898 H       1  UNL1        0.0618
     34 H          -6.0224    3.3319    0.2018 H       1  UNL1        0.0618
     35 H          -4.4684    1.5874   -0.6663 H       1  UNL1        0.0624
     36 H          -4.4692   -0.9564   -2.8924 H       1  UNL1        0.0855
     37 H           0.3003    0.3131   -2.6354 H       1  UNL1        0.0844
     38 H           4.5754    2.3654   -0.9365 H       1  UNL1        0.0563
     39 H           4.6201    1.6638    0.6909 H       1  UNL1        0.0563
     40 H           6.6055    1.9894   -0.6931 H       1  UNL1        0.0439
     41 H           7.1655    0.6852   -1.7620 H       1  UNL1        0.0439
     42 H           8.1154    0.7935    0.7262 H       1  UNL1        0.0437
     43 H           6.4667    0.3472    1.2127 H       1  UNL1        0.0437
     44 H           8.3092   -1.2087   -0.4246 H       1  UNL1        0.1220
     45 H           6.1648   -2.7604   -0.3387 H       1  UNL1        0.0437
     46 H           6.5501   -1.6017   -1.6431 H       1  UNL1        0.0437
     47 H           4.2298   -1.4597   -0.8047 H       1  UNL1        0.0439
     48 H           4.7937   -0.7788    0.7390 H       1  UNL1        0.0439
@<TRIPOS>BOND
     1     1     2    3
     2     2     3    1
     3     3     4   ar
     4     4     5   ar
     5     5     6   ar
     6     6     7   ar
     7     7     8    1
     8     8     9   ar
     9     9    10   ar
    10    10    11   ar
    11    11    12   ar
    12    12    13   ar
    13    13    14   ar
    14    14    15   ar
    15    15    16   ar
    16    16    17   ar
    17     7    18   ar
    18    18    19   ar
    19    19    20   ar
    20    20    21   ar
    21     1    22    1
    22    22    23    1
    23    23    24    1
    24    24    25    1
    25    25    26    1
    26    26    27    1
    27    27    28    1
    28    21     3   ar
    29    28    23    1
    30    20     6   ar
    31    17     8   ar
    32    17    12   ar
    33     4    29    1
    34     9    30    1
    35    10    31    1
    36    13    32    1
    37    14    33    1
    38    15    34    1
    39    16    35    1
    40    18    36    1
    41    21    37    1
    42    22    38    1
    43    22    39    1
    44    24    40    1
    45    24    41    1
    46    25    42    1
    47    25    43    1
    48    26    44    1
    49    27    45    1
    50    27    46    1
    51    28    47    1
    52    28    48    1
