
     RDKit          3D

 48 52  0  0  0  0  0  0  0  0999 V2000
    2.9535    1.0619   -0.4098 C   0  0  0  0  0  0  0  0  0  0  0  0
    1.7802    0.7523   -0.4586 C   0  0  0  0  0  0  0  0  0  0  0  0
    0.3844    0.3810   -0.5277 C   0  0  0  0  0  0  0  0  0  0  0  0
   -0.3008    0.2248    0.6438 C   0  0  0  0  0  0  0  0  0  0  0  0
   -1.6130   -0.1241    0.5887 N   0  0  0  0  0  0  0  0  0  0  0  0
   -2.1998   -0.3056   -0.6083 C   0  0  0  0  0  0  0  0  0  0  0  0
   -3.4940   -0.6556   -0.9332 C   0  0  0  0  0  0  0  0  0  0  0  0
   -4.5586   -0.9172    0.0130 C   0  0  0  0  0  0  0  0  0  0  0  0
   -4.7362   -2.2033    0.4707 C   0  0  0  0  0  0  0  0  0  0  0  0
   -5.7556   -2.5000    1.3878 C   0  0  0  0  0  0  0  0  0  0  0  0
   -6.5521   -1.5187    1.8117 N   0  0  0  0  0  0  0  0  0  0  0  0
   -6.4234   -0.2544    1.3999 C   0  0  0  0  0  0  0  0  0  0  0  0
   -7.2762    0.7100    1.8744 C   0  0  0  0  0  0  0  0  0  0  0  0
   -7.1271    2.0026    1.4389 C   0  0  0  0  0  0  0  0  0  0  0  0
   -6.1273    2.3065    0.5362 C   0  0  0  0  0  0  0  0  0  0  0  0
   -5.2631    1.3551    0.0490 C   0  0  0  0  0  0  0  0  0  0  0  0
   -5.4087    0.0558    0.4834 C   0  0  0  0  0  0  0  0  0  0  0  0
   -3.5909   -0.7113   -2.3218 C   0  0  0  0  0  0  0  0  0  0  0  0
   -2.3748   -0.3992   -2.7916 N   0  0  0  0  0  0  0  0  0  0  0  0
   -1.5563   -0.1604   -1.7795 N   0  0  0  0  0  0  0  0  0  0  0  0
   -0.2547    0.1857   -1.7247 C   0  0  0  0  0  0  0  0  0  0  0  0
    4.3703    1.4223   -0.3729 C   0  0  0  0  0  0  0  0  0  0  0  0
    5.2181    0.4077   -0.9357 N   0  0  0  0  0  0  0  0  0  0  0  0
    6.5873    0.8807   -0.8408 C   0  0  0  0  0  0  0  0  0  0  0  0
    7.2017    0.2705    0.3853 C   0  0  0  0  0  0  0  0  0  0  0  0
    7.4476   -1.1533    0.1725 N   0  0  0  0  0  0  0  0  0  0  0  0
    6.3174   -1.6898   -0.5492 C   0  0  0  0  0  0  0  0  0  0  0  0
    5.0553   -0.8796   -0.3251 C   0  0  0  0  0  0  0  0  0  0  0  0
    0.2131    0.3811    1.5763 H   0  0  0  0  0  0  0  0  0  0  0  0
   -4.1211   -3.0342    0.1610 H   0  0  0  0  0  0  0  0  0  0  0  0
   -5.8888   -3.5010    1.7399 H   0  0  0  0  0  0  0  0  0  0  0  0
   -8.0573    0.4862    2.5764 H   0  0  0  0  0  0  0  0  0  0  0  0
   -7.7858    2.8123    1.7898 H   0  0  0  0  0  0  0  0  0  0  0  0
   -6.0224    3.3319    0.2018 H   0  0  0  0  0  0  0  0  0  0  0  0
   -4.4684    1.5874   -0.6663 H   0  0  0  0  0  0  0  0  0  0  0  0
   -4.4692   -0.9564   -2.8924 H   0  0  0  0  0  0  0  0  0  0  0  0
    0.3003    0.3131   -2.6354 H   0  0  0  0  0  0  0  0  0  0  0  0
    4.5754    2.3654   -0.9365 H   0  0  0  0  0  0  0  0  0  0  0  0
    4.6201    1.6638    0.6909 H   0  0  0  0  0  0  0  0  0  0  0  0
    6.6055    1.9894   -0.6931 H   0  0  0  0  0  0  0  0  0  0  0  0
    7.1655    0.6852   -1.7620 H   0  0  0  0  0  0  0  0  0  0  0  0
    8.1154    0.7935    0.7262 H   0  0  0  0  0  0  0  0  0  0  0  0
    6.4667    0.3472    1.2127 H   0  0  0  0  0  0  0  0  0  0  0  0
    8.3092   -1.2087   -0.4246 H   0  0  0  0  0  0  0  0  0  0  0  0
    6.1648   -2.7604   -0.3387 H   0  0  0  0  0  0  0  0  0  0  0  0
    6.5501   -1.6017   -1.6431 H   0  0  0  0  0  0  0  0  0  0  0  0
    4.2298   -1.4597   -0.8047 H   0  0  0  0  0  0  0  0  0  0  0  0
    4.7937   -0.7788    0.7390 H   0  0  0  0  0  0  0  0  0  0  0  0
  1  2  3  0
  2  3  1  0
  3  4  1  0
  4  5  2  0
  5  6  1  0
  6  7  2  0
  7  8  1  0
  8  9  2  0
  9 10  1  0
 10 11  2  0
 11 12  1  0
 12 13  2  0
 13 14  1  0
 14 15  2  0
 15 16  1  0
 16 17  2  0
  7 18  1  0
 18 19  2  0
 19 20  1  0
 20 21  1  0
  1 22  1  0
 22 23  1  0
 23 24  1  0
 24 25  1  0
 25 26  1  0
 26 27  1  0
 27 28  1  0
 21  3  2  0
 28 23  1  0
 20  6  1  0
 17  8  1  0
 17 12  1  0
  4 29  1  0
  9 30  1  0
 10 31  1  0
 13 32  1  0
 14 33  1  0
 15 34  1  0
 16 35  1  0
 18 36  1  0
 21 37  1  0
 22 38  1  0
 22 39  1  0
 24 40  1  0
 24 41  1  0
 25 42  1  0
 25 43  1  0
 26 44  1  0
 27 45  1  0
 27 46  1  0
 28 47  1  0
 28 48  1  0
M  END
$$$$
