@<TRIPOS>MOLECULE
*****
 42 44 0 0 0
SMALL
GASTEIGER

@<TRIPOS>ATOM
      1 C          -4.4674    0.9142    1.9603 C.3     1  UNL1       -0.0394
      2 C          -4.2194   -0.1013    0.9007 C.ar    1  UNL1       -0.0470
      3 C          -5.2289   -0.8155    0.2960 C.ar    1  UNL1       -0.0586
      4 C          -4.9541   -1.7534   -0.6880 C.ar    1  UNL1       -0.0615
      5 C          -3.6675   -2.0013   -1.0918 C.ar    1  UNL1       -0.0615
      6 C          -2.6321   -1.2879   -0.4909 C.ar    1  UNL1       -0.0580
      7 C          -2.9223   -0.3595    0.4851 C.ar    1  UNL1       -0.0398
      8 C          -1.8284    0.4146    1.1458 C.3     1  UNL1        0.0012
      9 C          -1.4938    1.7243    0.5620 C.3     1  UNL1       -0.0287
     10 C          -0.5601    0.4999    0.3884 C.3     1  UNL1        0.0153
     11 N           0.7041    0.6413    1.0896 N.3     1  UNL1       -0.3099
     12 C           1.7679    0.7072    0.1156 C.3     1  UNL1        0.0080
     13 C           1.8413   -0.5186   -0.7440 C.3     1  UNL1       -0.0361
     14 C           3.1913   -1.0646   -0.9701 C.3     1  UNL1       -0.0363
     15 C           4.3127   -0.1025   -1.0500 C.3     1  UNL1        0.0049
     16 N           5.4891   -0.6756   -0.3748 N.3     1  UNL1       -0.3272
     17 C           4.0533    1.2225   -0.3854 C.3     1  UNL1       -0.0363
     18 C           3.1128    0.9162    0.7897 C.3     1  UNL1       -0.0361
     19 H          -5.5265    0.9139    2.2311 H       1  UNL1        0.0278
     20 H          -3.9071    0.5526    2.8682 H       1  UNL1        0.0278
     21 H          -4.0622    1.9006    1.7064 H       1  UNL1        0.0278
     22 H          -6.2540   -0.6464    0.5890 H       1  UNL1        0.0620
     23 H          -5.7425   -2.3265   -1.1757 H       1  UNL1        0.0618
     24 H          -3.4039   -2.7235   -1.8556 H       1  UNL1        0.0618
     25 H          -1.6026   -1.4974   -0.8222 H       1  UNL1        0.0620
     26 H          -1.7583    0.2694    2.2430 H       1  UNL1        0.0365
     27 H          -1.1742    2.5055    1.2744 H       1  UNL1        0.0287
     28 H          -1.9842    2.0944   -0.3470 H       1  UNL1        0.0287
     29 H          -0.4608    0.1570   -0.6610 H       1  UNL1        0.0466
     30 H           0.8553   -0.1074    1.7757 H       1  UNL1        0.1225
     31 H           1.6238    1.5827   -0.5540 H       1  UNL1        0.0460
     32 H           1.3011   -0.3338   -1.6958 H       1  UNL1        0.0281
     33 H           1.2281   -1.3102   -0.2192 H       1  UNL1        0.0281
     34 H           3.1713   -1.6441   -1.9395 H       1  UNL1        0.0281
     35 H           3.4159   -1.8542   -0.1949 H       1  UNL1        0.0281
     36 H           4.6521    0.1059   -2.0959 H       1  UNL1        0.0458
     37 H           5.8721   -1.4869   -0.8981 H       1  UNL1        0.1185
     38 H           6.1850    0.0820   -0.2247 H       1  UNL1        0.1185
     39 H           3.5517    1.8939   -1.0976 H       1  UNL1        0.0281
     40 H           4.9811    1.6985   -0.0362 H       1  UNL1        0.0281
     41 H           3.4503    0.0054    1.3258 H       1  UNL1        0.0281
     42 H           3.0903    1.8085    1.4328 H       1  UNL1        0.0281
@<TRIPOS>BOND
     1     1     2    1
     2     2     3   ar
     3     3     4   ar
     4     4     5   ar
     5     5     6   ar
     6     6     7   ar
     7     7     8    1
     8     8     9    1
     9     9    10    1
    10    10    11    1
    11    11    12    1
    12    12    13    1
    13    13    14    1
    14    14    15    1
    15    15    16    1
    16    15    17    1
    17    17    18    1
    18     7     2   ar
    19    10     8    1
    20    18    12    1
    21     1    19    1
    22     1    20    1
    23     1    21    1
    24     3    22    1
    25     4    23    1
    26     5    24    1
    27     6    25    1
    28     8    26    1
    29     9    27    1
    30     9    28    1
    31    10    29    1
    32    11    30    1
    33    12    31    1
    34    13    32    1
    35    13    33    1
    36    14    34    1
    37    14    35    1
    38    15    36    1
    39    16    37    1
    40    16    38    1
    41    17    39    1
    42    17    40    1
    43    18    41    1
    44    18    42    1
