
     RDKit          3D

 42 44  0  0  0  0  0  0  0  0999 V2000
   -4.4674    0.9142    1.9603 C   0  0  0  0  0  0  0  0  0  0  0  0
   -4.2194   -0.1013    0.9007 C   0  0  0  0  0  0  0  0  0  0  0  0
   -5.2289   -0.8155    0.2960 C   0  0  0  0  0  0  0  0  0  0  0  0
   -4.9541   -1.7534   -0.6880 C   0  0  0  0  0  0  0  0  0  0  0  0
   -3.6675   -2.0013   -1.0918 C   0  0  0  0  0  0  0  0  0  0  0  0
   -2.6321   -1.2879   -0.4909 C   0  0  0  0  0  0  0  0  0  0  0  0
   -2.9223   -0.3595    0.4851 C   0  0  0  0  0  0  0  0  0  0  0  0
   -1.8284    0.4146    1.1458 C   0  0  0  0  0  0  0  0  0  0  0  0
   -1.4938    1.7243    0.5620 C   0  0  0  0  0  0  0  0  0  0  0  0
   -0.5601    0.4999    0.3884 C   0  0  0  0  0  0  0  0  0  0  0  0
    0.7041    0.6413    1.0896 N   0  0  0  0  0  0  0  0  0  0  0  0
    1.7679    0.7072    0.1156 C   0  0  0  0  0  0  0  0  0  0  0  0
    1.8413   -0.5186   -0.7440 C   0  0  0  0  0  0  0  0  0  0  0  0
    3.1913   -1.0646   -0.9701 C   0  0  0  0  0  0  0  0  0  0  0  0
    4.3127   -0.1025   -1.0500 C   0  0  0  0  0  0  0  0  0  0  0  0
    5.4891   -0.6756   -0.3748 N   0  0  0  0  0  0  0  0  0  0  0  0
    4.0533    1.2225   -0.3854 C   0  0  0  0  0  0  0  0  0  0  0  0
    3.1128    0.9162    0.7897 C   0  0  0  0  0  0  0  0  0  0  0  0
   -5.5265    0.9139    2.2311 H   0  0  0  0  0  0  0  0  0  0  0  0
   -3.9071    0.5526    2.8682 H   0  0  0  0  0  0  0  0  0  0  0  0
   -4.0622    1.9006    1.7064 H   0  0  0  0  0  0  0  0  0  0  0  0
   -6.2540   -0.6464    0.5890 H   0  0  0  0  0  0  0  0  0  0  0  0
   -5.7425   -2.3265   -1.1757 H   0  0  0  0  0  0  0  0  0  0  0  0
   -3.4039   -2.7235   -1.8556 H   0  0  0  0  0  0  0  0  0  0  0  0
   -1.6026   -1.4974   -0.8222 H   0  0  0  0  0  0  0  0  0  0  0  0
   -1.7583    0.2694    2.2430 H   0  0  0  0  0  0  0  0  0  0  0  0
   -1.1742    2.5055    1.2744 H   0  0  0  0  0  0  0  0  0  0  0  0
   -1.9842    2.0944   -0.3470 H   0  0  0  0  0  0  0  0  0  0  0  0
   -0.4608    0.1570   -0.6610 H   0  0  0  0  0  0  0  0  0  0  0  0
    0.8553   -0.1074    1.7757 H   0  0  0  0  0  0  0  0  0  0  0  0
    1.6238    1.5827   -0.5540 H   0  0  0  0  0  0  0  0  0  0  0  0
    1.3011   -0.3338   -1.6958 H   0  0  0  0  0  0  0  0  0  0  0  0
    1.2281   -1.3102   -0.2192 H   0  0  0  0  0  0  0  0  0  0  0  0
    3.1713   -1.6441   -1.9395 H   0  0  0  0  0  0  0  0  0  0  0  0
    3.4159   -1.8542   -0.1949 H   0  0  0  0  0  0  0  0  0  0  0  0
    4.6521    0.1059   -2.0959 H   0  0  0  0  0  0  0  0  0  0  0  0
    5.8721   -1.4869   -0.8981 H   0  0  0  0  0  0  0  0  0  0  0  0
    6.1850    0.0820   -0.2247 H   0  0  0  0  0  0  0  0  0  0  0  0
    3.5517    1.8939   -1.0976 H   0  0  0  0  0  0  0  0  0  0  0  0
    4.9811    1.6985   -0.0362 H   0  0  0  0  0  0  0  0  0  0  0  0
    3.4503    0.0054    1.3258 H   0  0  0  0  0  0  0  0  0  0  0  0
    3.0903    1.8085    1.4328 H   0  0  0  0  0  0  0  0  0  0  0  0
  1  2  1  0
  2  3  2  0
  3  4  1  0
  4  5  2  0
  5  6  1  0
  6  7  2  0
  7  8  1  0
  8  9  1  0
  9 10  1  0
 10 11  1  0
 11 12  1  0
 12 13  1  0
 13 14  1  0
 14 15  1  0
 15 16  1  0
 15 17  1  0
 17 18  1  0
  7  2  1  0
 10  8  1  0
 18 12  1  0
  1 19  1  0
  1 20  1  0
  1 21  1  0
  3 22  1  0
  4 23  1  0
  5 24  1  0
  6 25  1  0
  8 26  1  0
  9 27  1  0
  9 28  1  0
 10 29  1  0
 11 30  1  0
 12 31  1  0
 13 32  1  0
 13 33  1  0
 14 34  1  0
 14 35  1  0
 15 36  1  0
 16 37  1  0
 16 38  1  0
 17 39  1  0
 17 40  1  0
 18 41  1  0
 18 42  1  0
M  END
$$$$
