@<TRIPOS>MOLECULE
*****
 65 66 0 0 0
SMALL
GASTEIGER

@<TRIPOS>ATOM
      1 C          -0.4897   -0.0382   -1.1913 C.3     1  UNL1       -0.0169
      2 C           0.3511   -0.0040   -2.4428 C.3     1  UNL1       -0.0457
      3 C           1.6703    0.5289   -1.8895 C.3     1  UNL1       -0.0465
      4 C           1.6267    0.3236   -0.3853 C.3     1  UNL1       -0.0255
      5 C           1.2536    1.5958    0.3366 C.3     1  UNL1       -0.0590
      6 C           2.9404   -0.2120    0.1304 C.3     1  UNL1       -0.0362
      7 C           3.9867    0.8332   -0.2413 C.3     1  UNL1        0.0097
      8 C           5.3094    0.3883    0.2241 C.1     1  UNL1       -0.0988
      9 C           6.4028    0.0139    0.5923 C.1     1  UNL1       -0.0496
     10 C           7.7098   -0.4407    1.0553 C.3     1  UNL1        0.3177
     11 O           7.6565   -0.5874    2.4462 O.3     1  UNL1       -0.3627
     12 C           8.0761   -1.7888    0.4722 C.3     1  UNL1        0.4385
     13 F           8.1037   -1.6789   -0.8923 F       1  UNL1       -0.1663
     14 F           9.3226   -2.1452    0.9587 F       1  UNL1       -0.1663
     15 F           7.1148   -2.7112    0.8338 F       1  UNL1       -0.1663
     16 C           8.7920    0.5836    0.7684 C.3     1  UNL1        0.4385
     17 F           8.9088    0.8442   -0.5745 F       1  UNL1       -0.1663
     18 F           8.5614    1.7146    1.4981 F       1  UNL1       -0.1663
     19 F           9.9978    0.0202    1.1789 F       1  UNL1       -0.1663
     20 C           0.4737   -0.6519   -0.2024 C.3     1  UNL1       -0.0232
     21 C          -0.0488   -0.7156    1.1950 C.3     1  UNL1       -0.0588
     22 C           0.9427   -2.0173   -0.6137 C.3     1  UNL1       -0.0588
     23 C          -1.7518   -0.7158   -1.3232 C.2     1  UNL1       -0.0804
     24 C          -2.8565   -0.0657   -1.0551 C.2     1  UNL1       -0.0654
     25 C          -4.2907   -0.0388   -0.9595 C.2     1  UNL1       -0.0626
     26 C          -5.5210    0.3183   -0.7748 C.2     1  UNL1       -0.0647
     27 C          -5.8558    1.6977   -0.3280 C.3     1  UNL1       -0.0051
     28 C          -6.1926    1.5994    1.1282 C.3     1  UNL1        0.0613
     29 O          -7.1355    2.5692    1.5095 O.3     1  UNL1       -0.3914
     30 C          -6.6552    0.2121    1.4572 C.3     1  UNL1       -0.0001
     31 C          -7.4543   -0.4660    0.3946 C.3     1  UNL1        0.0613
     32 O          -7.6258   -1.7978    0.8060 O.3     1  UNL1       -0.3914
     33 C          -6.7444   -0.4962   -0.9538 C.3     1  UNL1       -0.0051
     34 H          -0.6134    1.0052   -0.8829 H       1  UNL1        0.0348
     35 H          -0.1015    0.7472   -3.1148 H       1  UNL1        0.0271
     36 H           0.4411   -0.9506   -2.9685 H       1  UNL1        0.0271
     37 H           2.5343    0.0400   -2.3528 H       1  UNL1        0.0271
     38 H           1.7263    1.6136   -2.0808 H       1  UNL1        0.0271
     39 H           0.2710    1.5440    0.8562 H       1  UNL1        0.0235
     40 H           1.9810    1.8167    1.1733 H       1  UNL1        0.0235
     41 H           1.1677    2.4439   -0.3782 H       1  UNL1        0.0235
     42 H           2.8906   -0.2987    1.2185 H       1  UNL1        0.0280
     43 H           3.1509   -1.1529   -0.3911 H       1  UNL1        0.0280
     44 H           3.7877    1.8002    0.2609 H       1  UNL1        0.0398
     45 H           3.9906    1.0265   -1.3348 H       1  UNL1        0.0398
     46 H           6.7579   -0.9360    2.7087 H       1  UNL1        0.2120
     47 H          -1.0325   -0.2119    1.2250 H       1  UNL1        0.0235
     48 H          -0.2742   -1.7817    1.4842 H       1  UNL1        0.0235
     49 H           0.6643   -0.3592    1.9635 H       1  UNL1        0.0235
     50 H           1.5568   -2.0381   -1.5239 H       1  UNL1        0.0235
     51 H           0.0785   -2.7346   -0.6631 H       1  UNL1        0.0235
     52 H           1.5840   -2.3980    0.2096 H       1  UNL1        0.0235
     53 H          -2.1600   -1.6764   -1.5962 H       1  UNL1        0.0575
     54 H          -2.9468    0.9865   -0.7244 H       1  UNL1        0.0615
     55 H          -4.3540   -1.0973   -1.2830 H       1  UNL1        0.0617
     56 H          -6.7543    2.1129   -0.8410 H       1  UNL1        0.0335
     57 H          -5.0427    2.4143   -0.5461 H       1  UNL1        0.0335
     58 H          -5.3128    1.7872    1.7907 H       1  UNL1        0.0597
     59 H          -6.7404    3.4572    1.2924 H       1  UNL1        0.2098
     60 H          -5.8305   -0.4417    1.8241 H       1  UNL1        0.0315
     61 H          -7.3364    0.3135    2.3401 H       1  UNL1        0.0315
     62 H          -8.4516   -0.0168    0.3519 H       1  UNL1        0.0597
     63 H          -8.2352   -2.2372    0.1440 H       1  UNL1        0.2098
     64 H          -7.4225    0.0687   -1.6443 H       1  UNL1        0.0335
     65 H          -6.5530   -1.5181   -1.2956 H       1  UNL1        0.0335
@<TRIPOS>BOND
     1     1     2    1
     2     2     3    1
     3     3     4    1
     4     4     5    1
     5     4     6    1
     6     6     7    1
     7     7     8    1
     8     8     9    3
     9     9    10    1
    10    10    11    1
    11    10    12    1
    12    12    13    1
    13    12    14    1
    14    12    15    1
    15    10    16    1
    16    16    17    1
    17    16    18    1
    18    16    19    1
    19     4    20    1
    20    20    21    1
    21    20    22    1
    22     1    23    1
    23    23    24    2
    24    24    25    1
    25    25    26    2
    26    26    27    1
    27    27    28    1
    28    28    29    1
    29    28    30    1
    30    30    31    1
    31    31    32    1
    32    31    33    1
    33    20     1    1
    34    33    26    1
    35     1    34    1
    36     2    35    1
    37     2    36    1
    38     3    37    1
    39     3    38    1
    40     5    39    1
    41     5    40    1
    42     5    41    1
    43     6    42    1
    44     6    43    1
    45     7    44    1
    46     7    45    1
    47    11    46    1
    48    21    47    1
    49    21    48    1
    50    21    49    1
    51    22    50    1
    52    22    51    1
    53    22    52    1
    54    23    53    1
    55    24    54    1
    56    25    55    1
    57    27    56    1
    58    27    57    1
    59    28    58    1
    60    29    59    1
    61    30    60    1
    62    30    61    1
    63    31    62    1
    64    32    63    1
    65    33    64    1
    66    33    65    1
