
     RDKit          3D

 65 66  0  0  0  0  0  0  0  0999 V2000
   -0.4897   -0.0382   -1.1913 C   0  0  2  0  0  0  0  0  0  0  0  0
    0.3511   -0.0040   -2.4428 C   0  0  0  0  0  0  0  0  0  0  0  0
    1.6703    0.5289   -1.8895 C   0  0  0  0  0  0  0  0  0  0  0  0
    1.6267    0.3236   -0.3853 C   0  0  2  0  0  0  0  0  0  0  0  0
    1.2536    1.5958    0.3366 C   0  0  0  0  0  0  0  0  0  0  0  0
    2.9404   -0.2120    0.1304 C   0  0  0  0  0  0  0  0  0  0  0  0
    3.9867    0.8332   -0.2413 C   0  0  0  0  0  0  0  0  0  0  0  0
    5.3094    0.3883    0.2241 C   0  0  0  0  0  0  0  0  0  0  0  0
    6.4028    0.0139    0.5923 C   0  0  0  0  0  0  0  0  0  0  0  0
    7.7098   -0.4407    1.0553 C   0  0  0  0  0  0  0  0  0  0  0  0
    7.6565   -0.5874    2.4462 O   0  0  0  0  0  0  0  0  0  0  0  0
    8.0761   -1.7888    0.4722 C   0  0  0  0  0  0  0  0  0  0  0  0
    8.1037   -1.6789   -0.8923 F   0  0  0  0  0  0  0  0  0  0  0  0
    9.3226   -2.1452    0.9587 F   0  0  0  0  0  0  0  0  0  0  0  0
    7.1148   -2.7112    0.8338 F   0  0  0  0  0  0  0  0  0  0  0  0
    8.7920    0.5836    0.7684 C   0  0  0  0  0  0  0  0  0  0  0  0
    8.9088    0.8442   -0.5745 F   0  0  0  0  0  0  0  0  0  0  0  0
    8.5614    1.7146    1.4981 F   0  0  0  0  0  0  0  0  0  0  0  0
    9.9978    0.0202    1.1789 F   0  0  0  0  0  0  0  0  0  0  0  0
    0.4737   -0.6519   -0.2024 C   0  0  0  0  0  0  0  0  0  0  0  0
   -0.0488   -0.7156    1.1950 C   0  0  0  0  0  0  0  0  0  0  0  0
    0.9427   -2.0173   -0.6137 C   0  0  0  0  0  0  0  0  0  0  0  0
   -1.7518   -0.7158   -1.3232 C   0  0  0  0  0  0  0  0  0  0  0  0
   -2.8565   -0.0657   -1.0551 C   0  0  0  0  0  0  0  0  0  0  0  0
   -4.2907   -0.0388   -0.9595 C   0  0  0  0  0  0  0  0  0  0  0  0
   -5.5210    0.3183   -0.7748 C   0  0  0  0  0  0  0  0  0  0  0  0
   -5.8558    1.6977   -0.3280 C   0  0  0  0  0  0  0  0  0  0  0  0
   -6.1926    1.5994    1.1282 C   0  0  1  0  0  0  0  0  0  0  0  0
   -7.1355    2.5692    1.5095 O   0  0  0  0  0  0  0  0  0  0  0  0
   -6.6552    0.2121    1.4572 C   0  0  0  0  0  0  0  0  0  0  0  0
   -7.4543   -0.4660    0.3946 C   0  0  2  0  0  0  0  0  0  0  0  0
   -7.6258   -1.7978    0.8060 O   0  0  0  0  0  0  0  0  0  0  0  0
   -6.7444   -0.4962   -0.9538 C   0  0  0  0  0  0  0  0  0  0  0  0
   -0.6134    1.0052   -0.8829 H   0  0  0  0  0  0  0  0  0  0  0  0
   -0.1015    0.7472   -3.1148 H   0  0  0  0  0  0  0  0  0  0  0  0
    0.4411   -0.9506   -2.9685 H   0  0  0  0  0  0  0  0  0  0  0  0
    2.5343    0.0400   -2.3528 H   0  0  0  0  0  0  0  0  0  0  0  0
    1.7263    1.6136   -2.0808 H   0  0  0  0  0  0  0  0  0  0  0  0
    0.2710    1.5440    0.8562 H   0  0  0  0  0  0  0  0  0  0  0  0
    1.9810    1.8167    1.1733 H   0  0  0  0  0  0  0  0  0  0  0  0
    1.1677    2.4439   -0.3782 H   0  0  0  0  0  0  0  0  0  0  0  0
    2.8906   -0.2987    1.2185 H   0  0  0  0  0  0  0  0  0  0  0  0
    3.1509   -1.1529   -0.3911 H   0  0  0  0  0  0  0  0  0  0  0  0
    3.7877    1.8002    0.2609 H   0  0  0  0  0  0  0  0  0  0  0  0
    3.9906    1.0265   -1.3348 H   0  0  0  0  0  0  0  0  0  0  0  0
    6.7579   -0.9360    2.7087 H   0  0  0  0  0  0  0  0  0  0  0  0
   -1.0325   -0.2119    1.2250 H   0  0  0  0  0  0  0  0  0  0  0  0
   -0.2742   -1.7817    1.4842 H   0  0  0  0  0  0  0  0  0  0  0  0
    0.6643   -0.3592    1.9635 H   0  0  0  0  0  0  0  0  0  0  0  0
    1.5568   -2.0381   -1.5239 H   0  0  0  0  0  0  0  0  0  0  0  0
    0.0785   -2.7346   -0.6631 H   0  0  0  0  0  0  0  0  0  0  0  0
    1.5840   -2.3980    0.2096 H   0  0  0  0  0  0  0  0  0  0  0  0
   -2.1600   -1.6764   -1.5962 H   0  0  0  0  0  0  0  0  0  0  0  0
   -2.9468    0.9865   -0.7244 H   0  0  0  0  0  0  0  0  0  0  0  0
   -4.3540   -1.0973   -1.2830 H   0  0  0  0  0  0  0  0  0  0  0  0
   -6.7543    2.1129   -0.8410 H   0  0  0  0  0  0  0  0  0  0  0  0
   -5.0427    2.4143   -0.5461 H   0  0  0  0  0  0  0  0  0  0  0  0
   -5.3128    1.7872    1.7907 H   0  0  0  0  0  0  0  0  0  0  0  0
   -6.7404    3.4572    1.2924 H   0  0  0  0  0  0  0  0  0  0  0  0
   -5.8305   -0.4417    1.8241 H   0  0  0  0  0  0  0  0  0  0  0  0
   -7.3364    0.3135    2.3401 H   0  0  0  0  0  0  0  0  0  0  0  0
   -8.4516   -0.0168    0.3519 H   0  0  0  0  0  0  0  0  0  0  0  0
   -8.2352   -2.2372    0.1440 H   0  0  0  0  0  0  0  0  0  0  0  0
   -7.4225    0.0687   -1.6443 H   0  0  0  0  0  0  0  0  0  0  0  0
   -6.5530   -1.5181   -1.2956 H   0  0  0  0  0  0  0  0  0  0  0  0
  1  2  1  0
  2  3  1  0
  3  4  1  0
  4  5  1  1
  4  6  1  0
  6  7  1  0
  7  8  1  0
  8  9  3  0
  9 10  1  0
 10 11  1  0
 10 12  1  0
 12 13  1  0
 12 14  1  0
 12 15  1  0
 10 16  1  0
 16 17  1  0
 16 18  1  0
 16 19  1  0
  4 20  1  0
 20 21  1  0
 20 22  1  0
  1 23  1  0
 23 24  2  0
 24 25  1  0
 25 26  2  0
 26 27  1  0
 27 28  1  0
 28 29  1  0
 28 30  1  0
 30 31  1  0
 31 32  1  0
 31 33  1  0
 20  1  1  0
 33 26  1  0
  1 34  1  1
  2 35  1  0
  2 36  1  0
  3 37  1  0
  3 38  1  0
  5 39  1  0
  5 40  1  0
  5 41  1  0
  6 42  1  0
  6 43  1  0
  7 44  1  0
  7 45  1  0
 11 46  1  0
 21 47  1  0
 21 48  1  0
 21 49  1  0
 22 50  1  0
 22 51  1  0
 22 52  1  0
 23 53  1  0
 24 54  1  0
 25 55  1  0
 27 56  1  0
 27 57  1  0
 28 58  1  1
 29 59  1  0
 30 60  1  0
 30 61  1  0
 31 62  1  6
 32 63  1  0
 33 64  1  0
 33 65  1  0
M  END
$$$$
