
     RDKit          3D

 62 64  0  0  0  0  0  0  0  0999 V2000
   -3.7706    1.1518    2.7431 C   0  0  0  0  0  0  0  0  0  0  0  0
   -3.1788    0.9645    1.4699 O   0  0  0  0  0  0  0  0  0  0  0  0
   -3.9006    0.4466    0.4114 C   0  0  0  0  0  0  0  0  0  0  0  0
   -3.8997   -0.9224    0.2412 C   0  0  0  0  0  0  0  0  0  0  0  0
   -3.1824   -1.8835    1.1082 C   0  0  0  0  0  0  0  0  0  0  0  0
   -1.7374   -1.8767    0.8204 C   0  0  0  0  0  0  0  0  0  0  0  0
   -0.7236   -1.5940    1.6267 C   0  0  0  0  0  0  0  0  0  0  0  0
   -0.9031   -1.2191    3.0259 C   0  0  0  0  0  0  0  0  0  0  0  0
    0.6888   -1.6277    1.1995 C   0  0  0  0  0  0  0  0  0  0  0  0
    1.3857   -0.2988    1.3465 C   0  0  0  0  0  0  0  0  0  0  0  0
    2.8090   -0.4341    0.8882 C   0  0  0  0  0  0  0  0  0  0  0  0
    3.4403    0.6330    0.9894 O   0  0  0  0  0  0  0  0  0  0  0  0
    3.3016   -1.6022    0.4266 O   0  0  0  0  0  0  0  0  0  0  0  0
    4.5708   -1.9042   -0.0329 C   0  0  0  0  0  0  0  0  0  0  0  0
    5.0777   -1.1701   -1.2169 C   0  0  0  0  0  0  0  0  0  0  0  0
    5.1972    0.2585   -0.9780 N   0  0  0  0  0  0  0  0  0  0  0  0
    5.5989    0.9088   -2.2562 C   0  0  0  0  0  0  0  0  0  0  0  0
    5.7126    2.3896   -1.9804 C   0  0  0  0  0  0  0  0  0  0  0  0
    6.7593    2.5979   -1.0794 O   0  0  0  0  0  0  0  0  0  0  0  0
    6.4847    1.9512    0.1300 C   0  0  0  0  0  0  0  0  0  0  0  0
    6.3996    0.4802   -0.1326 C   0  0  0  0  0  0  0  0  0  0  0  0
   -4.6528   -1.3629   -0.8509 C   0  0  0  0  0  0  0  0  0  0  0  0
   -4.6704   -2.7491   -1.0493 O   0  0  0  0  0  0  0  0  0  0  0  0
   -5.3454   -0.5660   -1.7045 C   0  0  0  0  0  0  0  0  0  0  0  0
   -6.1679   -0.8467   -2.8719 C   0  0  0  0  0  0  0  0  0  0  0  0
   -6.4114   -2.0038   -3.3521 O   0  0  0  0  0  0  0  0  0  0  0  0
   -6.6310    0.3560   -3.3586 O   0  0  0  0  0  0  0  0  0  0  0  0
   -6.1600    1.4171   -2.5769 C   0  0  0  0  0  0  0  0  0  0  0  0
   -5.3328    0.7816   -1.5183 C   0  0  0  0  0  0  0  0  0  0  0  0
   -4.6095    1.2754   -0.4606 C   0  0  0  0  0  0  0  0  0  0  0  0
   -4.5836    2.7628   -0.2383 C   0  0  0  0  0  0  0  0  0  0  0  0
   -4.3383    2.1189    2.7870 H   0  0  0  0  0  0  0  0  0  0  0  0
   -4.4771    0.3191    3.0028 H   0  0  0  0  0  0  0  0  0  0  0  0
   -2.9636    1.1250    3.5085 H   0  0  0  0  0  0  0  0  0  0  0  0
   -3.4258   -1.7572    2.1783 H   0  0  0  0  0  0  0  0  0  0  0  0
   -3.5511   -2.9005    0.8563 H   0  0  0  0  0  0  0  0  0  0  0  0
   -1.5364   -2.1507   -0.2182 H   0  0  0  0  0  0  0  0  0  0  0  0
   -0.5350   -0.1560    3.1171 H   0  0  0  0  0  0  0  0  0  0  0  0
   -1.9080   -1.2273    3.4304 H   0  0  0  0  0  0  0  0  0  0  0  0
   -0.2353   -1.8580    3.6743 H   0  0  0  0  0  0  0  0  0  0  0  0
    0.7063   -1.9746    0.1632 H   0  0  0  0  0  0  0  0  0  0  0  0
    1.2406   -2.3933    1.7998 H   0  0  0  0  0  0  0  0  0  0  0  0
    1.4427    0.0522    2.3754 H   0  0  0  0  0  0  0  0  0  0  0  0
    0.9061    0.4157    0.6454 H   0  0  0  0  0  0  0  0  0  0  0  0
    4.5925   -3.0087   -0.2760 H   0  0  0  0  0  0  0  0  0  0  0  0
    5.2565   -1.8147    0.8535 H   0  0  0  0  0  0  0  0  0  0  0  0
    4.2890   -1.2538   -2.0224 H   0  0  0  0  0  0  0  0  0  0  0  0
    5.9783   -1.6038   -1.6494 H   0  0  0  0  0  0  0  0  0  0  0  0
    6.5938    0.5320   -2.5490 H   0  0  0  0  0  0  0  0  0  0  0  0
    4.8556    0.7116   -3.0499 H   0  0  0  0  0  0  0  0  0  0  0  0
    5.9854    2.9055   -2.9283 H   0  0  0  0  0  0  0  0  0  0  0  0
    4.7266    2.7239   -1.5715 H   0  0  0  0  0  0  0  0  0  0  0  0
    5.5198    2.3235    0.4828 H   0  0  0  0  0  0  0  0  0  0  0  0
    7.3217    2.2133    0.8120 H   0  0  0  0  0  0  0  0  0  0  0  0
    7.2638    0.1996   -0.7857 H   0  0  0  0  0  0  0  0  0  0  0  0
    6.3711   -0.1085    0.7852 H   0  0  0  0  0  0  0  0  0  0  0  0
   -5.3128   -3.2454   -0.4390 H   0  0  0  0  0  0  0  0  0  0  0  0
   -7.0244    1.8700   -2.0438 H   0  0  0  0  0  0  0  0  0  0  0  0
   -5.6155    2.2045   -3.1393 H   0  0  0  0  0  0  0  0  0  0  0  0
   -3.8579    3.0334    0.5437 H   0  0  0  0  0  0  0  0  0  0  0  0
   -5.5739    3.1003    0.0685 H   0  0  0  0  0  0  0  0  0  0  0  0
   -4.2596    3.2901   -1.1809 H   0  0  0  0  0  0  0  0  0  0  0  0
  1  2  1  0
  2  3  1  0
  3  4  2  0
  4  5  1  0
  5  6  1  0
  6  7  2  0
  7  8  1  0
  7  9  1  0
  9 10  1  0
 10 11  1  0
 11 12  2  0
 11 13  1  0
 13 14  1  0
 14 15  1  0
 15 16  1  0
 16 17  1  0
 17 18  1  0
 18 19  1  0
 19 20  1  0
 20 21  1  0
  4 22  1  0
 22 23  1  0
 22 24  2  0
 24 25  1  0
 25 26  2  0
 25 27  1  0
 27 28  1  0
 28 29  1  0
 29 30  2  0
 30 31  1  0
 30  3  1  0
 21 16  1  0
 29 24  1  0
  1 32  1  0
  1 33  1  0
  1 34  1  0
  5 35  1  0
  5 36  1  0
  6 37  1  0
  8 38  1  0
  8 39  1  0
  8 40  1  0
  9 41  1  0
  9 42  1  0
 10 43  1  0
 10 44  1  0
 14 45  1  0
 14 46  1  0
 15 47  1  0
 15 48  1  0
 17 49  1  0
 17 50  1  0
 18 51  1  0
 18 52  1  0
 20 53  1  0
 20 54  1  0
 21 55  1  0
 21 56  1  0
 23 57  1  0
 28 58  1  0
 28 59  1  0
 31 60  1  0
 31 61  1  0
 31 62  1  0
M  END
$$$$
