@<TRIPOS>MOLECULE
*****
 59 61 0 0 0
SMALL
GASTEIGER

@<TRIPOS>ATOM
      1 C           5.8438   -2.6633    0.9975 C.3     1  UNL1       -0.0130
      2 N           6.4023   -1.8035    0.0342 N.3     1  UNL1       -0.3081
      3 C           7.5502   -1.0637    0.5174 C.3     1  UNL1       -0.0130
      4 C           5.6000   -1.1271   -0.8902 C.3     1  UNL1        0.0011
      5 C           4.7202   -0.0289   -0.4256 C.3     1  UNL1       -0.0282
      6 C           3.9927    0.5365   -1.6631 C.3     1  UNL1       -0.0487
      7 C           3.3129    1.7744   -1.1401 C.3     1  UNL1       -0.0485
      8 C           2.0713    1.3615   -0.3952 C.3     1  UNL1       -0.0255
      9 C           0.9383    1.3590   -1.3756 C.3     1  UNL1        0.0135
     10 N          -0.3828    0.9946   -0.7546 N.pl3   1  UNL1       -0.3233
     11 C          -1.1040    1.9165   -0.1431 C.ar    1  UNL1        0.2018
     12 N          -2.4570    0.9438   -0.3035 N.ar    1  UNL1       -0.1928
     13 C          -3.6056    1.1124    0.0420 C.ar    1  UNL1        0.2175
     14 N          -4.7233    0.1867   -0.1932 N.pl3   1  UNL1       -0.3093
     15 C          -5.2806   -0.4613    0.9602 C.3     1  UNL1        0.0384
     16 C          -6.4952   -1.1999    0.6141 C.ar    1  UNL1       -0.0120
     17 C          -6.5528   -2.5605    0.5108 C.ar    1  UNL1       -0.0557
     18 C          -7.7414   -3.2087    0.1591 C.ar    1  UNL1       -0.0614
     19 C          -8.8860   -2.4656   -0.0886 C.ar    1  UNL1       -0.0604
     20 C          -8.7971   -1.1096    0.0251 C.ar    1  UNL1       -0.0431
     21 C          -7.6404   -0.4613    0.3662 C.ar    1  UNL1        0.0456
     22 CL         -7.6429    1.2975    0.4752 Cl      1  UNL1       -0.0832
     23 N          -4.0590    2.2492    0.7013 N.ar    1  UNL1       -0.2160
     24 C          -3.0479    3.1220    0.8938 C.ar    1  UNL1        0.1117
     25 C          -1.8382    2.8338    0.4734 C.ar    1  UNL1        0.3303
     26 N          -0.7957    3.8989    0.8403 N.pl3   1  UNL1        0.0848
     27 O          -0.9947    4.4296    1.8946 O.2     1  UNL1        0.0416
     28 O           0.2364    4.1237    0.0300 O.co2   1  UNL1       -0.5759
     29 C           2.2652    0.0460    0.2552 C.3     1  UNL1       -0.0485
     30 C           3.6156   -0.5117    0.4476 C.3     1  UNL1       -0.0487
     31 H           5.3923   -2.1446    1.8808 H       1  UNL1        0.0391
     32 H           6.6994   -3.3134    1.3782 H       1  UNL1        0.0391
     33 H           5.1488   -3.4018    0.5423 H       1  UNL1        0.0391
     34 H           7.6403   -1.0895    1.6279 H       1  UNL1        0.0391
     35 H           7.5584   -0.0005    0.2182 H       1  UNL1        0.0391
     36 H           8.4560   -1.5225    0.0882 H       1  UNL1        0.0391
     37 H           6.2555   -0.7709   -1.7506 H       1  UNL1        0.0429
     38 H           4.9710   -1.9190   -1.4218 H       1  UNL1        0.0429
     39 H           5.2761    0.7944    0.0881 H       1  UNL1        0.0313
     40 H           4.6746    0.7320   -2.4907 H       1  UNL1        0.0268
     41 H           3.2972   -0.2677   -1.9717 H       1  UNL1        0.0268
     42 H           3.1251    2.5099   -1.9358 H       1  UNL1        0.0269
     43 H           4.0183    2.2718   -0.4341 H       1  UNL1        0.0269
     44 H           1.9305    2.1071    0.4299 H       1  UNL1        0.0316
     45 H           0.8260    2.3208   -1.9124 H       1  UNL1        0.0464
     46 H           1.1616    0.6139   -2.1509 H       1  UNL1        0.0464
     47 H          -0.5250   -0.0299   -0.8427 H       1  UNL1        0.1477
     48 H          -5.0938    0.0016   -1.1277 H       1  UNL1        0.1492
     49 H          -4.5397   -1.1751    1.3743 H       1  UNL1        0.0512
     50 H          -5.4647    0.3036    1.7728 H       1  UNL1        0.0512
     51 H          -5.7017   -3.1921    0.6882 H       1  UNL1        0.0621
     52 H          -7.8240   -4.2780    0.0605 H       1  UNL1        0.0618
     53 H          -9.7910   -2.9855   -0.3638 H       1  UNL1        0.0618
     54 H          -9.6916   -0.5230   -0.1712 H       1  UNL1        0.0632
     55 H          -3.2673    4.0740    1.4077 H       1  UNL1        0.0901
     56 H           1.7382    0.0352    1.2461 H       1  UNL1        0.0269
     57 H           1.6680   -0.7238   -0.3372 H       1  UNL1        0.0269
     58 H           3.9503   -0.3055    1.5124 H       1  UNL1        0.0268
     59 H           3.6070   -1.6423    0.4148 H       1  UNL1        0.0268
@<TRIPOS>UNITY_ATOM_ATTR
26 1
charge 1
28 1
charge -1
@<TRIPOS>BOND
     1     1     2    1
     2     2     3    1
     3     2     4    1
     4     4     5    1
     5     5     6    1
     6     6     7    1
     7     7     8    1
     8     8     9    1
     9     9    10    1
    10    10    11    1
    11    11    12   ar
    12    12    13   ar
    13    13    14    1
    14    14    15    1
    15    15    16    1
    16    16    17   ar
    17    17    18   ar
    18    18    19   ar
    19    19    20   ar
    20    20    21   ar
    21    21    22    1
    22    13    23   ar
    23    23    24   ar
    24    24    25   ar
    25    25    26    1
    26    26    27    2
    27    26    28    1
    28     8    29    1
    29    29    30    1
    30    30     5    1
    31    25    11   ar
    32    21    16   ar
    33     1    31    1
    34     1    32    1
    35     1    33    1
    36     3    34    1
    37     3    35    1
    38     3    36    1
    39     4    37    1
    40     4    38    1
    41     5    39    1
    42     6    40    1
    43     6    41    1
    44     7    42    1
    45     7    43    1
    46     8    44    1
    47     9    45    1
    48     9    46    1
    49    10    47    1
    50    14    48    1
    51    15    49    1
    52    15    50    1
    53    17    51    1
    54    18    52    1
    55    19    53    1
    56    20    54    1
    57    24    55    1
    58    29    56    1
    59    29    57    1
    60    30    58    1
    61    30    59    1
