@<TRIPOS>MOLECULE
*****
 15 14 0 0 0
SMALL
GASTEIGER

@<TRIPOS>ATOM
      1 O          -1.1984   -1.3907   -1.3583 O.3     1  UNL1       -0.3801
      2 C          -0.4553   -0.3078   -0.8587 C.3     1  UNL1        0.1614
      3 C           0.6410   -0.8919   -0.0047 C.3     1  UNL1        0.0811
      4 C           1.5268    0.1189    0.6058 C.2     1  UNL1        0.3077
      5 O           1.7335    1.4861    0.6874 O.3     1  UNL1       -0.4805
      6 O           2.4788   -0.2692    1.3411 O.2     1  UNL1       -0.2509
      7 C          -1.4266    0.4621   -0.0250 C.2     1  UNL1        0.3342
      8 O          -1.2216    1.6233    0.6997 O.3     1  UNL1       -0.4788
      9 O          -2.5239   -0.1603   -0.0985 O.2     1  UNL1       -0.2481
     10 H          -1.4216   -1.9486   -0.5629 H       1  UNL1        0.2105
     11 H          -0.0702    0.2530   -1.7145 H       1  UNL1        0.0716
     12 H           0.1999   -1.4944    0.8021 H       1  UNL1        0.0409
     13 H           1.2792   -1.5253   -0.6469 H       1  UNL1        0.0409
     14 H           2.5094    1.9071    0.1548 H       1  UNL1        0.2951
     15 H          -2.0508    2.1378    0.9784 H       1  UNL1        0.2951
@<TRIPOS>BOND
     1     1     2    1
     2     2     3    1
     3     3     4    1
     4     4     5    1
     5     4     6    2
     6     2     7    1
     7     7     8    1
     8     7     9    2
     9     1    10    1
    10     2    11    1
    11     3    12    1
    12     3    13    1
    13     5    14    1
    14     8    15    1
