
     RDKit          3D

 49 53  0  0  0  0  0  0  0  0999 V2000
   -2.8277    1.3013    2.4003 C   0  0  0  0  0  0  0  0  0  0  0  0
   -4.1387    1.0857    1.7512 C   0  0  0  0  0  0  0  0  0  0  0  0
   -5.3776    1.3736    2.2253 N   0  0  0  0  0  0  0  0  0  0  0  0
   -6.3054    1.0318    1.3475 N   0  0  0  0  0  0  0  0  0  0  0  0
   -7.7548    1.1888    1.5050 C   0  0  0  0  0  0  0  0  0  0  0  0
   -5.6694    0.5147    0.2872 C   0  0  0  0  0  0  0  0  0  0  0  0
   -4.3102    0.5313    0.5022 C   0  0  0  0  0  0  0  0  0  0  0  0
   -3.2401    0.0697   -0.3784 C   0  0  0  0  0  0  0  0  0  0  0  0
   -1.9162    0.0942   -0.1509 N   0  0  0  0  0  0  0  0  0  0  0  0
   -1.2348   -0.4124   -1.1819 C   0  0  0  0  0  0  0  0  0  0  0  0
    0.1095   -0.5990   -1.4187 C   0  0  0  0  0  0  0  0  0  0  0  0
    1.0736   -0.2288   -0.4900 N   0  0  0  0  0  0  0  0  0  0  0  0
    1.7305    1.0628   -0.4371 C   0  0  0  0  0  0  0  0  0  0  0  0
    3.2274    0.9347   -0.3302 C   0  0  0  0  0  0  0  0  0  0  0  0
    3.6951   -0.1854    0.3611 N   0  0  0  0  0  0  0  0  0  0  0  0
    4.7986   -0.0290    1.2344 C   0  0  0  0  0  0  0  0  0  0  0  0
    5.9805    0.4639    0.4567 C   0  0  0  0  0  0  0  0  0  0  0  0
    6.8748   -0.3447   -0.1297 N   0  0  0  0  0  0  0  0  0  0  0  0
    7.7861    0.4369   -0.7300 C   0  0  0  0  0  0  0  0  0  0  0  0
    7.4556    1.6645   -0.5149 O   0  0  0  0  0  0  0  0  0  0  0  0
    6.3735    1.7005    0.1963 N   0  0  0  0  0  0  0  0  0  0  0  0
    2.9505   -1.3654    0.4297 C   0  0  0  0  0  0  0  0  0  0  0  0
    1.4634   -1.1709    0.5361 C   0  0  0  0  0  0  0  0  0  0  0  0
    0.4455   -1.1592   -2.6143 C   0  0  0  0  0  0  0  0  0  0  0  0
    2.1211   -1.4186   -2.9958 Cl  0  0  0  0  0  0  0  0  0  0  0  0
   -0.5088   -1.5249   -3.5476 C   0  0  0  0  0  0  0  0  0  0  0  0
   -1.8093   -1.3320   -3.2908 N   0  0  0  0  0  0  0  0  0  0  0  0
   -2.1770   -0.7831   -2.1251 C   0  0  0  0  0  0  0  0  0  0  0  0
   -3.3931   -0.4756   -1.6042 N   0  0  0  0  0  0  0  0  0  0  0  0
   -2.9682    1.9887    3.2847 H   0  0  0  0  0  0  0  0  0  0  0  0
   -2.3863    0.3246    2.7490 H   0  0  0  0  0  0  0  0  0  0  0  0
   -2.0806    1.7830    1.7598 H   0  0  0  0  0  0  0  0  0  0  0  0
   -7.9217    2.1040    2.0938 H   0  0  0  0  0  0  0  0  0  0  0  0
   -8.1330    0.2754    1.9949 H   0  0  0  0  0  0  0  0  0  0  0  0
   -8.2265    1.2870    0.5089 H   0  0  0  0  0  0  0  0  0  0  0  0
   -6.1218    0.1327   -0.6169 H   0  0  0  0  0  0  0  0  0  0  0  0
    1.4838    1.7049   -1.3047 H   0  0  0  0  0  0  0  0  0  0  0  0
    1.3293    1.5790    0.4615 H   0  0  0  0  0  0  0  0  0  0  0  0
    3.5916    1.8650    0.1753 H   0  0  0  0  0  0  0  0  0  0  0  0
    3.7212    0.9646   -1.3459 H   0  0  0  0  0  0  0  0  0  0  0  0
    4.5262    0.6728    2.0496 H   0  0  0  0  0  0  0  0  0  0  0  0
    5.0369   -1.0030    1.7008 H   0  0  0  0  0  0  0  0  0  0  0  0
    8.6224    0.0096   -1.2789 H   0  0  0  0  0  0  0  0  0  0  0  0
    3.2512   -1.8943    1.3943 H   0  0  0  0  0  0  0  0  0  0  0  0
    3.2332   -2.1390   -0.3431 H   0  0  0  0  0  0  0  0  0  0  0  0
    0.9038   -2.1204    0.4719 H   0  0  0  0  0  0  0  0  0  0  0  0
    1.2762   -0.6728    1.5196 H   0  0  0  0  0  0  0  0  0  0  0  0
   -0.2293   -1.9729   -4.5020 H   0  0  0  0  0  0  0  0  0  0  0  0
   -4.3315   -0.6288   -2.0657 H   0  0  0  0  0  0  0  0  0  0  0  0
  1  2  1  0
  2  3  2  0
  3  4  1  0
  4  5  1  0
  4  6  1  0
  6  7  2  0
  7  8  1  0
  8  9  2  0
  9 10  1  0
 10 11  2  0
 11 12  1  0
 12 13  1  0
 13 14  1  0
 14 15  1  0
 15 16  1  0
 16 17  1  0
 17 18  1  0
 18 19  2  0
 19 20  1  0
 20 21  1  0
 15 22  1  0
 22 23  1  0
 11 24  1  0
 24 25  1  0
 24 26  2  0
 26 27  1  0
 27 28  2  0
 28 29  1  0
  7  2  1  0
 29  8  1  0
 28 10  1  0
 23 12  1  0
 21 17  2  0
  1 30  1  0
  1 31  1  0
  1 32  1  0
  5 33  1  0
  5 34  1  0
  5 35  1  0
  6 36  1  0
 13 37  1  0
 13 38  1  0
 14 39  1  0
 14 40  1  0
 16 41  1  0
 16 42  1  0
 19 43  1  0
 22 44  1  0
 22 45  1  0
 23 46  1  0
 23 47  1  0
 26 48  1  0
 29 49  1  0
M  END
$$$$
