@<TRIPOS>MOLECULE
*****
 49 53 0 0 0
SMALL
GASTEIGER

@<TRIPOS>ATOM
      1 C          -2.8277    1.3013    2.4003 C.3     1  UNL1       -0.0199
      2 C          -4.1387    1.0857    1.7512 C.ar    1  UNL1        0.0706
      3 N          -5.3776    1.3736    2.2253 N.ar    1  UNL1       -0.1760
      4 N          -6.3054    1.0318    1.3475 N.ar    1  UNL1       -0.2735
      5 C          -7.7548    1.1888    1.5050 C.3     1  UNL1        0.0302
      6 C          -5.6694    0.5147    0.2872 C.ar    1  UNL1        0.0361
      7 C          -4.3102    0.5313    0.5022 C.ar    1  UNL1        0.0576
      8 C          -3.2401    0.0697   -0.3784 C.ar    1  UNL1        0.1437
      9 N          -1.9162    0.0942   -0.1509 N.ar    1  UNL1       -0.2241
     10 C          -1.2348   -0.4124   -1.1819 C.ar    1  UNL1        0.1307
     11 C           0.1095   -0.5990   -1.4187 C.ar    1  UNL1        0.0792
     12 N           1.0736   -0.2288   -0.4900 N.pl3   1  UNL1       -0.3246
     13 C           1.7305    1.0628   -0.4371 C.3     1  UNL1        0.0251
     14 C           3.2274    0.9347   -0.3302 C.3     1  UNL1        0.0151
     15 N           3.6951   -0.1854    0.3611 N.3     1  UNL1       -0.2921
     16 C           4.7986   -0.0290    1.2344 C.3     1  UNL1        0.0623
     17 C           5.9805    0.4639    0.4567 C.ar    1  UNL1        0.1853
     18 N           6.8748   -0.3447   -0.1297 N.ar    1  UNL1       -0.1975
     19 C           7.7861    0.4369   -0.7300 C.ar    1  UNL1        0.2144
     20 O           7.4556    1.6645   -0.5149 O.2     1  UNL1       -0.3414
     21 N           6.3735    1.7005    0.1963 N.ar    1  UNL1       -0.0603
     22 C           2.9505   -1.3654    0.4297 C.3     1  UNL1        0.0151
     23 C           1.4634   -1.1709    0.5361 C.3     1  UNL1        0.0251
     24 C           0.4455   -1.1592   -2.6143 C.ar    1  UNL1        0.0822
     25 CL          2.1211   -1.4186   -2.9958 Cl      1  UNL1       -0.0800
     26 C          -0.5088   -1.5249   -3.5476 C.ar    1  UNL1        0.0501
     27 N          -1.8093   -1.3320   -3.2908 N.ar    1  UNL1       -0.2343
     28 C          -2.1770   -0.7831   -2.1251 C.ar    1  UNL1        0.1600
     29 N          -3.3931   -0.4756   -1.6042 N.ar    1  UNL1       -0.3226
     30 H          -2.9682    1.9887    3.2847 H       1  UNL1        0.0293
     31 H          -2.3863    0.3246    2.7490 H       1  UNL1        0.0293
     32 H          -2.0806    1.7830    1.7598 H       1  UNL1        0.0293
     33 H          -7.9217    2.1040    2.0938 H       1  UNL1        0.0473
     34 H          -8.1330    0.2754    1.9949 H       1  UNL1        0.0473
     35 H          -8.2265    1.2870    0.5089 H       1  UNL1        0.0473
     36 H          -6.1218    0.1327   -0.6169 H       1  UNL1        0.0833
     37 H           1.4838    1.7049   -1.3047 H       1  UNL1        0.0476
     38 H           1.3293    1.5790    0.4615 H       1  UNL1        0.0476
     39 H           3.5916    1.8650    0.1753 H       1  UNL1        0.0442
     40 H           3.7212    0.9646   -1.3459 H       1  UNL1        0.0442
     41 H           4.5262    0.6728    2.0496 H       1  UNL1        0.0508
     42 H           5.0369   -1.0030    1.7008 H       1  UNL1        0.0508
     43 H           8.6224    0.0096   -1.2789 H       1  UNL1        0.1283
     44 H           3.2512   -1.8943    1.3943 H       1  UNL1        0.0442
     45 H           3.2332   -2.1390   -0.3431 H       1  UNL1        0.0442
     46 H           0.9038   -2.1204    0.4719 H       1  UNL1        0.0476
     47 H           1.2762   -0.6728    1.5196 H       1  UNL1        0.0476
     48 H          -0.2293   -1.9729   -4.5020 H       1  UNL1        0.0846
     49 H          -4.3315   -0.6288   -2.0657 H       1  UNL1        0.1688
@<TRIPOS>BOND
     1     1     2    1
     2     2     3   ar
     3     3     4   ar
     4     4     5    1
     5     4     6   ar
     6     6     7   ar
     7     7     8    1
     8     8     9   ar
     9     9    10   ar
    10    10    11   ar
    11    11    12    1
    12    12    13    1
    13    13    14    1
    14    14    15    1
    15    15    16    1
    16    16    17    1
    17    17    18   ar
    18    18    19   ar
    19    19    20   ar
    20    20    21   ar
    21    15    22    1
    22    22    23    1
    23    11    24   ar
    24    24    25    1
    25    24    26   ar
    26    26    27   ar
    27    27    28   ar
    28    28    29   ar
    29     7     2   ar
    30    29     8   ar
    31    28    10   ar
    32    23    12    1
    33    21    17   ar
    34     1    30    1
    35     1    31    1
    36     1    32    1
    37     5    33    1
    38     5    34    1
    39     5    35    1
    40     6    36    1
    41    13    37    1
    42    13    38    1
    43    14    39    1
    44    14    40    1
    45    16    41    1
    46    16    42    1
    47    19    43    1
    48    22    44    1
    49    22    45    1
    50    23    46    1
    51    23    47    1
    52    26    48    1
    53    29    49    1
