@<TRIPOS>MOLECULE
*****
 61 68 0 0 0
SMALL
GASTEIGER

@<TRIPOS>ATOM
      1 C           4.9961    1.3706    0.6936 C.3     1  UNL1       -0.0155
      2 N           4.2304    0.1296    0.7185 N.3     1  UNL1       -0.3136
      3 C           3.1411    0.2829   -0.2027 C.3     1  UNL1        0.0423
      4 C           2.2328    1.4467    0.1794 C.3     1  UNL1        0.0107
      5 C           1.2476    1.5957   -0.9239 C.3     1  UNL1        0.1402
      6 O           1.1825    0.5874   -1.8187 O.3     1  UNL1       -0.3282
      7 C           1.2758   -0.7182   -1.4046 C.3     1  UNL1        0.1741
      8 C           1.8878   -1.4975   -2.5556 C.3     1  UNL1       -0.0136
      9 C           2.2321   -0.9216   -0.2438 C.3     1  UNL1        0.1214
     10 O           1.5705   -1.1246    0.9546 O.3     1  UNL1       -0.3735
     11 C           1.9486   -2.3069    1.5581 C.3     1  UNL1        0.0371
     12 N          -0.0026   -1.1987   -0.9454 N.ar    1  UNL1       -0.3070
     13 C          -0.4530   -2.4785   -0.9901 C.ar    1  UNL1        0.0527
     14 C           0.1297   -3.6493   -1.4196 C.ar    1  UNL1       -0.0375
     15 C          -0.5928   -4.8295   -1.3264 C.ar    1  UNL1       -0.0598
     16 C          -1.8593   -4.8098   -0.8133 C.ar    1  UNL1       -0.0611
     17 C          -2.4324   -3.6323   -0.3849 C.ar    1  UNL1       -0.0520
     18 C          -1.7322   -2.4484   -0.4687 C.ar    1  UNL1        0.0081
     19 C          -2.0651   -1.1649   -0.1025 C.ar    1  UNL1        0.0151
     20 C          -3.1636   -0.5737    0.4658 C.ar    1  UNL1       -0.0078
     21 C          -3.2560    0.7878    0.7691 C.ar    1  UNL1        0.0518
     22 C          -2.1442    1.5474    0.4588 C.ar    1  UNL1        0.0221
     23 C          -1.8250    2.8799    0.6020 C.ar    1  UNL1        0.0085
     24 C          -2.5128    3.9574    1.1036 C.ar    1  UNL1       -0.0520
     25 C          -1.8816    5.2052    1.1030 C.ar    1  UNL1       -0.0611
     26 C          -0.6107    5.3716    0.6195 C.ar    1  UNL1       -0.0598
     27 C           0.0532    4.2765    0.1241 C.ar    1  UNL1       -0.0375
     28 C          -0.5435    3.0227    0.1094 C.ar    1  UNL1        0.0524
     29 N          -0.0744    1.8477   -0.3234 N.ar    1  UNL1       -0.3115
     30 C          -1.0452    0.9449   -0.1133 C.ar    1  UNL1        0.0774
     31 C          -0.9606   -0.4003   -0.4117 C.ar    1  UNL1        0.0772
     32 C          -4.5374    1.0660    1.3511 C.2     1  UNL1        0.2453
     33 O          -5.0127    2.1272    1.7535 O.2     1  UNL1       -0.2702
     34 N          -5.2614   -0.1582    1.4110 N.am    1  UNL1       -0.3072
     35 C          -4.4427   -1.1859    0.8744 C.3     1  UNL1        0.0385
     36 H           4.6319    2.0996    1.4401 H       1  UNL1        0.0388
     37 H           4.8734    1.8826   -0.3058 H       1  UNL1        0.0388
     38 H           6.0877    1.1888    0.7836 H       1  UNL1        0.0388
     39 H           4.8513   -0.6100    0.3753 H       1  UNL1        0.1220
     40 H           3.4927    0.4917   -1.2322 H       1  UNL1        0.0489
     41 H           2.8247    2.3752    0.3765 H       1  UNL1        0.0325
     42 H           1.7796    1.1616    1.1565 H       1  UNL1        0.0325
     43 H           1.4893    2.5282   -1.4764 H       1  UNL1        0.0839
     44 H           2.3972   -0.7234   -3.2462 H       1  UNL1        0.0277
     45 H           2.7279   -2.1300   -2.2929 H       1  UNL1        0.0277
     46 H           1.1259   -1.8927   -3.2459 H       1  UNL1        0.0277
     47 H           2.9067   -1.8000   -0.3929 H       1  UNL1        0.0660
     48 H           1.7471   -3.2090    0.9443 H       1  UNL1        0.0524
     49 H           1.5088   -2.4211    2.5573 H       1  UNL1        0.0524
     50 H           3.0556   -2.2921    1.7064 H       1  UNL1        0.0524
     51 H           1.1377   -3.6507   -1.8010 H       1  UNL1        0.0638
     52 H          -0.0924   -5.7223   -1.6775 H       1  UNL1        0.0618
     53 H          -2.3890   -5.7600   -0.7595 H       1  UNL1        0.0618
     54 H          -3.4254   -3.6410    0.0138 H       1  UNL1        0.0624
     55 H          -3.5122    3.8942    1.4976 H       1  UNL1        0.0624
     56 H          -2.4302    6.0658    1.5033 H       1  UNL1        0.0618
     57 H          -0.1162    6.3542    0.6201 H       1  UNL1        0.0618
     58 H           1.0703    4.3545   -0.2742 H       1  UNL1        0.0638
     59 H          -6.2331   -0.3239    1.7785 H       1  UNL1        0.1493
     60 H          -4.9271   -1.5588   -0.0544 H       1  UNL1        0.0512
     61 H          -4.3014   -2.0102    1.6051 H       1  UNL1        0.0512
@<TRIPOS>BOND
     1     1     2    1
     2     2     3    1
     3     3     4    1
     4     4     5    1
     5     5     6    1
     6     6     7    1
     7     7     8    1
     8     7     9    1
     9     9    10    1
    10    10    11    1
    11     7    12    1
    12    12    13   ar
    13    13    14   ar
    14    14    15   ar
    15    15    16   ar
    16    16    17   ar
    17    17    18   ar
    18    18    19   ar
    19    19    20   ar
    20    20    21   ar
    21    21    22   ar
    22    22    23   ar
    23    23    24   ar
    24    24    25   ar
    25    25    26   ar
    26    26    27   ar
    27    27    28   ar
    28    28    29   ar
    29    29    30   ar
    30    30    31   ar
    31    21    32    1
    32    32    33    2
    33    32    34   am
    34    34    35    1
    35     9     3    1
    36    31    12   ar
    37    29     5    1
    38    18    13   ar
    39    31    19   ar
    40    35    20    1
    41    30    22   ar
    42    28    23   ar
    43     1    36    1
    44     1    37    1
    45     1    38    1
    46     2    39    1
    47     3    40    1
    48     4    41    1
    49     4    42    1
    50     5    43    1
    51     8    44    1
    52     8    45    1
    53     8    46    1
    54     9    47    1
    55    11    48    1
    56    11    49    1
    57    11    50    1
    58    14    51    1
    59    15    52    1
    60    16    53    1
    61    17    54    1
    62    24    55    1
    63    25    56    1
    64    26    57    1
    65    27    58    1
    66    34    59    1
    67    35    60    1
    68    35    61    1
