
     RDKit          3D

 61 68  0  0  0  0  0  0  0  0999 V2000
    4.9961    1.3706    0.6936 C   0  0  0  0  0  0  0  0  0  0  0  0
    4.2304    0.1296    0.7185 N   0  0  0  0  0  0  0  0  0  0  0  0
    3.1411    0.2829   -0.2027 C   0  0  2  0  0  0  0  0  0  0  0  0
    2.2328    1.4467    0.1794 C   0  0  0  0  0  0  0  0  0  0  0  0
    1.2476    1.5957   -0.9239 C   0  0  1  0  0  0  0  0  0  0  0  0
    1.1825    0.5874   -1.8187 O   0  0  0  0  0  0  0  0  0  0  0  0
    1.2758   -0.7182   -1.4046 C   0  0  1  0  0  0  0  0  0  0  0  0
    1.8878   -1.4975   -2.5556 C   0  0  0  0  0  0  0  0  0  0  0  0
    2.2321   -0.9216   -0.2438 C   0  0  2  0  0  0  0  0  0  0  0  0
    1.5705   -1.1246    0.9546 O   0  0  0  0  0  0  0  0  0  0  0  0
    1.9486   -2.3069    1.5581 C   0  0  0  0  0  0  0  0  0  0  0  0
   -0.0026   -1.1987   -0.9454 N   0  0  0  0  0  0  0  0  0  0  0  0
   -0.4530   -2.4785   -0.9901 C   0  0  0  0  0  0  0  0  0  0  0  0
    0.1297   -3.6493   -1.4196 C   0  0  0  0  0  0  0  0  0  0  0  0
   -0.5928   -4.8295   -1.3264 C   0  0  0  0  0  0  0  0  0  0  0  0
   -1.8593   -4.8098   -0.8133 C   0  0  0  0  0  0  0  0  0  0  0  0
   -2.4324   -3.6323   -0.3849 C   0  0  0  0  0  0  0  0  0  0  0  0
   -1.7322   -2.4484   -0.4687 C   0  0  0  0  0  0  0  0  0  0  0  0
   -2.0651   -1.1649   -0.1025 C   0  0  0  0  0  0  0  0  0  0  0  0
   -3.1636   -0.5737    0.4658 C   0  0  0  0  0  0  0  0  0  0  0  0
   -3.2560    0.7878    0.7691 C   0  0  0  0  0  0  0  0  0  0  0  0
   -2.1442    1.5474    0.4588 C   0  0  0  0  0  0  0  0  0  0  0  0
   -1.8250    2.8799    0.6020 C   0  0  0  0  0  0  0  0  0  0  0  0
   -2.5128    3.9574    1.1036 C   0  0  0  0  0  0  0  0  0  0  0  0
   -1.8816    5.2052    1.1030 C   0  0  0  0  0  0  0  0  0  0  0  0
   -0.6107    5.3716    0.6195 C   0  0  0  0  0  0  0  0  0  0  0  0
    0.0532    4.2765    0.1241 C   0  0  0  0  0  0  0  0  0  0  0  0
   -0.5435    3.0227    0.1094 C   0  0  0  0  0  0  0  0  0  0  0  0
   -0.0744    1.8477   -0.3234 N   0  0  0  0  0  0  0  0  0  0  0  0
   -1.0452    0.9449   -0.1133 C   0  0  0  0  0  0  0  0  0  0  0  0
   -0.9606   -0.4003   -0.4117 C   0  0  0  0  0  0  0  0  0  0  0  0
   -4.5374    1.0660    1.3511 C   0  0  0  0  0  0  0  0  0  0  0  0
   -5.0127    2.1272    1.7535 O   0  0  0  0  0  0  0  0  0  0  0  0
   -5.2614   -0.1582    1.4110 N   0  0  0  0  0  0  0  0  0  0  0  0
   -4.4427   -1.1859    0.8744 C   0  0  0  0  0  0  0  0  0  0  0  0
    4.6319    2.0996    1.4401 H   0  0  0  0  0  0  0  0  0  0  0  0
    4.8734    1.8826   -0.3058 H   0  0  0  0  0  0  0  0  0  0  0  0
    6.0877    1.1888    0.7836 H   0  0  0  0  0  0  0  0  0  0  0  0
    4.8513   -0.6100    0.3753 H   0  0  0  0  0  0  0  0  0  0  0  0
    3.4927    0.4917   -1.2322 H   0  0  0  0  0  0  0  0  0  0  0  0
    2.8247    2.3752    0.3765 H   0  0  0  0  0  0  0  0  0  0  0  0
    1.7796    1.1616    1.1565 H   0  0  0  0  0  0  0  0  0  0  0  0
    1.4893    2.5282   -1.4764 H   0  0  0  0  0  0  0  0  0  0  0  0
    2.3972   -0.7234   -3.2462 H   0  0  0  0  0  0  0  0  0  0  0  0
    2.7279   -2.1300   -2.2929 H   0  0  0  0  0  0  0  0  0  0  0  0
    1.1259   -1.8927   -3.2459 H   0  0  0  0  0  0  0  0  0  0  0  0
    2.9067   -1.8000   -0.3929 H   0  0  0  0  0  0  0  0  0  0  0  0
    1.7471   -3.2090    0.9443 H   0  0  0  0  0  0  0  0  0  0  0  0
    1.5088   -2.4211    2.5573 H   0  0  0  0  0  0  0  0  0  0  0  0
    3.0556   -2.2921    1.7064 H   0  0  0  0  0  0  0  0  0  0  0  0
    1.1377   -3.6507   -1.8010 H   0  0  0  0  0  0  0  0  0  0  0  0
   -0.0924   -5.7223   -1.6775 H   0  0  0  0  0  0  0  0  0  0  0  0
   -2.3890   -5.7600   -0.7595 H   0  0  0  0  0  0  0  0  0  0  0  0
   -3.4254   -3.6410    0.0138 H   0  0  0  0  0  0  0  0  0  0  0  0
   -3.5122    3.8942    1.4976 H   0  0  0  0  0  0  0  0  0  0  0  0
   -2.4302    6.0658    1.5033 H   0  0  0  0  0  0  0  0  0  0  0  0
   -0.1162    6.3542    0.6201 H   0  0  0  0  0  0  0  0  0  0  0  0
    1.0703    4.3545   -0.2742 H   0  0  0  0  0  0  0  0  0  0  0  0
   -6.2331   -0.3239    1.7785 H   0  0  0  0  0  0  0  0  0  0  0  0
   -4.9271   -1.5588   -0.0544 H   0  0  0  0  0  0  0  0  0  0  0  0
   -4.3014   -2.0102    1.6051 H   0  0  0  0  0  0  0  0  0  0  0  0
  1  2  1  0
  2  3  1  0
  3  4  1  0
  4  5  1  0
  5  6  1  0
  6  7  1  0
  7  8  1  6
  7  9  1  0
  9 10  1  0
 10 11  1  0
  7 12  1  0
 12 13  1  0
 13 14  2  0
 14 15  1  0
 15 16  2  0
 16 17  1  0
 17 18  2  0
 18 19  1  0
 19 20  2  0
 20 21  1  0
 21 22  2  0
 22 23  1  0
 23 24  2  0
 24 25  1  0
 25 26  2  0
 26 27  1  0
 27 28  2  0
 28 29  1  0
 29 30  1  0
 30 31  2  0
 21 32  1  0
 32 33  2  0
 32 34  1  0
 34 35  1  0
  9  3  1  0
 31 12  1  0
 29  5  1  0
 18 13  1  0
 31 19  1  0
 35 20  1  0
 30 22  1  0
 28 23  1  0
  1 36  1  0
  1 37  1  0
  1 38  1  0
  2 39  1  0
  3 40  1  6
  4 41  1  0
  4 42  1  0
  5 43  1  6
  8 44  1  0
  8 45  1  0
  8 46  1  0
  9 47  1  6
 11 48  1  0
 11 49  1  0
 11 50  1  0
 14 51  1  0
 15 52  1  0
 16 53  1  0
 17 54  1  0
 24 55  1  0
 25 56  1  0
 26 57  1  0
 27 58  1  0
 34 59  1  0
 35 60  1  0
 35 61  1  0
M  END
$$$$
