@<TRIPOS>MOLECULE
*****
 101 107 0 0 0
SMALL
GASTEIGER

@<TRIPOS>ATOM
      1 C         -11.7281    2.6579    4.5189 C.3     1  UNL1        0.0788
      2 O         -11.1665    1.4622    4.0092 O.3     1  UNL1       -0.4951
      3 C         -10.3265    1.5401    2.8900 C.ar    1  UNL1        0.1202
      4 C         -10.0483    2.7493    2.2918 C.ar    1  UNL1       -0.0179
      5 C          -9.2079    2.8311    1.1714 C.ar    1  UNL1       -0.0327
      6 C          -8.6358    1.7027    0.6368 C.ar    1  UNL1        0.0677
      7 N          -7.7779    1.7749   -0.4994 N.ar    1  UNL1       -0.2181
      8 N          -8.0435    2.1583   -1.7273 N.ar    1  UNL1       -0.1694
      9 C          -6.9900    2.0850   -2.5439 C.ar    1  UNL1        0.0679
     10 C          -6.9288    2.4281   -4.0076 C.3     1  UNL1       -0.0025
     11 C          -7.6995    3.6979   -4.2034 C.3     1  UNL1       -0.0572
     12 C          -7.7436    1.3114   -4.6848 C.3     1  UNL1       -0.0572
     13 C          -5.9394    1.6042   -1.7547 C.ar    1  UNL1        0.0018
     14 C          -6.4523    1.4217   -0.5007 C.ar    1  UNL1        0.1299
     15 N          -5.7631    0.9234    0.6328 N.am    1  UNL1       -0.2538
     16 C          -4.4359    0.4356    0.6199 C.2     1  UNL1        0.3092
     17 O          -3.7776    0.4239   -0.4607 O.2     1  UNL1       -0.2521
     18 N          -3.7849   -0.0551    1.7661 N.am    1  UNL1       -0.2686
     19 C          -2.4738   -0.5794    1.8095 C.ar    1  UNL1        0.0427
     20 C          -1.3340    0.1433    2.0483 C.ar    1  UNL1       -0.0363
     21 C          -0.0929   -0.4458    2.0849 C.ar    1  UNL1       -0.0169
     22 C           0.0617   -1.8075    1.8802 C.ar    1  UNL1        0.1381
     23 O           1.2931   -2.4259    1.9119 O.3     1  UNL1       -0.4373
     24 C           1.8426   -2.9975    0.7696 C.ar    1  UNL1        0.2249
     25 C           1.2240   -2.8812   -0.4808 C.ar    1  UNL1        0.0186
     26 C           1.8044   -3.4556   -1.5722 C.ar    1  UNL1        0.0362
     27 N           2.9580   -4.1312   -1.4723 N.ar    1  UNL1       -0.2225
     28 C           3.5803   -4.2576   -0.2607 C.ar    1  UNL1        0.2226
     29 N           4.7799   -4.9914   -0.2217 N.pl3   1  UNL1       -0.2835
     30 C           6.0590   -4.4381   -0.3594 C.ar    1  UNL1        0.0348
     31 C           6.2199   -3.0728   -0.4600 C.ar    1  UNL1       -0.0283
     32 C           7.4535   -2.4798   -0.6029 C.ar    1  UNL1        0.0390
     33 C           7.6114   -1.0231   -0.7027 C.2     1  UNL1        0.2442
     34 O           8.7740   -0.5190   -0.8631 O.2     1  UNL1       -0.2702
     35 N           6.5326   -0.1083   -0.6310 N.am    1  UNL1       -0.3101
     36 C           6.7209    1.3293   -0.7314 C.3     1  UNL1        0.0247
     37 C           7.5984    1.8709    0.3452 C.3     1  UNL1        0.0146
     38 N           7.7765    3.3172    0.2401 N.3     1  UNL1       -0.2965
     39 C           8.5384    3.7158   -0.9049 C.3     1  UNL1        0.0225
     40 C           8.5687    5.2075   -1.0074 C.3     1  UNL1        0.0604
     41 O           8.4750    5.7952    0.2643 O.3     1  UNL1       -0.3772
     42 C           9.2606    4.9944    1.1003 C.3     1  UNL1        0.0604
     43 C           8.5283    3.7158    1.4379 C.3     1  UNL1        0.0225
     44 C           8.5678   -3.2674   -0.6477 C.ar    1  UNL1       -0.0379
     45 C           8.4176   -4.6338   -0.5477 C.ar    1  UNL1        0.0573
     46 C           9.5918   -5.5603   -0.5892 C.3     1  UNL1        0.4175
     47 F          10.7351   -4.8619   -0.2648 F       1  UNL1       -0.1659
     48 F           9.4436   -6.5607    0.3801 F       1  UNL1       -0.1659
     49 F           9.6817   -6.2072   -1.8017 F       1  UNL1       -0.1659
     50 C           7.1821   -5.2275   -0.4046 C.ar    1  UNL1       -0.0288
     51 N           2.9964   -3.6882    0.7937 N.ar    1  UNL1       -0.1789
     52 C          -1.0754   -2.5677    1.6368 C.ar    1  UNL1        0.0262
     53 C          -0.9615   -3.9400    1.4475 C.ar    1  UNL1       -0.0505
     54 C          -2.1142   -4.6525    1.2251 C.ar    1  UNL1       -0.0611
     55 C          -3.3555   -4.0662    1.1853 C.ar    1  UNL1       -0.0611
     56 C          -3.4555   -2.7127    1.3757 C.ar    1  UNL1       -0.0521
     57 C          -2.3171   -1.9523    1.6039 C.ar    1  UNL1        0.0069
     58 C          -8.9244    0.4917    1.2489 C.ar    1  UNL1       -0.0327
     59 C          -9.7497    0.4106    2.3491 C.ar    1  UNL1       -0.0179
     60 H         -12.4410    3.0977    3.7923 H       1  UNL1        0.0660
     61 H         -12.2909    2.4833    5.4558 H       1  UNL1        0.0660
     62 H         -10.9493    3.4271    4.7290 H       1  UNL1        0.0660
     63 H         -10.4984    3.6318    2.7139 H       1  UNL1        0.0655
     64 H          -9.0198    3.8009    0.7371 H       1  UNL1        0.0640
     65 H          -5.8985    2.4290   -4.3569 H       1  UNL1        0.0359
     66 H          -8.3188    3.6499   -5.1474 H       1  UNL1        0.0236
     67 H          -8.4661    3.8051   -3.3794 H       1  UNL1        0.0236
     68 H          -7.0789    4.5940   -4.1673 H       1  UNL1        0.0236
     69 H          -8.7349    1.3280   -4.1876 H       1  UNL1        0.0236
     70 H          -7.2281    0.3308   -4.5261 H       1  UNL1        0.0236
     71 H          -7.8578    1.4908   -5.7555 H       1  UNL1        0.0236
     72 H          -4.9441    1.4410   -2.1496 H       1  UNL1        0.0671
     73 H          -6.2436    0.8981    1.5822 H       1  UNL1        0.1578
     74 H          -4.3501   -0.0170    2.6658 H       1  UNL1        0.1564
     75 H          -1.4464    1.2185    2.2110 H       1  UNL1        0.0637
     76 H           0.7640    0.1765    2.2773 H       1  UNL1        0.0655
     77 H           0.2932   -2.3389   -0.5929 H       1  UNL1        0.0686
     78 H           1.3651   -3.3949   -2.5694 H       1  UNL1        0.0832
     79 H           4.6915   -6.0276   -0.0796 H       1  UNL1        0.1550
     80 H           5.3094   -2.4694   -0.4210 H       1  UNL1        0.0644
     81 H           5.5492   -0.4826   -0.4982 H       1  UNL1        0.1490
     82 H           7.1312    1.5978   -1.7428 H       1  UNL1        0.0475
     83 H           5.7417    1.8371   -0.6698 H       1  UNL1        0.0475
     84 H           7.0789    1.7388    1.3424 H       1  UNL1        0.0442
     85 H           8.5693    1.3638    0.4652 H       1  UNL1        0.0442
     86 H           9.5901    3.3452   -0.7525 H       1  UNL1        0.0449
     87 H           8.1422    3.3307   -1.8601 H       1  UNL1        0.0449
     88 H           9.4867    5.5800   -1.5380 H       1  UNL1        0.0572
     89 H           7.7024    5.5602   -1.6387 H       1  UNL1        0.0572
     90 H          10.2035    4.7930    0.5399 H       1  UNL1        0.0572
     91 H           9.4726    5.5885    2.0144 H       1  UNL1        0.0572
     92 H           9.3084    2.9135    1.5740 H       1  UNL1        0.0449
     93 H           7.8880    3.8154    2.3239 H       1  UNL1        0.0449
     94 H           9.5794   -2.8760   -0.7588 H       1  UNL1        0.0631
     95 H           7.0952   -6.3129   -0.3282 H       1  UNL1        0.0642
     96 H          -0.0000   -4.4141    1.4965 H       1  UNL1        0.0625
     97 H          -2.0175   -5.7398    1.0739 H       1  UNL1        0.0618
     98 H          -4.2654   -4.6612    1.0052 H       1  UNL1        0.0618
     99 H          -4.4474   -2.2301    1.3463 H       1  UNL1        0.0624
    100 H          -8.4656   -0.3891    0.8149 H       1  UNL1        0.0640
    101 H          -9.9727   -0.5446    2.8247 H       1  UNL1        0.0655
@<TRIPOS>BOND
     1     1     2    1
     2     2     3    1
     3     3     4   ar
     4     4     5   ar
     5     5     6   ar
     6     6     7    1
     7     7     8   ar
     8     8     9   ar
     9     9    10    1
    10    10    11    1
    11    10    12    1
    12     9    13   ar
    13    13    14   ar
    14    14    15    1
    15    15    16   am
    16    16    17    2
    17    16    18   am
    18    18    19    1
    19    19    20   ar
    20    20    21   ar
    21    21    22   ar
    22    22    23    1
    23    23    24    1
    24    24    25   ar
    25    25    26   ar
    26    26    27   ar
    27    27    28   ar
    28    28    29    1
    29    29    30    1
    30    30    31   ar
    31    31    32   ar
    32    32    33    1
    33    33    34    2
    34    33    35   am
    35    35    36    1
    36    36    37    1
    37    37    38    1
    38    38    39    1
    39    39    40    1
    40    40    41    1
    41    41    42    1
    42    42    43    1
    43    32    44   ar
    44    44    45   ar
    45    45    46    1
    46    46    47    1
    47    46    48    1
    48    46    49    1
    49    45    50   ar
    50    28    51   ar
    51    22    52   ar
    52    52    53   ar
    53    53    54   ar
    54    54    55   ar
    55    55    56   ar
    56    56    57   ar
    57     6    58   ar
    58    58    59   ar
    59    59     3   ar
    60    14     7   ar
    61    57    19   ar
    62    51    24   ar
    63    57    52   ar
    64    50    30   ar
    65    43    38    1
    66     1    60    1
    67     1    61    1
    68     1    62    1
    69     4    63    1
    70     5    64    1
    71    10    65    1
    72    11    66    1
    73    11    67    1
    74    11    68    1
    75    12    69    1
    76    12    70    1
    77    12    71    1
    78    13    72    1
    79    15    73    1
    80    18    74    1
    81    20    75    1
    82    21    76    1
    83    25    77    1
    84    26    78    1
    85    29    79    1
    86    31    80    1
    87    35    81    1
    88    36    82    1
    89    36    83    1
    90    37    84    1
    91    37    85    1
    92    39    86    1
    93    39    87    1
    94    40    88    1
    95    40    89    1
    96    42    90    1
    97    42    91    1
    98    43    92    1
    99    43    93    1
   100    44    94    1
   101    50    95    1
   102    53    96    1
   103    54    97    1
   104    55    98    1
   105    56    99    1
   106    58   100    1
   107    59   101    1
