
     RDKit          3D

 42 45  0  0  0  0  0  0  0  0999 V2000
   -5.3906   -1.4216   -1.5704 N   0  0  0  0  0  0  0  0  0  0  0  0
   -4.5079   -0.5520   -0.8829 C   0  0  0  0  0  0  0  0  0  0  0  0
   -3.5040   -0.9423   -0.1677 N   0  0  0  0  0  0  0  0  0  0  0  0
   -2.6258    0.0104    0.5230 C   0  0  2  0  0  0  0  0  0  0  0  0
   -1.4328   -0.7858    0.8966 C   0  0  0  0  0  0  0  0  0  0  0  0
   -0.1332   -0.4739    0.5490 C   0  0  0  0  0  0  0  0  0  0  0  0
    0.9637   -1.2114    0.9416 C   0  0  0  0  0  0  0  0  0  0  0  0
    2.3062   -0.9083    0.5946 N   0  0  0  0  0  0  0  0  0  0  0  0
    2.7729    0.1485   -0.1821 C   0  0  0  0  0  0  0  0  0  0  0  0
    1.9811    0.9754   -0.6709 O   0  0  0  0  0  0  0  0  0  0  0  0
    4.2077    0.3548   -0.4717 C   0  0  0  0  0  0  0  0  0  0  0  0
    4.6551    1.4022   -1.2399 C   0  0  0  0  0  0  0  0  0  0  0  0
    6.0167    1.5763   -1.4999 C   0  0  0  0  0  0  0  0  0  0  0  0
    6.9261    0.6751   -0.9717 C   0  0  0  0  0  0  0  0  0  0  0  0
    8.6570    0.8505   -1.2704 Cl  0  0  0  0  0  0  0  0  0  0  0  0
    6.4411   -0.3631   -0.2059 C   0  0  0  0  0  0  0  0  0  0  0  0
    5.1229   -0.4946    0.0201 N   0  0  0  0  0  0  0  0  0  0  0  0
    0.6880   -2.3285    1.7361 C   0  0  0  0  0  0  0  0  0  0  0  0
   -0.5813   -2.6799    2.1074 C   0  0  0  0  0  0  0  0  0  0  0  0
   -1.6414   -1.9042    1.6840 C   0  0  0  0  0  0  0  0  0  0  0  0
   -2.8614   -2.3487    2.0772 F   0  0  0  0  0  0  0  0  0  0  0  0
   -3.2963    0.4559    1.7909 C   0  0  0  0  0  0  0  0  0  0  0  0
   -4.5267    1.0626    1.5962 F   0  0  0  0  0  0  0  0  0  0  0  0
   -2.4474    1.3440    2.4924 F   0  0  0  0  0  0  0  0  0  0  0  0
   -2.3429    1.1840   -0.3586 C   0  0  2  0  0  0  0  0  0  0  0  0
   -2.9414    2.5273   -0.1536 C   0  0  0  0  0  0  0  0  0  0  0  0
   -3.5434    1.6373   -1.1645 C   0  0  2  0  0  0  0  0  0  0  0  0
   -4.6660    0.8405   -0.9329 O   0  0  0  0  0  0  0  0  0  0  0  0
   -5.0280   -2.3258   -1.9127 H   0  0  0  0  0  0  0  0  0  0  0  0
   -6.3739   -1.1669   -1.7302 H   0  0  0  0  0  0  0  0  0  0  0  0
   -0.0182    0.3997   -0.0520 H   0  0  0  0  0  0  0  0  0  0  0  0
    3.0521   -1.5616    0.9684 H   0  0  0  0  0  0  0  0  0  0  0  0
    3.9176    2.0872   -1.6367 H   0  0  0  0  0  0  0  0  0  0  0  0
    6.3696    2.3933   -2.0995 H   0  0  0  0  0  0  0  0  0  0  0  0
    7.1695   -1.0548    0.1963 H   0  0  0  0  0  0  0  0  0  0  0  0
    1.5631   -2.9171    2.0500 H   0  0  0  0  0  0  0  0  0  0  0  0
   -0.6889   -3.5611    2.7230 H   0  0  0  0  0  0  0  0  0  0  0  0
   -3.4895   -0.3372    2.5305 H   0  0  0  0  0  0  0  0  0  0  0  0
   -1.4343    1.1916   -1.0351 H   0  0  0  0  0  0  0  0  0  0  0  0
   -2.3410    3.4280   -0.5165 H   0  0  0  0  0  0  0  0  0  0  0  0
   -3.5595    2.8218    0.6890 H   0  0  0  0  0  0  0  0  0  0  0  0
   -3.4345    1.9725   -2.2102 H   0  0  0  0  0  0  0  0  0  0  0  0
  1  2  1  0
  2  3  2  0
  3  4  1  0
  4  5  1  0
  5  6  2  0
  6  7  1  0
  7  8  1  0
  8  9  1  0
  9 10  2  0
  9 11  1  0
 11 12  2  0
 12 13  1  0
 13 14  2  0
 14 15  1  0
 14 16  1  0
 16 17  2  0
  7 18  2  0
 18 19  1  0
 19 20  2  0
 20 21  1  0
  4 22  1  1
 22 23  1  0
 22 24  1  0
  4 25  1  0
 25 26  1  0
 26 27  1  0
 27 28  1  0
 28  2  1  0
 20  5  1  0
 27 25  1  0
 17 11  1  0
  1 29  1  0
  1 30  1  0
  6 31  1  0
  8 32  1  0
 12 33  1  0
 13 34  1  0
 16 35  1  0
 18 36  1  0
 19 37  1  0
 22 38  1  0
 25 39  1  6
 26 40  1  0
 26 41  1  0
 27 42  1  6
M  END
$$$$
