@<TRIPOS>MOLECULE
*****
 42 45 0 0 0
SMALL
GASTEIGER

@<TRIPOS>ATOM
      1 N          -5.3906   -1.4216   -1.5704 N.pl3   1  UNL1       -0.3134
      2 C          -4.5079   -0.5520   -0.8829 C.2     1  UNL1        0.2764
      3 N          -3.5040   -0.9423   -0.1677 N.2     1  UNL1       -0.2194
      4 C          -2.6258    0.0104    0.5230 C.3     1  UNL1        0.1603
      5 C          -1.4328   -0.7858    0.8966 C.ar    1  UNL1        0.0228
      6 C          -0.1332   -0.4739    0.5490 C.ar    1  UNL1       -0.0321
      7 C           0.9637   -1.2114    0.9416 C.ar    1  UNL1        0.0342
      8 N           2.3062   -0.9083    0.5946 N.am    1  UNL1       -0.2802
      9 C           2.7729    0.1485   -0.1821 C.2     1  UNL1        0.2666
     10 O           1.9811    0.9754   -0.6709 O.2     1  UNL1       -0.2682
     11 C           4.2077    0.3548   -0.4717 C.ar    1  UNL1        0.1257
     12 C           4.6551    1.4022   -1.2399 C.ar    1  UNL1       -0.0298
     13 C           6.0167    1.5763   -1.4999 C.ar    1  UNL1       -0.0397
     14 C           6.9261    0.6751   -0.9717 C.ar    1  UNL1        0.0591
     15 CL          8.6570    0.8505   -1.2704 Cl      1  UNL1       -0.0820
     16 C           6.4411   -0.3631   -0.2059 C.ar    1  UNL1        0.0467
     17 N           5.1229   -0.4946    0.0201 N.ar    1  UNL1       -0.2489
     18 C           0.6880   -2.3285    1.7361 C.ar    1  UNL1       -0.0377
     19 C          -0.5813   -2.6799    2.1074 C.ar    1  UNL1       -0.0243
     20 C          -1.6414   -1.9042    1.6840 C.ar    1  UNL1        0.1292
     21 F          -2.8614   -2.3487    2.0772 F       1  UNL1       -0.2051
     22 C          -3.2963    0.4559    1.7909 C.3     1  UNL1        0.2686
     23 F          -4.5267    1.0626    1.5962 F       1  UNL1       -0.2062
     24 F          -2.4474    1.3440    2.4924 F       1  UNL1       -0.2062
     25 C          -2.3429    1.1840   -0.3586 C.3     1  UNL1        0.0344
     26 C          -2.9414    2.5273   -0.1536 C.3     1  UNL1       -0.0064
     27 C          -3.5434    1.6373   -1.1645 C.3     1  UNL1        0.1091
     28 O          -4.6660    0.8405   -0.9329 O.2     1  UNL1       -0.4622
     29 H          -5.0280   -2.3258   -1.9127 H       1  UNL1        0.1466
     30 H          -6.3739   -1.1669   -1.7302 H       1  UNL1        0.1466
     31 H          -0.0182    0.3997   -0.0520 H       1  UNL1        0.0640
     32 H           3.0521   -1.5616    0.9684 H       1  UNL1        0.1552
     33 H           3.9176    2.0872   -1.6367 H       1  UNL1        0.0641
     34 H           6.3696    2.3933   -2.0995 H       1  UNL1        0.0633
     35 H           7.1695   -1.0548    0.1963 H       1  UNL1        0.0844
     36 H           1.5631   -2.9171    2.0500 H       1  UNL1        0.0637
     37 H          -0.6889   -3.5611    2.7230 H       1  UNL1        0.0647
     38 H          -3.4895   -0.3372    2.5305 H       1  UNL1        0.1047
     39 H          -1.4343    1.1916   -1.0351 H       1  UNL1        0.0366
     40 H          -2.3410    3.4280   -0.5165 H       1  UNL1        0.0306
     41 H          -3.5595    2.8218    0.6890 H       1  UNL1        0.0306
     42 H          -3.4345    1.9725   -2.2102 H       1  UNL1        0.0737
@<TRIPOS>BOND
     1     1     2    1
     2     2     3    2
     3     3     4    1
     4     4     5    1
     5     5     6   ar
     6     6     7   ar
     7     7     8    1
     8     8     9   am
     9     9    10    2
    10     9    11    1
    11    11    12   ar
    12    12    13   ar
    13    13    14   ar
    14    14    15    1
    15    14    16   ar
    16    16    17   ar
    17     7    18   ar
    18    18    19   ar
    19    19    20   ar
    20    20    21    1
    21     4    22    1
    22    22    23    1
    23    22    24    1
    24     4    25    1
    25    25    26    1
    26    26    27    1
    27    27    28    1
    28    28     2    1
    29    20     5   ar
    30    27    25    1
    31    17    11   ar
    32     1    29    1
    33     1    30    1
    34     6    31    1
    35     8    32    1
    36    12    33    1
    37    13    34    1
    38    16    35    1
    39    18    36    1
    40    19    37    1
    41    22    38    1
    42    25    39    1
    43    26    40    1
    44    26    41    1
    45    27    42    1
