
     RDKit          3D

 50 52  0  0  0  0  0  0  0  0999 V2000
   -2.4950    3.3962   -0.5404 C   0  0  0  0  0  0  0  0  0  0  0  0
   -1.9597    2.6677    0.6815 C   0  0  0  0  0  0  0  0  0  0  0  0
   -0.7587    1.9146    0.3981 N   0  0  0  0  0  0  0  0  0  0  0  0
    0.5112    2.2555    0.4436 C   0  0  0  0  0  0  0  0  0  0  0  0
    1.1445    3.5188    0.7725 C   0  0  0  0  0  0  0  0  0  0  0  0
    2.5370    3.6014    0.7906 N   0  0  0  0  0  0  0  0  0  0  0  0
    2.8688    4.8017    1.1262 O   0  0  0  0  0  0  0  0  0  0  0  0
    1.8491    5.5356    1.3356 N   0  0  0  0  0  0  0  0  0  0  0  0
    0.7617    4.7450    1.1172 C   0  0  0  0  0  0  0  0  0  0  0  0
   -0.5281    5.2421    1.2406 N   0  0  0  0  0  0  0  0  0  0  0  0
    1.2521    1.1305    0.1009 N   0  0  0  0  0  0  0  0  0  0  0  0
    0.4501    0.1041   -0.1558 C   0  0  0  0  0  0  0  0  0  0  0  0
    0.6654   -1.2155   -0.5361 C   0  0  0  0  0  0  0  0  0  0  0  0
    2.0085   -1.6562   -0.7114 C   0  0  0  0  0  0  0  0  0  0  0  0
    3.1352   -2.0369   -0.8406 C   0  0  0  0  0  0  0  0  0  0  0  0
    4.5150   -2.4977   -1.0209 C   0  0  0  0  0  0  0  0  0  0  0  0
    5.4166   -1.3276   -0.7470 C   0  0  0  0  0  0  0  0  0  0  0  0
    4.7519   -3.0891   -2.3743 C   0  0  0  0  0  0  0  0  0  0  0  0
    4.7818   -3.4786   -0.0446 O   0  0  0  0  0  0  0  0  0  0  0  0
   -0.3737   -2.0297   -0.7270 N   0  0  0  0  0  0  0  0  0  0  0  0
   -1.6532   -1.6227   -0.5644 C   0  0  0  0  0  0  0  0  0  0  0  0
   -2.7920   -2.5435   -0.7835 C   0  0  0  0  0  0  0  0  0  0  0  0
   -3.1952   -3.2920    0.4627 C   0  0  0  0  0  0  0  0  0  0  0  0
   -3.6179   -2.3696    1.5674 C   0  0  0  0  0  0  0  0  0  0  0  0
   -4.7476   -1.5413    1.2301 N   0  0  0  0  0  0  0  0  0  0  0  0
   -1.8577   -0.3039   -0.1847 C   0  0  0  0  0  0  0  0  0  0  0  0
   -0.8209    0.5803    0.0261 C   0  0  0  0  0  0  0  0  0  0  0  0
   -3.1326    4.2301   -0.2612 H   0  0  0  0  0  0  0  0  0  0  0  0
   -1.5880    3.8128   -1.0594 H   0  0  0  0  0  0  0  0  0  0  0  0
   -2.9528    2.6901   -1.2517 H   0  0  0  0  0  0  0  0  0  0  0  0
   -1.9680    3.2147    1.6113 H   0  0  0  0  0  0  0  0  0  0  0  0
   -2.7911    1.8675    0.8411 H   0  0  0  0  0  0  0  0  0  0  0  0
   -1.0598    5.6226    0.4395 H   0  0  0  0  0  0  0  0  0  0  0  0
   -0.9809    5.2466    2.1803 H   0  0  0  0  0  0  0  0  0  0  0  0
    4.9863   -0.7891    0.1428 H   0  0  0  0  0  0  0  0  0  0  0  0
    5.3744   -0.6167   -1.5793 H   0  0  0  0  0  0  0  0  0  0  0  0
    6.4546   -1.6554   -0.4949 H   0  0  0  0  0  0  0  0  0  0  0  0
    3.9345   -2.7745   -3.0600 H   0  0  0  0  0  0  0  0  0  0  0  0
    4.6991   -4.1992   -2.3198 H   0  0  0  0  0  0  0  0  0  0  0  0
    5.7394   -2.7855   -2.7987 H   0  0  0  0  0  0  0  0  0  0  0  0
    4.1361   -3.3465    0.7046 H   0  0  0  0  0  0  0  0  0  0  0  0
   -3.7019   -1.9419   -1.0803 H   0  0  0  0  0  0  0  0  0  0  0  0
   -2.6069   -3.2154   -1.6358 H   0  0  0  0  0  0  0  0  0  0  0  0
   -3.9395   -4.0491    0.2007 H   0  0  0  0  0  0  0  0  0  0  0  0
   -2.2918   -3.8327    0.8159 H   0  0  0  0  0  0  0  0  0  0  0  0
   -2.7489   -1.7204    1.8155 H   0  0  0  0  0  0  0  0  0  0  0  0
   -3.8893   -2.9931    2.4411 H   0  0  0  0  0  0  0  0  0  0  0  0
   -5.1962   -1.7783    0.3320 H   0  0  0  0  0  0  0  0  0  0  0  0
   -5.4577   -1.5597    1.9947 H   0  0  0  0  0  0  0  0  0  0  0  0
   -2.8682    0.0837   -0.0410 H   0  0  0  0  0  0  0  0  0  0  0  0
  1  2  1  0
  2  3  1  0
  3  4  1  0
  4  5  1  0
  5  6  2  0
  6  7  1  0
  7  8  1  0
  8  9  2  0
  9 10  1  0
  4 11  2  0
 11 12  1  0
 12 13  2  0
 13 14  1  0
 14 15  3  0
 15 16  1  0
 16 17  1  0
 16 18  1  0
 16 19  1  0
 13 20  1  0
 20 21  2  0
 21 22  1  0
 22 23  1  0
 23 24  1  0
 24 25  1  0
 21 26  1  0
 26 27  2  0
 27  3  1  0
  9  5  1  0
 27 12  1  0
  1 28  1  0
  1 29  1  0
  1 30  1  0
  2 31  1  0
  2 32  1  0
 10 33  1  0
 10 34  1  0
 17 35  1  0
 17 36  1  0
 17 37  1  0
 18 38  1  0
 18 39  1  0
 18 40  1  0
 19 41  1  0
 22 42  1  0
 22 43  1  0
 23 44  1  0
 23 45  1  0
 24 46  1  0
 24 47  1  0
 25 48  1  0
 25 49  1  0
 26 50  1  0
M  END
$$$$
