@<TRIPOS>MOLECULE
*****
 50 52 0 0 0
SMALL
GASTEIGER

@<TRIPOS>ATOM
      1 C          -2.4950    3.3962   -0.5404 C.3     1  UNL1       -0.0470
      2 C          -1.9597    2.6677    0.6815 C.3     1  UNL1        0.0225
      3 N          -0.7587    1.9146    0.3981 N.ar    1  UNL1       -0.3223
      4 C           0.5112    2.2555    0.4436 C.ar    1  UNL1        0.1672
      5 C           1.1445    3.5188    0.7725 C.ar    1  UNL1        0.1904
      6 N           2.5370    3.6014    0.7906 N.ar    1  UNL1       -0.0438
      7 O           2.8688    4.8017    1.1262 O.2     1  UNL1       -0.2402
      8 N           1.8491    5.5356    1.3356 N.ar    1  UNL1       -0.0335
      9 C           0.7617    4.7450    1.1172 C.ar    1  UNL1        0.1909
     10 N          -0.5281    5.2421    1.2406 N.pl3   1  UNL1       -0.3386
     11 N           1.2521    1.1305    0.1009 N.ar    1  UNL1       -0.2229
     12 C           0.4501    0.1041   -0.1558 C.ar    1  UNL1        0.1234
     13 C           0.6654   -1.2155   -0.5361 C.ar    1  UNL1        0.1411
     14 C           2.0085   -1.6562   -0.7114 C.1     1  UNL1       -0.0414
     15 C           3.1352   -2.0369   -0.8406 C.1     1  UNL1       -0.0614
     16 C           4.5150   -2.4977   -1.0209 C.3     1  UNL1        0.1212
     17 C           5.4166   -1.3276   -0.7470 C.3     1  UNL1       -0.0249
     18 C           4.7519   -3.0891   -2.3743 C.3     1  UNL1       -0.0249
     19 O           4.7818   -3.4786   -0.0446 O.3     1  UNL1       -0.3771
     20 N          -0.3737   -2.0297   -0.7270 N.ar    1  UNL1       -0.2410
     21 C          -1.6532   -1.6227   -0.5644 C.ar    1  UNL1        0.0448
     22 C          -2.7920   -2.5435   -0.7835 C.3     1  UNL1       -0.0092
     23 C          -3.1952   -3.2920    0.4627 C.3     1  UNL1       -0.0352
     24 C          -3.6179   -2.3696    1.5674 C.3     1  UNL1       -0.0066
     25 N          -4.7476   -1.5413    1.2301 N.3     1  UNL1       -0.3300
     26 C          -1.8577   -0.3039   -0.1847 C.ar    1  UNL1       -0.0146
     27 C          -0.8209    0.5803    0.0261 C.ar    1  UNL1        0.0736
     28 H          -3.1326    4.2301   -0.2612 H       1  UNL1        0.0247
     29 H          -1.5880    3.8128   -1.0594 H       1  UNL1        0.0247
     30 H          -2.9528    2.6901   -1.2517 H       1  UNL1        0.0247
     31 H          -1.9680    3.2147    1.6113 H       1  UNL1        0.0490
     32 H          -2.7911    1.8675    0.8411 H       1  UNL1        0.0490
     33 H          -1.0598    5.6226    0.4395 H       1  UNL1        0.1439
     34 H          -0.9809    5.2466    2.1803 H       1  UNL1        0.1439
     35 H           4.9863   -0.7891    0.1428 H       1  UNL1        0.0267
     36 H           5.3744   -0.6167   -1.5793 H       1  UNL1        0.0267
     37 H           6.4546   -1.6554   -0.4949 H       1  UNL1        0.0267
     38 H           3.9345   -2.7745   -3.0600 H       1  UNL1        0.0267
     39 H           4.6991   -4.1992   -2.3198 H       1  UNL1        0.0267
     40 H           5.7394   -2.7855   -2.7987 H       1  UNL1        0.0267
     41 H           4.1361   -3.3465    0.7046 H       1  UNL1        0.2114
     42 H          -3.7019   -1.9419   -1.0803 H       1  UNL1        0.0329
     43 H          -2.6069   -3.2154   -1.6358 H       1  UNL1        0.0329
     44 H          -3.9395   -4.0491    0.2007 H       1  UNL1        0.0281
     45 H          -2.2918   -3.8327    0.8159 H       1  UNL1        0.0281
     46 H          -2.7489   -1.7204    1.8155 H       1  UNL1        0.0422
     47 H          -3.8893   -2.9931    2.4411 H       1  UNL1        0.0422
     48 H          -5.1962   -1.7783    0.3320 H       1  UNL1        0.1182
     49 H          -5.4577   -1.5597    1.9947 H       1  UNL1        0.1182
     50 H          -2.8682    0.0837   -0.0410 H       1  UNL1        0.0657
@<TRIPOS>BOND
     1     1     2    1
     2     2     3    1
     3     3     4   ar
     4     4     5    1
     5     5     6   ar
     6     6     7   ar
     7     7     8   ar
     8     8     9   ar
     9     9    10    1
    10     4    11   ar
    11    11    12   ar
    12    12    13   ar
    13    13    14    1
    14    14    15    3
    15    15    16    1
    16    16    17    1
    17    16    18    1
    18    16    19    1
    19    13    20   ar
    20    20    21   ar
    21    21    22    1
    22    22    23    1
    23    23    24    1
    24    24    25    1
    25    21    26   ar
    26    26    27   ar
    27    27     3   ar
    28     9     5   ar
    29    27    12   ar
    30     1    28    1
    31     1    29    1
    32     1    30    1
    33     2    31    1
    34     2    32    1
    35    10    33    1
    36    10    34    1
    37    17    35    1
    38    17    36    1
    39    17    37    1
    40    18    38    1
    41    18    39    1
    42    18    40    1
    43    19    41    1
    44    22    42    1
    45    22    43    1
    46    23    44    1
    47    23    45    1
    48    24    46    1
    49    24    47    1
    50    25    48    1
    51    25    49    1
    52    26    50    1
