@<TRIPOS>MOLECULE
*****
 63 68 0 0 0
SMALL
GASTEIGER

@<TRIPOS>ATOM
      1 C           8.1905    3.0785    0.1412 C.3     1  UNL1       -0.0305
      2 C           8.2053    1.8085   -0.6608 C.3     1  UNL1        0.0913
      3 O           7.0860    1.0331   -0.2914 O.3     1  UNL1       -0.4505
      4 C           5.8169    1.5513   -0.4665 C.2     1  UNL1        0.4030
      5 O           5.6451    2.6961   -0.9470 O.2     1  UNL1       -0.2263
      6 N           4.6857    0.7866   -0.1012 N.am    1  UNL1       -0.2633
      7 C           4.4642   -0.5153    0.4600 C.3     1  UNL1        0.0418
      8 C           3.1118   -0.0481    0.9438 C.3     1  UNL1        0.0850
      9 N           2.0818   -1.0520    0.7080 N.ar    1  UNL1       -0.2526
     10 N           2.2374   -2.3567    0.7513 N.ar    1  UNL1       -0.1751
     11 C           1.0469   -2.9150    0.4757 C.ar    1  UNL1        0.0660
     12 C           0.7123   -4.3416    0.4049 C.3     1  UNL1       -0.0203
     13 C           0.1170   -1.8897    0.2527 C.ar    1  UNL1        0.0304
     14 C           0.8048   -0.7201    0.4072 C.ar    1  UNL1        0.1298
     15 C          -0.1141    0.3751    0.1805 C.2     1  UNL1        0.2700
     16 O           0.2046    1.6117    0.2477 O.2     1  UNL1       -0.2679
     17 N          -1.3859   -0.1780   -0.1185 N.am    1  UNL1       -0.2531
     18 C          -2.4945    0.6757   -0.4156 C.ar    1  UNL1        0.0545
     19 C          -3.2638    1.1224    0.6215 C.ar    1  UNL1       -0.0324
     20 C          -4.3590    1.9489    0.4269 C.ar    1  UNL1       -0.0041
     21 C          -5.1706    2.4153    1.5635 C.3     1  UNL1       -0.0361
     22 C          -4.6416    2.3058   -0.8814 C.ar    1  UNL1        0.1641
     23 N          -5.6403    3.0913   -1.3377 N.ar    1  UNL1       -0.1292
     24 N          -5.5118    3.1463   -2.6465 N.ar    1  UNL1       -0.1340
     25 C          -4.4505    2.4088   -3.0144 C.ar    1  UNL1        0.1347
     26 C          -3.9721    2.2161   -4.4035 C.3     1  UNL1       -0.0041
     27 N          -3.8921    1.8732   -1.9145 N.ar    1  UNL1       -0.2846
     28 C          -2.8213    1.0612   -1.6907 C.ar    1  UNL1        0.0344
     29 C          -1.2926   -1.5865   -0.0731 C.3     1  UNL1        0.0854
     30 C          -2.2191   -2.2614    0.8637 C.ar    1  UNL1       -0.0221
     31 C          -2.9082   -3.3593    0.3944 C.ar    1  UNL1       -0.0551
     32 C          -3.7989   -4.0793    1.1762 C.ar    1  UNL1       -0.0431
     33 C          -4.0227   -3.7007    2.4836 C.ar    1  UNL1        0.0410
     34 CL         -5.1374   -4.5670    3.5308 Cl      1  UNL1       -0.0835
     35 C          -3.3249   -2.5943    2.9480 C.ar    1  UNL1       -0.0431
     36 C          -2.4465   -1.8971    2.1517 C.ar    1  UNL1       -0.0551
     37 C           3.2528    0.9868   -0.1354 C.3     1  UNL1        0.0418
     38 H           9.0132    3.0358    0.9094 H       1  UNL1        0.0262
     39 H           7.2479    3.2000    0.6993 H       1  UNL1        0.0262
     40 H           8.3816    3.9835   -0.4789 H       1  UNL1        0.0262
     41 H           8.0957    2.0487   -1.7434 H       1  UNL1        0.0695
     42 H           9.1369    1.2355   -0.4744 H       1  UNL1        0.0695
     43 H           4.3798   -1.2809   -0.3310 H       1  UNL1        0.0487
     44 H           5.1322   -0.7880    1.3074 H       1  UNL1        0.0487
     45 H           3.1437    0.3310    1.9823 H       1  UNL1        0.0576
     46 H           0.7469   -4.7415   -0.6407 H       1  UNL1        0.0293
     47 H           1.4775   -4.9408    0.9648 H       1  UNL1        0.0293
     48 H          -0.2649   -4.5926    0.8946 H       1  UNL1        0.0293
     49 H          -3.0652    0.8637    1.6517 H       1  UNL1        0.0640
     50 H          -6.2404    2.4045    1.2172 H       1  UNL1        0.0279
     51 H          -5.0107    1.7301    2.4107 H       1  UNL1        0.0279
     52 H          -4.8557    3.4478    1.8129 H       1  UNL1        0.0279
     53 H          -3.5341    1.2170   -4.5758 H       1  UNL1        0.0308
     54 H          -3.2470    3.0120   -4.6346 H       1  UNL1        0.0308
     55 H          -4.8388    2.3290   -5.0902 H       1  UNL1        0.0308
     56 H          -2.2339    0.7280   -2.5511 H       1  UNL1        0.0833
     57 H          -1.4625   -1.9965   -1.1119 H       1  UNL1        0.0606
     58 H          -2.7695   -3.7026   -0.6317 H       1  UNL1        0.0621
     59 H          -4.3366   -4.9483    0.7855 H       1  UNL1        0.0632
     60 H          -3.5117   -2.3089    3.9786 H       1  UNL1        0.0632
     61 H          -1.9242   -1.0465    2.5455 H       1  UNL1        0.0621
     62 H           2.9236    2.0113    0.1498 H       1  UNL1        0.0487
     63 H           2.8211    0.6379   -1.0813 H       1  UNL1        0.0487
@<TRIPOS>BOND
     1     1     2    1
     2     2     3    1
     3     3     4    1
     4     4     5    2
     5     4     6   am
     6     6     7    1
     7     7     8    1
     8     8     9    1
     9     9    10   ar
    10    10    11   ar
    11    11    12    1
    12    11    13   ar
    13    13    14   ar
    14    14    15    1
    15    15    16    2
    16    15    17   am
    17    17    18    1
    18    18    19   ar
    19    19    20   ar
    20    20    21    1
    21    20    22   ar
    22    22    23   ar
    23    23    24   ar
    24    24    25   ar
    25    25    26    1
    26    25    27   ar
    27    27    28   ar
    28    17    29    1
    29    29    30    1
    30    30    31   ar
    31    31    32   ar
    32    32    33   ar
    33    33    34    1
    34    33    35   ar
    35    35    36   ar
    36     8    37    1
    37    37     6    1
    38    14     9   ar
    39    28    18   ar
    40    36    30   ar
    41    29    13    1
    42    27    22   ar
    43     1    38    1
    44     1    39    1
    45     1    40    1
    46     2    41    1
    47     2    42    1
    48     7    43    1
    49     7    44    1
    50     8    45    1
    51    12    46    1
    52    12    47    1
    53    12    48    1
    54    19    49    1
    55    21    50    1
    56    21    51    1
    57    21    52    1
    58    26    53    1
    59    26    54    1
    60    26    55    1
    61    28    56    1
    62    29    57    1
    63    31    58    1
    64    32    59    1
    65    35    60    1
    66    36    61    1
    67    37    62    1
    68    37    63    1
