
     RDKit          3D

 63 68  0  0  0  0  0  0  0  0999 V2000
    8.1905    3.0785    0.1412 C   0  0  0  0  0  0  0  0  0  0  0  0
    8.2053    1.8085   -0.6608 C   0  0  0  0  0  0  0  0  0  0  0  0
    7.0860    1.0331   -0.2914 O   0  0  0  0  0  0  0  0  0  0  0  0
    5.8169    1.5513   -0.4665 C   0  0  0  0  0  0  0  0  0  0  0  0
    5.6451    2.6961   -0.9470 O   0  0  0  0  0  0  0  0  0  0  0  0
    4.6857    0.7866   -0.1012 N   0  0  0  0  0  0  0  0  0  0  0  0
    4.4642   -0.5153    0.4600 C   0  0  0  0  0  0  0  0  0  0  0  0
    3.1118   -0.0481    0.9438 C   0  0  0  0  0  0  0  0  0  0  0  0
    2.0818   -1.0520    0.7080 N   0  0  0  0  0  0  0  0  0  0  0  0
    2.2374   -2.3567    0.7513 N   0  0  0  0  0  0  0  0  0  0  0  0
    1.0469   -2.9150    0.4757 C   0  0  0  0  0  0  0  0  0  0  0  0
    0.7123   -4.3416    0.4049 C   0  0  0  0  0  0  0  0  0  0  0  0
    0.1170   -1.8897    0.2527 C   0  0  0  0  0  0  0  0  0  0  0  0
    0.8048   -0.7201    0.4072 C   0  0  0  0  0  0  0  0  0  0  0  0
   -0.1141    0.3751    0.1805 C   0  0  0  0  0  0  0  0  0  0  0  0
    0.2046    1.6117    0.2477 O   0  0  0  0  0  0  0  0  0  0  0  0
   -1.3859   -0.1780   -0.1185 N   0  0  0  0  0  0  0  0  0  0  0  0
   -2.4945    0.6757   -0.4156 C   0  0  0  0  0  0  0  0  0  0  0  0
   -3.2638    1.1224    0.6215 C   0  0  0  0  0  0  0  0  0  0  0  0
   -4.3590    1.9489    0.4269 C   0  0  0  0  0  0  0  0  0  0  0  0
   -5.1706    2.4153    1.5635 C   0  0  0  0  0  0  0  0  0  0  0  0
   -4.6416    2.3058   -0.8814 C   0  0  0  0  0  0  0  0  0  0  0  0
   -5.6403    3.0913   -1.3377 N   0  0  0  0  0  0  0  0  0  0  0  0
   -5.5118    3.1463   -2.6465 N   0  0  0  0  0  0  0  0  0  0  0  0
   -4.4505    2.4088   -3.0144 C   0  0  0  0  0  0  0  0  0  0  0  0
   -3.9721    2.2161   -4.4035 C   0  0  0  0  0  0  0  0  0  0  0  0
   -3.8921    1.8732   -1.9145 N   0  0  0  0  0  0  0  0  0  0  0  0
   -2.8213    1.0612   -1.6907 C   0  0  0  0  0  0  0  0  0  0  0  0
   -1.2926   -1.5865   -0.0731 C   0  0  0  0  0  0  0  0  0  0  0  0
   -2.2191   -2.2614    0.8637 C   0  0  0  0  0  0  0  0  0  0  0  0
   -2.9082   -3.3593    0.3944 C   0  0  0  0  0  0  0  0  0  0  0  0
   -3.7989   -4.0793    1.1762 C   0  0  0  0  0  0  0  0  0  0  0  0
   -4.0227   -3.7007    2.4836 C   0  0  0  0  0  0  0  0  0  0  0  0
   -5.1374   -4.5670    3.5308 Cl  0  0  0  0  0  0  0  0  0  0  0  0
   -3.3249   -2.5943    2.9480 C   0  0  0  0  0  0  0  0  0  0  0  0
   -2.4465   -1.8971    2.1517 C   0  0  0  0  0  0  0  0  0  0  0  0
    3.2528    0.9868   -0.1354 C   0  0  0  0  0  0  0  0  0  0  0  0
    9.0132    3.0358    0.9094 H   0  0  0  0  0  0  0  0  0  0  0  0
    7.2479    3.2000    0.6993 H   0  0  0  0  0  0  0  0  0  0  0  0
    8.3816    3.9835   -0.4789 H   0  0  0  0  0  0  0  0  0  0  0  0
    8.0957    2.0487   -1.7434 H   0  0  0  0  0  0  0  0  0  0  0  0
    9.1369    1.2355   -0.4744 H   0  0  0  0  0  0  0  0  0  0  0  0
    4.3798   -1.2809   -0.3310 H   0  0  0  0  0  0  0  0  0  0  0  0
    5.1322   -0.7880    1.3074 H   0  0  0  0  0  0  0  0  0  0  0  0
    3.1437    0.3310    1.9823 H   0  0  0  0  0  0  0  0  0  0  0  0
    0.7469   -4.7415   -0.6407 H   0  0  0  0  0  0  0  0  0  0  0  0
    1.4775   -4.9408    0.9648 H   0  0  0  0  0  0  0  0  0  0  0  0
   -0.2649   -4.5926    0.8946 H   0  0  0  0  0  0  0  0  0  0  0  0
   -3.0652    0.8637    1.6517 H   0  0  0  0  0  0  0  0  0  0  0  0
   -6.2404    2.4045    1.2172 H   0  0  0  0  0  0  0  0  0  0  0  0
   -5.0107    1.7301    2.4107 H   0  0  0  0  0  0  0  0  0  0  0  0
   -4.8557    3.4478    1.8129 H   0  0  0  0  0  0  0  0  0  0  0  0
   -3.5341    1.2170   -4.5758 H   0  0  0  0  0  0  0  0  0  0  0  0
   -3.2470    3.0120   -4.6346 H   0  0  0  0  0  0  0  0  0  0  0  0
   -4.8388    2.3290   -5.0902 H   0  0  0  0  0  0  0  0  0  0  0  0
   -2.2339    0.7280   -2.5511 H   0  0  0  0  0  0  0  0  0  0  0  0
   -1.4625   -1.9965   -1.1119 H   0  0  0  0  0  0  0  0  0  0  0  0
   -2.7695   -3.7026   -0.6317 H   0  0  0  0  0  0  0  0  0  0  0  0
   -4.3366   -4.9483    0.7855 H   0  0  0  0  0  0  0  0  0  0  0  0
   -3.5117   -2.3089    3.9786 H   0  0  0  0  0  0  0  0  0  0  0  0
   -1.9242   -1.0465    2.5455 H   0  0  0  0  0  0  0  0  0  0  0  0
    2.9236    2.0113    0.1498 H   0  0  0  0  0  0  0  0  0  0  0  0
    2.8211    0.6379   -1.0813 H   0  0  0  0  0  0  0  0  0  0  0  0
  1  2  1  0
  2  3  1  0
  3  4  1  0
  4  5  2  0
  4  6  1  0
  6  7  1  0
  7  8  1  0
  8  9  1  0
  9 10  1  0
 10 11  2  0
 11 12  1  0
 11 13  1  0
 13 14  2  0
 14 15  1  0
 15 16  2  0
 15 17  1  0
 17 18  1  0
 18 19  1  0
 19 20  2  0
 20 21  1  0
 20 22  1  0
 22 23  2  0
 23 24  1  0
 24 25  2  0
 25 26  1  0
 25 27  1  0
 27 28  1  0
 17 29  1  0
 29 30  1  0
 30 31  2  0
 31 32  1  0
 32 33  2  0
 33 34  1  0
 33 35  1  0
 35 36  2  0
  8 37  1  0
 37  6  1  0
 14  9  1  0
 28 18  2  0
 36 30  1  0
 29 13  1  0
 27 22  1  0
  1 38  1  0
  1 39  1  0
  1 40  1  0
  2 41  1  0
  2 42  1  0
  7 43  1  0
  7 44  1  0
  8 45  1  0
 12 46  1  0
 12 47  1  0
 12 48  1  0
 19 49  1  0
 21 50  1  0
 21 51  1  0
 21 52  1  0
 26 53  1  0
 26 54  1  0
 26 55  1  0
 28 56  1  0
 29 57  1  0
 31 58  1  0
 32 59  1  0
 35 60  1  0
 36 61  1  0
 37 62  1  0
 37 63  1  0
M  END
$$$$
