@<TRIPOS>MOLECULE
*****
 31 33 0 0 0
SMALL
GASTEIGER

@<TRIPOS>ATOM
      1 O           5.7315    0.7694   -2.1940 O.2     1  UNL1       -0.2492
      2 C           4.8936    0.5327   -1.2901 C.2     1  UNL1        0.3228
      3 O           5.2170   -0.2511   -0.2120 O.3     1  UNL1       -0.4795
      4 C           3.5314    1.1225   -1.4099 C.3     1  UNL1        0.1212
      5 N           2.7350    0.7286   -0.2757 N.am    1  UNL1       -0.2069
      6 C           2.6430    1.4492    0.9428 C.2     1  UNL1        0.3101
      7 O           3.2387    2.5239    1.2018 O.2     1  UNL1       -0.2645
      8 C           1.7456    0.7255    1.8239 C.2     1  UNL1        0.3099
      9 O           1.3961    1.0274    2.9957 O.2     1  UNL1       -0.2645
     10 N           1.2920   -0.4363    1.1393 N.am    1  UNL1       -0.2113
     11 C           0.3879   -1.4693    1.5955 C.3     1  UNL1        0.0728
     12 C          -0.9862   -1.0282    1.2057 C.ar    1  UNL1        0.0973
     13 N          -1.9601   -0.4851    1.4276 N.ar    1  UNL1       -0.2423
     14 C          -3.0658   -0.2848    0.7584 C.ar    1  UNL1        0.0799
     15 C          -4.2352    0.3960    1.0885 C.ar    1  UNL1       -0.0169
     16 C          -5.2680    0.4548    0.1797 C.ar    1  UNL1        0.0431
     17 CL         -6.7259    1.3472    0.6877 Cl      1  UNL1       -0.0835
     18 C          -5.2624   -0.1123   -1.0695 C.ar    1  UNL1       -0.0422
     19 C          -4.0915   -0.7999   -1.4130 C.ar    1  UNL1       -0.0445
     20 C          -3.0666   -0.8627   -0.5210 C.ar    1  UNL1        0.0393
     21 S          -1.4027   -1.6393   -0.5655 S.2     1  UNL1       -0.0705
     22 C           1.9138   -0.4040   -0.1371 C.2     1  UNL1        0.3190
     23 O           1.7650   -1.2705   -1.0506 O.2     1  UNL1       -0.2515
     24 H           6.1398   -0.6779   -0.1099 H       1  UNL1        0.2951
     25 H           3.0766    0.8514   -2.3837 H       1  UNL1        0.0585
     26 H           3.6656    2.2276   -1.4337 H       1  UNL1        0.0585
     27 H           0.6916   -2.4190    1.1224 H       1  UNL1        0.0540
     28 H           0.4519   -1.6102    2.7022 H       1  UNL1        0.0540
     29 H          -4.3508    0.8919    2.0694 H       1  UNL1        0.0654
     30 H          -6.0947   -0.0239   -1.7110 H       1  UNL1        0.0632
     31 H          -4.0060   -1.2738   -2.3756 H       1  UNL1        0.0630
@<TRIPOS>BOND
     1     1     2    2
     2     2     3    1
     3     2     4    1
     4     4     5    1
     5     5     6   am
     6     6     7    2
     7     6     8    1
     8     8     9    2
     9     8    10   am
    10    10    11    1
    11    11    12    1
    12    12    13   ar
    13    13    14   ar
    14    14    15   ar
    15    15    16   ar
    16    16    17    1
    17    16    18   ar
    18    18    19   ar
    19    19    20   ar
    20    20    21   ar
    21    10    22   am
    22    22    23    2
    23    22     5   am
    24    21    12   ar
    25    20    14   ar
    26     3    24    1
    27     4    25    1
    28     4    26    1
    29    11    27    1
    30    11    28    1
    31    15    29    1
    32    18    30    1
    33    19    31    1
