@<TRIPOS>MOLECULE
*****
 55 58 0 0 0
SMALL
GASTEIGER

@<TRIPOS>ATOM
      1 N          11.0764    2.5177    2.7065 N.1     1  UNL1       -0.1909
      2 C          10.1015    2.0585    2.2815 C.1     1  UNL1        0.0992
      3 C           8.9018    1.5033    1.7354 C.ar    1  UNL1        0.0519
      4 C           7.8622    2.2185    1.2004 C.ar    1  UNL1       -0.0426
      5 C           6.7196    1.5733    0.7282 C.ar    1  UNL1       -0.0392
      6 C           6.5774    0.2135    0.7738 C.ar    1  UNL1        0.0348
      7 N           5.4057   -0.4743    0.3291 N.am    1  UNL1       -0.2695
      8 C           4.3588   -0.6803    1.2958 C.2     1  UNL1        0.3041
      9 O           4.5485   -0.2077    2.4305 O.2     1  UNL1       -0.2525
     10 N           3.1669   -1.3707    1.0371 N.am    1  UNL1       -0.2950
     11 C           2.0917   -1.5753    1.9806 C.3     1  UNL1        0.0383
     12 C           1.2231   -0.3910    1.9915 C.ar    1  UNL1       -0.0296
     13 C           1.4443    0.6873    2.7791 C.ar    1  UNL1       -0.0570
     14 C           0.5716    1.7877    2.7547 C.ar    1  UNL1       -0.0607
     15 C          -0.5118    1.7371    1.9097 C.ar    1  UNL1       -0.0496
     16 C          -0.7822    0.6530    1.0837 C.ar    1  UNL1        0.0373
     17 C          -1.9590    0.6855    0.2282 C.2     1  UNL1        0.2483
     18 O          -2.6182    1.7607    0.1249 O.2     1  UNL1       -0.2699
     19 N          -2.3899   -0.4598   -0.4925 N.am    1  UNL1       -0.2815
     20 C          -3.5374   -0.4723   -1.3337 C.ar    1  UNL1        0.0340
     21 C          -3.4791   -0.2379   -2.7018 C.ar    1  UNL1       -0.0402
     22 C          -4.5904   -0.2423   -3.4951 C.ar    1  UNL1       -0.0565
     23 C          -5.8578   -0.4864   -2.9570 C.ar    1  UNL1       -0.0417
     24 C          -5.9307   -0.7175   -1.6172 C.ar    1  UNL1       -0.0286
     25 C          -4.7775   -0.7102   -0.8133 C.ar    1  UNL1       -0.0358
     26 C          -7.2430   -0.9848   -0.9718 C.3     1  UNL1        0.0216
     27 N          -8.2766   -0.3144   -1.7155 N.3     1  UNL1       -0.3117
     28 C          -8.3075   -0.7880   -3.0896 C.3     1  UNL1        0.0002
     29 C          -7.0492   -0.4863   -3.8198 C.3     1  UNL1       -0.0148
     30 C           0.1004   -0.3972    1.1431 C.ar    1  UNL1       -0.0449
     31 C           7.6344   -0.5294    1.3161 C.ar    1  UNL1       -0.0392
     32 C           8.7520    0.1086    1.7772 C.ar    1  UNL1       -0.0426
     33 H           7.9523    3.2906    1.1575 H       1  UNL1        0.0631
     34 H           5.9058    2.1628    0.3062 H       1  UNL1        0.0636
     35 H           5.2994   -0.8140   -0.6386 H       1  UNL1        0.1564
     36 H           3.0503   -1.7700    0.0794 H       1  UNL1        0.1506
     37 H           2.4784   -1.7037    3.0221 H       1  UNL1        0.0512
     38 H           1.5166   -2.5073    1.7490 H       1  UNL1        0.0512
     39 H           2.2779    0.7364    3.4460 H       1  UNL1        0.0621
     40 H           0.7900    2.6076    3.3898 H       1  UNL1        0.0618
     41 H          -1.2027    2.5884    1.8793 H       1  UNL1        0.0625
     42 H          -1.8445   -1.3590   -0.4106 H       1  UNL1        0.1551
     43 H          -2.4841   -0.0508   -3.1061 H       1  UNL1        0.0636
     44 H          -4.5398   -0.0570   -4.5788 H       1  UNL1        0.0621
     45 H          -4.8971   -0.9023    0.2542 H       1  UNL1        0.0639
     46 H          -7.2422   -0.5585    0.0635 H       1  UNL1        0.0474
     47 H          -7.4608   -2.0856   -0.9383 H       1  UNL1        0.0474
     48 H          -8.0786    0.7104   -1.7021 H       1  UNL1        0.1223
     49 H          -8.5632   -1.8738   -3.0385 H       1  UNL1        0.0427
     50 H          -9.1323   -0.2205   -3.5834 H       1  UNL1        0.0427
     51 H          -6.9272   -1.3013   -4.5951 H       1  UNL1        0.0326
     52 H          -7.1256    0.4632   -4.4188 H       1  UNL1        0.0326
     53 H          -0.0760   -1.2558    0.5131 H       1  UNL1        0.0628
     54 H           7.5127   -1.6166    1.3444 H       1  UNL1        0.0636
     55 H           9.5652   -0.4622    2.1949 H       1  UNL1        0.0631
@<TRIPOS>BOND
     1     1     2    3
     2     2     3    1
     3     3     4   ar
     4     4     5   ar
     5     5     6   ar
     6     6     7    1
     7     7     8   am
     8     8     9    2
     9     8    10   am
    10    10    11    1
    11    11    12    1
    12    12    13   ar
    13    13    14   ar
    14    14    15   ar
    15    15    16   ar
    16    16    17    1
    17    17    18    2
    18    17    19   am
    19    19    20    1
    20    20    21   ar
    21    21    22   ar
    22    22    23   ar
    23    23    24   ar
    24    24    25   ar
    25    24    26    1
    26    26    27    1
    27    27    28    1
    28    28    29    1
    29    16    30   ar
    30     6    31   ar
    31    31    32   ar
    32    32     3   ar
    33    30    12   ar
    34    25    20   ar
    35    29    23    1
    36     4    33    1
    37     5    34    1
    38     7    35    1
    39    10    36    1
    40    11    37    1
    41    11    38    1
    42    13    39    1
    43    14    40    1
    44    15    41    1
    45    19    42    1
    46    21    43    1
    47    22    44    1
    48    25    45    1
    49    26    46    1
    50    26    47    1
    51    27    48    1
    52    28    49    1
    53    28    50    1
    54    29    51    1
    55    29    52    1
    56    30    53    1
    57    31    54    1
    58    32    55    1
