
     RDKit          3D

 55 58  0  0  0  0  0  0  0  0999 V2000
   11.0764    2.5177    2.7065 N   0  0  0  0  0  0  0  0  0  0  0  0
   10.1015    2.0585    2.2815 C   0  0  0  0  0  0  0  0  0  0  0  0
    8.9018    1.5033    1.7354 C   0  0  0  0  0  0  0  0  0  0  0  0
    7.8622    2.2185    1.2004 C   0  0  0  0  0  0  0  0  0  0  0  0
    6.7196    1.5733    0.7282 C   0  0  0  0  0  0  0  0  0  0  0  0
    6.5774    0.2135    0.7738 C   0  0  0  0  0  0  0  0  0  0  0  0
    5.4057   -0.4743    0.3291 N   0  0  0  0  0  0  0  0  0  0  0  0
    4.3588   -0.6803    1.2958 C   0  0  0  0  0  0  0  0  0  0  0  0
    4.5485   -0.2077    2.4305 O   0  0  0  0  0  0  0  0  0  0  0  0
    3.1669   -1.3707    1.0371 N   0  0  0  0  0  0  0  0  0  0  0  0
    2.0917   -1.5753    1.9806 C   0  0  0  0  0  0  0  0  0  0  0  0
    1.2231   -0.3910    1.9915 C   0  0  0  0  0  0  0  0  0  0  0  0
    1.4443    0.6873    2.7791 C   0  0  0  0  0  0  0  0  0  0  0  0
    0.5716    1.7877    2.7547 C   0  0  0  0  0  0  0  0  0  0  0  0
   -0.5118    1.7371    1.9097 C   0  0  0  0  0  0  0  0  0  0  0  0
   -0.7822    0.6530    1.0837 C   0  0  0  0  0  0  0  0  0  0  0  0
   -1.9590    0.6855    0.2282 C   0  0  0  0  0  0  0  0  0  0  0  0
   -2.6182    1.7607    0.1249 O   0  0  0  0  0  0  0  0  0  0  0  0
   -2.3899   -0.4598   -0.4925 N   0  0  0  0  0  0  0  0  0  0  0  0
   -3.5374   -0.4723   -1.3337 C   0  0  0  0  0  0  0  0  0  0  0  0
   -3.4791   -0.2379   -2.7018 C   0  0  0  0  0  0  0  0  0  0  0  0
   -4.5904   -0.2423   -3.4951 C   0  0  0  0  0  0  0  0  0  0  0  0
   -5.8578   -0.4864   -2.9570 C   0  0  0  0  0  0  0  0  0  0  0  0
   -5.9307   -0.7175   -1.6172 C   0  0  0  0  0  0  0  0  0  0  0  0
   -4.7775   -0.7102   -0.8133 C   0  0  0  0  0  0  0  0  0  0  0  0
   -7.2430   -0.9848   -0.9718 C   0  0  0  0  0  0  0  0  0  0  0  0
   -8.2766   -0.3144   -1.7155 N   0  0  0  0  0  0  0  0  0  0  0  0
   -8.3075   -0.7880   -3.0896 C   0  0  0  0  0  0  0  0  0  0  0  0
   -7.0492   -0.4863   -3.8198 C   0  0  0  0  0  0  0  0  0  0  0  0
    0.1004   -0.3972    1.1431 C   0  0  0  0  0  0  0  0  0  0  0  0
    7.6344   -0.5294    1.3161 C   0  0  0  0  0  0  0  0  0  0  0  0
    8.7520    0.1086    1.7772 C   0  0  0  0  0  0  0  0  0  0  0  0
    7.9523    3.2906    1.1575 H   0  0  0  0  0  0  0  0  0  0  0  0
    5.9058    2.1628    0.3062 H   0  0  0  0  0  0  0  0  0  0  0  0
    5.2994   -0.8140   -0.6386 H   0  0  0  0  0  0  0  0  0  0  0  0
    3.0503   -1.7700    0.0794 H   0  0  0  0  0  0  0  0  0  0  0  0
    2.4784   -1.7037    3.0221 H   0  0  0  0  0  0  0  0  0  0  0  0
    1.5166   -2.5073    1.7490 H   0  0  0  0  0  0  0  0  0  0  0  0
    2.2779    0.7364    3.4460 H   0  0  0  0  0  0  0  0  0  0  0  0
    0.7900    2.6076    3.3898 H   0  0  0  0  0  0  0  0  0  0  0  0
   -1.2027    2.5884    1.8793 H   0  0  0  0  0  0  0  0  0  0  0  0
   -1.8445   -1.3590   -0.4106 H   0  0  0  0  0  0  0  0  0  0  0  0
   -2.4841   -0.0508   -3.1061 H   0  0  0  0  0  0  0  0  0  0  0  0
   -4.5398   -0.0570   -4.5788 H   0  0  0  0  0  0  0  0  0  0  0  0
   -4.8971   -0.9023    0.2542 H   0  0  0  0  0  0  0  0  0  0  0  0
   -7.2422   -0.5585    0.0635 H   0  0  0  0  0  0  0  0  0  0  0  0
   -7.4608   -2.0856   -0.9383 H   0  0  0  0  0  0  0  0  0  0  0  0
   -8.0786    0.7104   -1.7021 H   0  0  0  0  0  0  0  0  0  0  0  0
   -8.5632   -1.8738   -3.0385 H   0  0  0  0  0  0  0  0  0  0  0  0
   -9.1323   -0.2205   -3.5834 H   0  0  0  0  0  0  0  0  0  0  0  0
   -6.9272   -1.3013   -4.5951 H   0  0  0  0  0  0  0  0  0  0  0  0
   -7.1256    0.4632   -4.4188 H   0  0  0  0  0  0  0  0  0  0  0  0
   -0.0760   -1.2558    0.5131 H   0  0  0  0  0  0  0  0  0  0  0  0
    7.5127   -1.6166    1.3444 H   0  0  0  0  0  0  0  0  0  0  0  0
    9.5652   -0.4622    2.1949 H   0  0  0  0  0  0  0  0  0  0  0  0
  1  2  3  0
  2  3  1  0
  3  4  2  0
  4  5  1  0
  5  6  2  0
  6  7  1  0
  7  8  1  0
  8  9  2  0
  8 10  1  0
 10 11  1  0
 11 12  1  0
 12 13  2  0
 13 14  1  0
 14 15  2  0
 15 16  1  0
 16 17  1  0
 17 18  2  0
 17 19  1  0
 19 20  1  0
 20 21  2  0
 21 22  1  0
 22 23  2  0
 23 24  1  0
 24 25  2  0
 24 26  1  0
 26 27  1  0
 27 28  1  0
 28 29  1  0
 16 30  2  0
  6 31  1  0
 31 32  2  0
 32  3  1  0
 30 12  1  0
 25 20  1  0
 29 23  1  0
  4 33  1  0
  5 34  1  0
  7 35  1  0
 10 36  1  0
 11 37  1  0
 11 38  1  0
 13 39  1  0
 14 40  1  0
 15 41  1  0
 19 42  1  0
 21 43  1  0
 22 44  1  0
 25 45  1  0
 26 46  1  0
 26 47  1  0
 27 48  1  0
 28 49  1  0
 28 50  1  0
 29 51  1  0
 29 52  1  0
 30 53  1  0
 31 54  1  0
 32 55  1  0
M  END
$$$$
