@<TRIPOS>MOLECULE
*****
 76 80 0 0 0
SMALL
GASTEIGER

@<TRIPOS>ATOM
      1 C          -3.4061    5.8804    0.1516 C.3     1  UNL1       -0.0397
      2 C          -3.8051    4.4419    0.2339 C.ar    1  UNL1       -0.0503
      3 C          -4.3087    3.8957    1.3970 C.ar    1  UNL1       -0.0568
      4 C          -4.6842    2.5584    1.4870 C.ar    1  UNL1       -0.0359
      5 C          -4.5589    1.7319    0.3936 C.ar    1  UNL1        0.0674
      6 N          -4.9249    0.3569    0.4209 N.ar    1  UNL1       -0.2181
      7 N          -6.0013   -0.1350   -0.1986 N.ar    1  UNL1       -0.1691
      8 C          -6.0777   -1.4605    0.0121 C.ar    1  UNL1        0.0706
      9 C          -7.0935   -2.4277   -0.4726 C.3     1  UNL1        0.0063
     10 C          -6.7121   -3.0188   -1.8103 C.3     1  UNL1       -0.0546
     11 C          -7.2791   -3.5627    0.5430 C.3     1  UNL1       -0.0546
     12 C          -8.4486   -1.7668   -0.6051 C.3     1  UNL1       -0.0546
     13 C          -4.9718   -1.7712    0.8095 C.ar    1  UNL1        0.0021
     14 C          -4.2644   -0.6129    1.0520 C.ar    1  UNL1        0.1299
     15 N          -3.0750   -0.4314    1.8087 N.am    1  UNL1       -0.2538
     16 C          -1.7816   -0.5291    1.2291 C.2     1  UNL1        0.3092
     17 O          -1.7109   -0.7891   -0.0056 O.2     1  UNL1       -0.2521
     18 N          -0.6173   -0.3371    2.0285 N.am    1  UNL1       -0.2686
     19 C           0.6813   -0.4318    1.4590 C.ar    1  UNL1        0.0427
     20 C           1.3051    0.6900    0.9242 C.ar    1  UNL1       -0.0364
     21 C           2.5663    0.6397    0.3639 C.ar    1  UNL1       -0.0176
     22 C           3.2538   -0.5522    0.3198 C.ar    1  UNL1        0.1283
     23 O           4.5220   -0.6859   -0.2250 O.3     1  UNL1       -0.4901
     24 C           5.2254    0.4071   -0.7895 C.3     1  UNL1        0.1023
     25 C           6.5469   -0.1048   -1.2720 C.3     1  UNL1        0.0333
     26 N           7.3870    0.8733   -1.8729 N.3     1  UNL1       -0.2948
     27 C           8.6173    0.2429   -2.2862 C.3     1  UNL1        0.0225
     28 C           9.7743    0.5160   -1.3830 C.3     1  UNL1        0.0604
     29 O          10.0140    1.8596   -1.1623 O.3     1  UNL1       -0.3772
     30 C           8.9445    2.6617   -1.5744 C.3     1  UNL1        0.0604
     31 C           7.6855    2.0035   -1.0589 C.3     1  UNL1        0.0225
     32 C           2.6394   -1.6670    0.8486 C.ar    1  UNL1        0.0256
     33 C           3.2979   -2.8827    0.8233 C.ar    1  UNL1       -0.0505
     34 C           2.7012   -4.0109    1.3474 C.ar    1  UNL1       -0.0611
     35 C           1.4290   -3.9221    1.9043 C.ar    1  UNL1       -0.0611
     36 C           0.7422   -2.7258    1.9468 C.ar    1  UNL1       -0.0521
     37 C           1.3637   -1.6169    1.4157 C.ar    1  UNL1        0.0069
     38 C          -4.0556    2.2760   -0.7698 C.ar    1  UNL1       -0.0359
     39 C          -3.6788    3.6189   -0.8596 C.ar    1  UNL1       -0.0568
     40 H          -2.3003    5.9900    0.1125 H       1  UNL1        0.0278
     41 H          -3.7331    6.4096    1.0683 H       1  UNL1        0.0278
     42 H          -3.8591    6.3852   -0.7202 H       1  UNL1        0.0278
     43 H          -4.4074    4.5581    2.2673 H       1  UNL1        0.0621
     44 H          -5.0762    2.1331    2.3930 H       1  UNL1        0.0639
     45 H          -7.3944   -3.8921   -1.9996 H       1  UNL1        0.0239
     46 H          -6.8764   -2.3250   -2.6416 H       1  UNL1        0.0239
     47 H          -5.6895   -3.4494   -1.7879 H       1  UNL1        0.0239
     48 H          -7.9652   -4.3297    0.1414 H       1  UNL1        0.0239
     49 H          -6.3296   -4.0581    0.7785 H       1  UNL1        0.0239
     50 H          -7.6699   -3.1207    1.4927 H       1  UNL1        0.0239
     51 H          -8.8671   -1.5607    0.4167 H       1  UNL1        0.0239
     52 H          -9.1487   -2.4815   -1.0761 H       1  UNL1        0.0239
     53 H          -8.4151   -0.8514   -1.2238 H       1  UNL1        0.0239
     54 H          -4.6926   -2.7539    1.1891 H       1  UNL1        0.0671
     55 H          -3.1020   -0.2129    2.8448 H       1  UNL1        0.1578
     56 H          -0.7103   -0.1199    3.0654 H       1  UNL1        0.1564
     57 H           0.7631    1.6220    0.9605 H       1  UNL1        0.0637
     58 H           3.0503    1.5187   -0.0528 H       1  UNL1        0.0655
     59 H           5.4269    1.2031   -0.0395 H       1  UNL1        0.0709
     60 H           4.5861    0.8081   -1.5975 H       1  UNL1        0.0709
     61 H           6.3754   -0.9317   -1.9700 H       1  UNL1        0.0460
     62 H           7.0837   -0.5133   -0.3810 H       1  UNL1        0.0460
     63 H           8.4808   -0.8503   -2.3476 H       1  UNL1        0.0449
     64 H           8.9209    0.5744   -3.3214 H       1  UNL1        0.0449
     65 H          10.6908    0.1244   -1.9142 H       1  UNL1        0.0572
     66 H           9.7314   -0.0807   -0.4319 H       1  UNL1        0.0572
     67 H           9.0959    3.6560   -1.1122 H       1  UNL1        0.0572
     68 H           8.9863    2.7180   -2.6661 H       1  UNL1        0.0572
     69 H           6.8418    2.7123   -0.9417 H       1  UNL1        0.0449
     70 H           7.9164    1.6347   -0.0271 H       1  UNL1        0.0449
     71 H           4.2807   -2.9190    0.3859 H       1  UNL1        0.0625
     72 H           3.2585   -4.9383    1.3036 H       1  UNL1        0.0618
     73 H           0.9898   -4.8184    2.3046 H       1  UNL1        0.0618
     74 H          -0.2462   -2.6987    2.3888 H       1  UNL1        0.0624
     75 H          -3.9449    1.6452   -1.6522 H       1  UNL1        0.0639
     76 H          -3.2920    4.0017   -1.7828 H       1  UNL1        0.0621
@<TRIPOS>BOND
     1     1     2    1
     2     2     3   ar
     3     3     4   ar
     4     4     5   ar
     5     5     6    1
     6     6     7   ar
     7     7     8   ar
     8     8     9    1
     9     9    10    1
    10     9    11    1
    11     9    12    1
    12     8    13   ar
    13    13    14   ar
    14    14    15    1
    15    15    16   am
    16    16    17    2
    17    16    18   am
    18    18    19    1
    19    19    20   ar
    20    20    21   ar
    21    21    22   ar
    22    22    23    1
    23    23    24    1
    24    24    25    1
    25    25    26    1
    26    26    27    1
    27    27    28    1
    28    28    29    1
    29    29    30    1
    30    30    31    1
    31    22    32   ar
    32    32    33   ar
    33    33    34   ar
    34    34    35   ar
    35    35    36   ar
    36    36    37   ar
    37     5    38   ar
    38    38    39   ar
    39    39     2   ar
    40    14     6   ar
    41    37    19   ar
    42    31    26    1
    43    37    32   ar
    44     1    40    1
    45     1    41    1
    46     1    42    1
    47     3    43    1
    48     4    44    1
    49    10    45    1
    50    10    46    1
    51    10    47    1
    52    11    48    1
    53    11    49    1
    54    11    50    1
    55    12    51    1
    56    12    52    1
    57    12    53    1
    58    13    54    1
    59    15    55    1
    60    18    56    1
    61    20    57    1
    62    21    58    1
    63    24    59    1
    64    24    60    1
    65    25    61    1
    66    25    62    1
    67    27    63    1
    68    27    64    1
    69    28    65    1
    70    28    66    1
    71    30    67    1
    72    30    68    1
    73    31    69    1
    74    31    70    1
    75    33    71    1
    76    34    72    1
    77    35    73    1
    78    36    74    1
    79    38    75    1
    80    39    76    1
