@<TRIPOS>MOLECULE
*****
 52 54 0 0 0
SMALL
GASTEIGER

@<TRIPOS>ATOM
      1 C          -6.6261   -0.4396   -0.3104 C.3     1  UNL1       -0.0128
      2 N          -5.2697   -0.3513    0.1466 N.3     1  UNL1       -0.3053
      3 C          -4.5731    0.7899   -0.3889 C.3     1  UNL1       -0.0009
      4 C          -3.1970    0.9018    0.1520 C.3     1  UNL1       -0.0344
      5 C          -2.6782   -0.3727    0.7818 C.3     1  UNL1       -0.0251
      6 C          -3.1457   -0.5228    2.2117 C.3     1  UNL1       -0.0592
      7 C          -1.1785   -0.2340    0.8512 C.3     1  UNL1       -0.0115
      8 C          -0.4950   -1.4146    1.4526 C.3     1  UNL1        0.0289
      9 C           0.7501   -1.5175    0.6120 C.2     1  UNL1        0.2160
     10 O           1.6069   -2.4500    0.6375 O.2     1  UNL1       -0.2756
     11 N           0.8338   -0.3847   -0.2433 N.am    1  UNL1       -0.2979
     12 C           2.0438    0.2310   -0.8029 C.3     1  UNL1        0.0488
     13 C           2.5829    1.2917    0.1008 C.3     1  UNL1        0.1052
     14 O           3.7118    1.9506   -0.2955 O.3     1  UNL1       -0.4904
     15 C           4.9882    1.5590   -0.5458 C.ar    1  UNL1        0.1220
     16 C           5.8677    2.5424   -0.9546 C.ar    1  UNL1       -0.0172
     17 C           7.1760    2.2575   -1.2318 C.ar    1  UNL1       -0.0217
     18 C           7.6589    0.9734   -1.1108 C.ar    1  UNL1        0.1409
     19 F           8.9575    0.6992   -1.3877 F       1  UNL1       -0.2041
     20 C           6.7895   -0.0146   -0.7034 C.ar    1  UNL1        0.0903
     21 C           7.2759   -1.3636   -0.5709 C.1     1  UNL1        0.1021
     22 N           7.6723   -2.4449   -0.4811 N.1     1  UNL1       -0.1908
     23 C           5.4653    0.2766   -0.4232 C.ar    1  UNL1        0.0002
     24 C          -0.5422    0.0644   -0.4679 C.3     1  UNL1        0.0185
     25 C          -3.1144   -1.5181   -0.0838 C.3     1  UNL1       -0.0344
     26 C          -4.6194   -1.5972   -0.0599 C.3     1  UNL1       -0.0009
     27 H          -7.2704   -0.6309    0.5727 H       1  UNL1        0.0391
     28 H          -6.9906    0.5033   -0.7632 H       1  UNL1        0.0391
     29 H          -6.7675   -1.3125   -0.9917 H       1  UNL1        0.0391
     30 H          -4.6258    0.8436   -1.5021 H       1  UNL1        0.0427
     31 H          -5.1482    1.6970   -0.0377 H       1  UNL1        0.0427
     32 H          -3.0487    1.7352    0.8703 H       1  UNL1        0.0283
     33 H          -2.5084    1.1070   -0.7199 H       1  UNL1        0.0283
     34 H          -4.1320   -0.9684    2.3138 H       1  UNL1        0.0235
     35 H          -3.1325    0.4973    2.6624 H       1  UNL1        0.0235
     36 H          -2.4053   -1.1675    2.7289 H       1  UNL1        0.0235
     37 H          -0.9842    0.6609    1.5116 H       1  UNL1        0.0326
     38 H          -1.0701   -2.3415    1.4547 H       1  UNL1        0.0362
     39 H          -0.1895   -1.1964    2.5127 H       1  UNL1        0.0362
     40 H           1.7232    0.7114   -1.7622 H       1  UNL1        0.0498
     41 H           2.7045   -0.5817   -1.0626 H       1  UNL1        0.0498
     42 H           2.7437    0.8728    1.1444 H       1  UNL1        0.0712
     43 H           1.7631    2.0502    0.2370 H       1  UNL1        0.0712
     44 H           5.5493    3.5740   -1.0695 H       1  UNL1        0.0655
     45 H           7.8840    3.0227   -1.5559 H       1  UNL1        0.0648
     46 H           4.8077   -0.5382   -0.0907 H       1  UNL1        0.0668
     47 H          -0.4715    1.1774   -0.6239 H       1  UNL1        0.0467
     48 H          -1.0016   -0.4047   -1.3302 H       1  UNL1        0.0467
     49 H          -2.8105   -1.3229   -1.1158 H       1  UNL1        0.0283
     50 H          -2.6860   -2.4943    0.2190 H       1  UNL1        0.0283
     51 H          -4.8778   -2.2596    0.8181 H       1  UNL1        0.0427
     52 H          -4.9961   -2.1461   -0.9538 H       1  UNL1        0.0427
@<TRIPOS>BOND
     1     1     2    1
     2     2     3    1
     3     3     4    1
     4     4     5    1
     5     5     6    1
     6     5     7    1
     7     7     8    1
     8     8     9    1
     9     9    10    2
    10     9    11   am
    11    11    12    1
    12    12    13    1
    13    13    14    1
    14    14    15    1
    15    15    16   ar
    16    16    17   ar
    17    17    18   ar
    18    18    19    1
    19    18    20   ar
    20    20    21    1
    21    21    22    3
    22    20    23   ar
    23    11    24    1
    24     5    25    1
    25    25    26    1
    26    26     2    1
    27    24     7    1
    28    23    15   ar
    29     1    27    1
    30     1    28    1
    31     1    29    1
    32     3    30    1
    33     3    31    1
    34     4    32    1
    35     4    33    1
    36     6    34    1
    37     6    35    1
    38     6    36    1
    39     7    37    1
    40     8    38    1
    41     8    39    1
    42    12    40    1
    43    12    41    1
    44    13    42    1
    45    13    43    1
    46    16    44    1
    47    17    45    1
    48    23    46    1
    49    24    47    1
    50    24    48    1
    51    25    49    1
    52    25    50    1
    53    26    51    1
    54    26    52    1
