
     RDKit          3D

 52 54  0  0  0  0  0  0  0  0999 V2000
   -6.6261   -0.4396   -0.3104 C   0  0  0  0  0  0  0  0  0  0  0  0
   -5.2697   -0.3513    0.1466 N   0  0  0  0  0  0  0  0  0  0  0  0
   -4.5731    0.7899   -0.3889 C   0  0  0  0  0  0  0  0  0  0  0  0
   -3.1970    0.9018    0.1520 C   0  0  0  0  0  0  0  0  0  0  0  0
   -2.6782   -0.3727    0.7818 C   0  0  0  0  0  0  0  0  0  0  0  0
   -3.1457   -0.5228    2.2117 C   0  0  0  0  0  0  0  0  0  0  0  0
   -1.1785   -0.2340    0.8512 C   0  0  0  0  0  0  0  0  0  0  0  0
   -0.4950   -1.4146    1.4526 C   0  0  0  0  0  0  0  0  0  0  0  0
    0.7501   -1.5175    0.6120 C   0  0  0  0  0  0  0  0  0  0  0  0
    1.6069   -2.4500    0.6375 O   0  0  0  0  0  0  0  0  0  0  0  0
    0.8338   -0.3847   -0.2433 N   0  0  0  0  0  0  0  0  0  0  0  0
    2.0438    0.2310   -0.8029 C   0  0  0  0  0  0  0  0  0  0  0  0
    2.5829    1.2917    0.1008 C   0  0  0  0  0  0  0  0  0  0  0  0
    3.7118    1.9506   -0.2955 O   0  0  0  0  0  0  0  0  0  0  0  0
    4.9882    1.5590   -0.5458 C   0  0  0  0  0  0  0  0  0  0  0  0
    5.8677    2.5424   -0.9546 C   0  0  0  0  0  0  0  0  0  0  0  0
    7.1760    2.2575   -1.2318 C   0  0  0  0  0  0  0  0  0  0  0  0
    7.6589    0.9734   -1.1108 C   0  0  0  0  0  0  0  0  0  0  0  0
    8.9575    0.6992   -1.3877 F   0  0  0  0  0  0  0  0  0  0  0  0
    6.7895   -0.0146   -0.7034 C   0  0  0  0  0  0  0  0  0  0  0  0
    7.2759   -1.3636   -0.5709 C   0  0  0  0  0  0  0  0  0  0  0  0
    7.6723   -2.4449   -0.4811 N   0  0  0  0  0  0  0  0  0  0  0  0
    5.4653    0.2766   -0.4232 C   0  0  0  0  0  0  0  0  0  0  0  0
   -0.5422    0.0644   -0.4679 C   0  0  0  0  0  0  0  0  0  0  0  0
   -3.1144   -1.5181   -0.0838 C   0  0  0  0  0  0  0  0  0  0  0  0
   -4.6194   -1.5972   -0.0599 C   0  0  0  0  0  0  0  0  0  0  0  0
   -7.2704   -0.6309    0.5727 H   0  0  0  0  0  0  0  0  0  0  0  0
   -6.9906    0.5033   -0.7632 H   0  0  0  0  0  0  0  0  0  0  0  0
   -6.7675   -1.3125   -0.9917 H   0  0  0  0  0  0  0  0  0  0  0  0
   -4.6258    0.8436   -1.5021 H   0  0  0  0  0  0  0  0  0  0  0  0
   -5.1482    1.6970   -0.0377 H   0  0  0  0  0  0  0  0  0  0  0  0
   -3.0487    1.7352    0.8703 H   0  0  0  0  0  0  0  0  0  0  0  0
   -2.5084    1.1070   -0.7199 H   0  0  0  0  0  0  0  0  0  0  0  0
   -4.1320   -0.9684    2.3138 H   0  0  0  0  0  0  0  0  0  0  0  0
   -3.1325    0.4973    2.6624 H   0  0  0  0  0  0  0  0  0  0  0  0
   -2.4053   -1.1675    2.7289 H   0  0  0  0  0  0  0  0  0  0  0  0
   -0.9842    0.6609    1.5116 H   0  0  0  0  0  0  0  0  0  0  0  0
   -1.0701   -2.3415    1.4547 H   0  0  0  0  0  0  0  0  0  0  0  0
   -0.1895   -1.1964    2.5127 H   0  0  0  0  0  0  0  0  0  0  0  0
    1.7232    0.7114   -1.7622 H   0  0  0  0  0  0  0  0  0  0  0  0
    2.7045   -0.5817   -1.0626 H   0  0  0  0  0  0  0  0  0  0  0  0
    2.7437    0.8728    1.1444 H   0  0  0  0  0  0  0  0  0  0  0  0
    1.7631    2.0502    0.2370 H   0  0  0  0  0  0  0  0  0  0  0  0
    5.5493    3.5740   -1.0695 H   0  0  0  0  0  0  0  0  0  0  0  0
    7.8840    3.0227   -1.5559 H   0  0  0  0  0  0  0  0  0  0  0  0
    4.8077   -0.5382   -0.0907 H   0  0  0  0  0  0  0  0  0  0  0  0
   -0.4715    1.1774   -0.6239 H   0  0  0  0  0  0  0  0  0  0  0  0
   -1.0016   -0.4047   -1.3302 H   0  0  0  0  0  0  0  0  0  0  0  0
   -2.8105   -1.3229   -1.1158 H   0  0  0  0  0  0  0  0  0  0  0  0
   -2.6860   -2.4943    0.2190 H   0  0  0  0  0  0  0  0  0  0  0  0
   -4.8778   -2.2596    0.8181 H   0  0  0  0  0  0  0  0  0  0  0  0
   -4.9961   -2.1461   -0.9538 H   0  0  0  0  0  0  0  0  0  0  0  0
  1  2  1  0
  2  3  1  0
  3  4  1  0
  4  5  1  0
  5  6  1  0
  5  7  1  0
  7  8  1  0
  8  9  1  0
  9 10  2  0
  9 11  1  0
 11 12  1  0
 12 13  1  0
 13 14  1  0
 14 15  1  0
 15 16  2  0
 16 17  1  0
 17 18  2  0
 18 19  1  0
 18 20  1  0
 20 21  1  0
 21 22  3  0
 20 23  2  0
 11 24  1  0
  5 25  1  0
 25 26  1  0
 26  2  1  0
 24  7  1  0
 23 15  1  0
  1 27  1  0
  1 28  1  0
  1 29  1  0
  3 30  1  0
  3 31  1  0
  4 32  1  0
  4 33  1  0
  6 34  1  0
  6 35  1  0
  6 36  1  0
  7 37  1  0
  8 38  1  0
  8 39  1  0
 12 40  1  0
 12 41  1  0
 13 42  1  0
 13 43  1  0
 16 44  1  0
 17 45  1  0
 23 46  1  0
 24 47  1  0
 24 48  1  0
 25 49  1  0
 25 50  1  0
 26 51  1  0
 26 52  1  0
M  END
$$$$
