@<TRIPOS>MOLECULE
*****
 71 76 0 0 0
SMALL
GASTEIGER

@<TRIPOS>ATOM
      1 C           9.4540   -3.5028    0.5651 C.3     1  UNL1        0.0833
      2 O           8.1984   -2.9239    0.8221 O.3     1  UNL1       -0.4536
      3 C           7.2221   -3.0414   -0.1727 C.2     1  UNL1        0.4026
      4 O           7.4797   -3.6439   -1.2434 O.2     1  UNL1       -0.2263
      5 N           5.9281   -2.4880    0.0014 N.am    1  UNL1       -0.2673
      6 C           4.9426   -2.6184   -1.0275 C.3     1  UNL1        0.0197
      7 C           4.4170   -1.2550   -1.4146 C.3     1  UNL1       -0.0143
      8 C           4.0024   -0.4345   -0.2152 C.3     1  UNL1        0.0608
      9 N           2.6073   -0.0551   -0.3256 N.ar    1  UNL1       -0.2091
     10 N           1.5520   -0.8416   -0.4047 N.ar    1  UNL1       -0.1479
     11 C           0.4255   -0.1213   -0.4956 C.ar    1  UNL1        0.1696
     12 C          -0.9765   -0.5895   -0.6031 C.ar    1  UNL1        0.0243
     13 C          -1.3774   -1.3074   -1.7109 C.ar    1  UNL1       -0.0327
     14 C          -2.6819   -1.7278   -1.7827 C.ar    1  UNL1        0.0304
     15 N          -3.5355   -1.4416   -0.7946 N.ar    1  UNL1       -0.2405
     16 C          -3.1723   -0.7461    0.2921 C.ar    1  UNL1        0.1195
     17 N          -4.1333   -0.4723    1.3154 N.pl3   1  UNL1       -0.3261
     18 C          -5.4929   -0.9267    1.2127 C.3     1  UNL1        0.0261
     19 C          -6.1843   -0.3897    0.0158 C.3     1  UNL1       -0.0109
     20 C          -6.6438   -1.3380   -1.0059 C.3     1  UNL1        0.0493
     21 O          -6.6246   -2.6683   -0.6877 O.3     1  UNL1       -0.3796
     22 C          -6.7404   -2.9432    0.6506 C.3     1  UNL1        0.0493
     23 C          -5.4748   -2.4301    1.3102 C.3     1  UNL1       -0.0109
     24 C          -1.8700   -0.3126    0.3894 C.ar    1  UNL1       -0.0112
     25 N           0.8021    1.1682   -0.4717 N.ar    1  UNL1       -0.2435
     26 C          -0.0428    2.3104   -0.5425 C.ar    1  UNL1        0.0535
     27 C          -1.0673    2.3782   -1.4623 C.ar    1  UNL1       -0.0370
     28 C          -1.9054    3.4858   -1.5485 C.ar    1  UNL1       -0.0521
     29 C          -1.6893    4.5375   -0.6796 C.ar    1  UNL1       -0.0178
     30 C          -2.5346    5.6360   -0.7784 C.ar    1  UNL1       -0.0540
     31 C          -2.3447    6.7118    0.0812 C.ar    1  UNL1       -0.0612
     32 C          -1.3328    6.6623    1.0007 C.ar    1  UNL1       -0.0612
     33 C          -0.5042    5.5716    1.0887 C.ar    1  UNL1       -0.0540
     34 C          -0.6832    4.4999    0.2420 C.ar    1  UNL1       -0.0159
     35 C           0.1363    3.3837    0.3053 C.ar    1  UNL1       -0.0299
     36 C           2.1603    1.2129   -0.3659 C.ar    1  UNL1        0.3518
     37 O           2.8397    2.2732   -0.3174 O.2     1  UNL1       -0.2444
     38 C           4.1226   -1.3130    1.0142 C.3     1  UNL1       -0.0143
     39 C           5.5498   -1.7757    1.2107 C.3     1  UNL1        0.0197
     40 H           9.8614   -3.8645    1.5436 H       1  UNL1        0.0661
     41 H           9.3861   -4.3345   -0.1393 H       1  UNL1        0.0661
     42 H          10.1923   -2.7394    0.2152 H       1  UNL1        0.0661
     43 H           4.1472   -3.3000   -0.6919 H       1  UNL1        0.0466
     44 H           5.3663   -3.0675   -1.9565 H       1  UNL1        0.0466
     45 H           3.5212   -1.4330   -2.0505 H       1  UNL1        0.0301
     46 H           5.1490   -0.7336   -2.0624 H       1  UNL1        0.0301
     47 H           4.6357    0.4470   -0.0808 H       1  UNL1        0.0547
     48 H          -0.6364   -1.5026   -2.4705 H       1  UNL1        0.0640
     49 H          -2.9634   -2.2906   -2.6690 H       1  UNL1        0.0830
     50 H          -3.8242    0.0649    2.1379 H       1  UNL1        0.1477
     51 H          -6.0262   -0.5860    2.1410 H       1  UNL1        0.0499
     52 H          -7.0454    0.2622    0.3359 H       1  UNL1        0.0305
     53 H          -5.4797    0.3454   -0.4771 H       1  UNL1        0.0305
     54 H          -6.0654   -1.2327   -1.9724 H       1  UNL1        0.0560
     55 H          -7.7035   -1.1039   -1.3262 H       1  UNL1        0.0560
     56 H          -6.7782   -4.0613    0.7545 H       1  UNL1        0.0560
     57 H          -7.6414   -2.5158    1.1000 H       1  UNL1        0.0560
     58 H          -5.4832   -2.7592    2.3899 H       1  UNL1        0.0305
     59 H          -4.6003   -2.8588    0.7882 H       1  UNL1        0.0305
     60 H          -1.5644    0.2518    1.2655 H       1  UNL1        0.0659
     61 H          -1.2727    1.5771   -2.1625 H       1  UNL1        0.0638
     62 H          -2.7133    3.5528   -2.2652 H       1  UNL1        0.0624
     63 H          -3.3303    5.6648   -1.5078 H       1  UNL1        0.0624
     64 H          -2.9869    7.5746    0.0241 H       1  UNL1        0.0618
     65 H          -1.1674    7.4807    1.6744 H       1  UNL1        0.0618
     66 H           0.2833    5.5622    1.8227 H       1  UNL1        0.0624
     67 H           0.9258    3.3995    1.0572 H       1  UNL1        0.0644
     68 H           3.8143   -0.7543    1.9236 H       1  UNL1        0.0301
     69 H           3.4236   -2.1573    0.8848 H       1  UNL1        0.0301
     70 H           6.1898   -0.9046    1.3701 H       1  UNL1        0.0466
     71 H           5.5584   -2.5073    2.0454 H       1  UNL1        0.0466
@<TRIPOS>BOND
     1     1     2    1
     2     2     3    1
     3     3     4    2
     4     3     5   am
     5     5     6    1
     6     6     7    1
     7     7     8    1
     8     8     9    1
     9     9    10   ar
    10    10    11   ar
    11    11    12    1
    12    12    13   ar
    13    13    14   ar
    14    14    15   ar
    15    15    16   ar
    16    16    17    1
    17    17    18    1
    18    18    19    1
    19    19    20    1
    20    20    21    1
    21    21    22    1
    22    22    23    1
    23    16    24   ar
    24    11    25   ar
    25    25    26    1
    26    26    27   ar
    27    27    28   ar
    28    28    29   ar
    29    29    30   ar
    30    30    31   ar
    31    31    32   ar
    32    32    33   ar
    33    33    34   ar
    34    34    35   ar
    35    25    36   ar
    36    36    37    2
    37     8    38    1
    38    38    39    1
    39    39     5    1
    40    36     9   ar
    41    24    12   ar
    42    35    26   ar
    43    23    18    1
    44    34    29   ar
    45     1    40    1
    46     1    41    1
    47     1    42    1
    48     6    43    1
    49     6    44    1
    50     7    45    1
    51     7    46    1
    52     8    47    1
    53    13    48    1
    54    14    49    1
    55    17    50    1
    56    18    51    1
    57    19    52    1
    58    19    53    1
    59    20    54    1
    60    20    55    1
    61    22    56    1
    62    22    57    1
    63    23    58    1
    64    23    59    1
    65    24    60    1
    66    27    61    1
    67    28    62    1
    68    30    63    1
    69    31    64    1
    70    32    65    1
    71    33    66    1
    72    35    67    1
    73    38    68    1
    74    38    69    1
    75    39    70    1
    76    39    71    1
