
     RDKit          3D

 71 76  0  0  0  0  0  0  0  0999 V2000
    9.4540   -3.5028    0.5651 C   0  0  0  0  0  0  0  0  0  0  0  0
    8.1984   -2.9239    0.8221 O   0  0  0  0  0  0  0  0  0  0  0  0
    7.2221   -3.0414   -0.1727 C   0  0  0  0  0  0  0  0  0  0  0  0
    7.4797   -3.6439   -1.2434 O   0  0  0  0  0  0  0  0  0  0  0  0
    5.9281   -2.4880    0.0014 N   0  0  0  0  0  0  0  0  0  0  0  0
    4.9426   -2.6184   -1.0275 C   0  0  0  0  0  0  0  0  0  0  0  0
    4.4170   -1.2550   -1.4146 C   0  0  0  0  0  0  0  0  0  0  0  0
    4.0024   -0.4345   -0.2152 C   0  0  0  0  0  0  0  0  0  0  0  0
    2.6073   -0.0551   -0.3256 N   0  0  0  0  0  0  0  0  0  0  0  0
    1.5520   -0.8416   -0.4047 N   0  0  0  0  0  0  0  0  0  0  0  0
    0.4255   -0.1213   -0.4956 C   0  0  0  0  0  0  0  0  0  0  0  0
   -0.9765   -0.5895   -0.6031 C   0  0  0  0  0  0  0  0  0  0  0  0
   -1.3774   -1.3074   -1.7109 C   0  0  0  0  0  0  0  0  0  0  0  0
   -2.6819   -1.7278   -1.7827 C   0  0  0  0  0  0  0  0  0  0  0  0
   -3.5355   -1.4416   -0.7946 N   0  0  0  0  0  0  0  0  0  0  0  0
   -3.1723   -0.7461    0.2921 C   0  0  0  0  0  0  0  0  0  0  0  0
   -4.1333   -0.4723    1.3154 N   0  0  0  0  0  0  0  0  0  0  0  0
   -5.4929   -0.9267    1.2127 C   0  0  0  0  0  0  0  0  0  0  0  0
   -6.1843   -0.3897    0.0158 C   0  0  0  0  0  0  0  0  0  0  0  0
   -6.6438   -1.3380   -1.0059 C   0  0  0  0  0  0  0  0  0  0  0  0
   -6.6246   -2.6683   -0.6877 O   0  0  0  0  0  0  0  0  0  0  0  0
   -6.7404   -2.9432    0.6506 C   0  0  0  0  0  0  0  0  0  0  0  0
   -5.4748   -2.4301    1.3102 C   0  0  0  0  0  0  0  0  0  0  0  0
   -1.8700   -0.3126    0.3894 C   0  0  0  0  0  0  0  0  0  0  0  0
    0.8021    1.1682   -0.4717 N   0  0  0  0  0  0  0  0  0  0  0  0
   -0.0428    2.3104   -0.5425 C   0  0  0  0  0  0  0  0  0  0  0  0
   -1.0673    2.3782   -1.4623 C   0  0  0  0  0  0  0  0  0  0  0  0
   -1.9054    3.4858   -1.5485 C   0  0  0  0  0  0  0  0  0  0  0  0
   -1.6893    4.5375   -0.6796 C   0  0  0  0  0  0  0  0  0  0  0  0
   -2.5346    5.6360   -0.7784 C   0  0  0  0  0  0  0  0  0  0  0  0
   -2.3447    6.7118    0.0812 C   0  0  0  0  0  0  0  0  0  0  0  0
   -1.3328    6.6623    1.0007 C   0  0  0  0  0  0  0  0  0  0  0  0
   -0.5042    5.5716    1.0887 C   0  0  0  0  0  0  0  0  0  0  0  0
   -0.6832    4.4999    0.2420 C   0  0  0  0  0  0  0  0  0  0  0  0
    0.1363    3.3837    0.3053 C   0  0  0  0  0  0  0  0  0  0  0  0
    2.1603    1.2129   -0.3659 C   0  0  0  0  0  0  0  0  0  0  0  0
    2.8397    2.2732   -0.3174 O   0  0  0  0  0  0  0  0  0  0  0  0
    4.1226   -1.3130    1.0142 C   0  0  0  0  0  0  0  0  0  0  0  0
    5.5498   -1.7757    1.2107 C   0  0  0  0  0  0  0  0  0  0  0  0
    9.8614   -3.8645    1.5436 H   0  0  0  0  0  0  0  0  0  0  0  0
    9.3861   -4.3345   -0.1393 H   0  0  0  0  0  0  0  0  0  0  0  0
   10.1923   -2.7394    0.2152 H   0  0  0  0  0  0  0  0  0  0  0  0
    4.1472   -3.3000   -0.6919 H   0  0  0  0  0  0  0  0  0  0  0  0
    5.3663   -3.0675   -1.9565 H   0  0  0  0  0  0  0  0  0  0  0  0
    3.5212   -1.4330   -2.0505 H   0  0  0  0  0  0  0  0  0  0  0  0
    5.1490   -0.7336   -2.0624 H   0  0  0  0  0  0  0  0  0  0  0  0
    4.6357    0.4470   -0.0808 H   0  0  0  0  0  0  0  0  0  0  0  0
   -0.6364   -1.5026   -2.4705 H   0  0  0  0  0  0  0  0  0  0  0  0
   -2.9634   -2.2906   -2.6690 H   0  0  0  0  0  0  0  0  0  0  0  0
   -3.8242    0.0649    2.1379 H   0  0  0  0  0  0  0  0  0  0  0  0
   -6.0262   -0.5860    2.1410 H   0  0  0  0  0  0  0  0  0  0  0  0
   -7.0454    0.2622    0.3359 H   0  0  0  0  0  0  0  0  0  0  0  0
   -5.4797    0.3454   -0.4771 H   0  0  0  0  0  0  0  0  0  0  0  0
   -6.0654   -1.2327   -1.9724 H   0  0  0  0  0  0  0  0  0  0  0  0
   -7.7035   -1.1039   -1.3262 H   0  0  0  0  0  0  0  0  0  0  0  0
   -6.7782   -4.0613    0.7545 H   0  0  0  0  0  0  0  0  0  0  0  0
   -7.6414   -2.5158    1.1000 H   0  0  0  0  0  0  0  0  0  0  0  0
   -5.4832   -2.7592    2.3899 H   0  0  0  0  0  0  0  0  0  0  0  0
   -4.6003   -2.8588    0.7882 H   0  0  0  0  0  0  0  0  0  0  0  0
   -1.5644    0.2518    1.2655 H   0  0  0  0  0  0  0  0  0  0  0  0
   -1.2727    1.5771   -2.1625 H   0  0  0  0  0  0  0  0  0  0  0  0
   -2.7133    3.5528   -2.2652 H   0  0  0  0  0  0  0  0  0  0  0  0
   -3.3303    5.6648   -1.5078 H   0  0  0  0  0  0  0  0  0  0  0  0
   -2.9869    7.5746    0.0241 H   0  0  0  0  0  0  0  0  0  0  0  0
   -1.1674    7.4807    1.6744 H   0  0  0  0  0  0  0  0  0  0  0  0
    0.2833    5.5622    1.8227 H   0  0  0  0  0  0  0  0  0  0  0  0
    0.9258    3.3995    1.0572 H   0  0  0  0  0  0  0  0  0  0  0  0
    3.8143   -0.7543    1.9236 H   0  0  0  0  0  0  0  0  0  0  0  0
    3.4236   -2.1573    0.8848 H   0  0  0  0  0  0  0  0  0  0  0  0
    6.1898   -0.9046    1.3701 H   0  0  0  0  0  0  0  0  0  0  0  0
    5.5584   -2.5073    2.0454 H   0  0  0  0  0  0  0  0  0  0  0  0
  1  2  1  0
  2  3  1  0
  3  4  2  0
  3  5  1  0
  5  6  1  0
  6  7  1  0
  7  8  1  0
  8  9  1  0
  9 10  1  0
 10 11  2  0
 11 12  1  0
 12 13  2  0
 13 14  1  0
 14 15  2  0
 15 16  1  0
 16 17  1  0
 17 18  1  0
 18 19  1  0
 19 20  1  0
 20 21  1  0
 21 22  1  0
 22 23  1  0
 16 24  2  0
 11 25  1  0
 25 26  1  0
 26 27  2  0
 27 28  1  0
 28 29  2  0
 29 30  1  0
 30 31  2  0
 31 32  1  0
 32 33  2  0
 33 34  1  0
 34 35  2  0
 25 36  1  0
 36 37  2  0
  8 38  1  0
 38 39  1  0
 39  5  1  0
 36  9  1  0
 24 12  1  0
 35 26  1  0
 23 18  1  0
 34 29  1  0
  1 40  1  0
  1 41  1  0
  1 42  1  0
  6 43  1  0
  6 44  1  0
  7 45  1  0
  7 46  1  0
  8 47  1  0
 13 48  1  0
 14 49  1  0
 17 50  1  0
 18 51  1  0
 19 52  1  0
 19 53  1  0
 20 54  1  0
 20 55  1  0
 22 56  1  0
 22 57  1  0
 23 58  1  0
 23 59  1  0
 24 60  1  0
 27 61  1  0
 28 62  1  0
 30 63  1  0
 31 64  1  0
 32 65  1  0
 33 66  1  0
 35 67  1  0
 38 68  1  0
 38 69  1  0
 39 70  1  0
 39 71  1  0
M  END
$$$$
