@<TRIPOS>MOLECULE
*****
 44 47 0 0 0
SMALL
GASTEIGER

@<TRIPOS>ATOM
      1 C          -4.8299    0.9390    1.6957 C.3     1  UNL1        0.0130
      2 N          -5.0858    0.6884    0.3074 N.ar    1  UNL1       -0.3352
      3 C          -6.2685    0.9828   -0.3081 C.ar    1  UNL1        0.0240
      4 C          -6.1286    0.6032   -1.6080 C.ar    1  UNL1        0.0458
      5 N          -4.9042    0.1054   -1.7392 N.ar    1  UNL1       -0.2378
      6 C          -4.2342    0.1486   -0.5544 C.ar    1  UNL1        0.1438
      7 C          -2.8485   -0.3317   -0.3765 C.3     1  UNL1        0.1860
      8 C          -1.8851    0.8224   -0.4572 C.3     1  UNL1        0.0491
      9 N          -0.4995    0.3608   -0.2819 N.am    1  UNL1       -0.3059
     10 C           0.5870    1.2721   -0.3194 C.2     1  UNL1        0.2795
     11 O           0.3228    2.4858   -0.5074 O.2     1  UNL1       -0.2668
     12 C           1.9782    0.8080   -0.1433 C.ar    1  UNL1        0.1905
     13 C           3.1218    1.5753   -0.1563 C.ar    1  UNL1       -0.0035
     14 C           4.2310    0.7713    0.0437 C.ar    1  UNL1        0.0214
     15 C           5.5860    0.9760    0.1250 C.ar    1  UNL1       -0.0393
     16 C           6.4417   -0.0744    0.3385 C.ar    1  UNL1        0.0556
     17 C           7.9236    0.1016    0.4340 C.3     1  UNL1        0.4174
     18 F           8.5466   -0.8247   -0.3836 F       1  UNL1       -0.1659
     19 F           8.2758    1.3846    0.0896 F       1  UNL1       -0.1659
     20 F           8.2675   -0.1078    1.7563 F       1  UNL1       -0.1659
     21 C           5.9103   -1.3463    0.4703 C.ar    1  UNL1       -0.0466
     22 C           4.5507   -1.5562    0.3894 C.ar    1  UNL1       -0.0182
     23 C           3.6766   -0.5084    0.1748 C.ar    1  UNL1        0.1359
     24 O           2.3739   -0.4233    0.0579 O.2     1  UNL1       -0.4502
     25 N          -2.5292   -1.2859   -1.4156 N.am    1  UNL1       -0.2777
     26 C          -3.0119   -2.5439   -0.9649 C.2     1  UNL1        0.3071
     27 O          -3.2932   -3.5320   -1.7162 O.2     1  UNL1       -0.2524
     28 N          -3.1066   -2.4567    0.4513 N.am    1  UNL1       -0.2380
     29 C          -2.6777   -1.1397    0.8410 C.2     1  UNL1        0.2531
     30 O          -2.2626   -0.8109    1.9722 O.2     1  UNL1       -0.2724
     31 H          -5.6401    1.5797    2.1539 H       1  UNL1        0.0456
     32 H          -4.8701   -0.0071    2.3066 H       1  UNL1        0.0456
     33 H          -3.8944    1.5055    1.8702 H       1  UNL1        0.0456
     34 H          -7.1471    1.4249    0.1239 H       1  UNL1        0.0825
     35 H          -6.8467    0.6747   -2.4087 H       1  UNL1        0.0845
     36 H          -1.9515    1.2451   -1.4741 H       1  UNL1        0.0492
     37 H          -2.0457    1.5661    0.3458 H       1  UNL1        0.0492
     38 H          -0.2879   -0.6506   -0.1259 H       1  UNL1        0.1492
     39 H           3.1619    2.6472   -0.3004 H       1  UNL1        0.0663
     40 H           5.9996    1.9602    0.0232 H       1  UNL1        0.0630
     41 H           6.6158   -2.1672    0.6401 H       1  UNL1        0.0624
     42 H           4.1588   -2.5769    0.4980 H       1  UNL1        0.0655
     43 H          -2.0435   -1.0471   -2.2955 H       1  UNL1        0.1517
     44 H          -3.4369   -3.2382    1.0769 H       1  UNL1        0.1591
@<TRIPOS>BOND
     1     1     2    1
     2     2     3   ar
     3     3     4   ar
     4     4     5   ar
     5     5     6   ar
     6     6     7    1
     7     7     8    1
     8     8     9    1
     9     9    10   am
    10    10    11    2
    11    10    12    1
    12    12    13   ar
    13    13    14   ar
    14    14    15   ar
    15    15    16   ar
    16    16    17    1
    17    17    18    1
    18    17    19    1
    19    17    20    1
    20    16    21   ar
    21    21    22   ar
    22    22    23   ar
    23    23    24   ar
    24     7    25    1
    25    25    26   am
    26    26    27    2
    27    26    28   am
    28    28    29   am
    29    29    30    2
    30     6     2   ar
    31    29     7    1
    32    24    12   ar
    33    23    14   ar
    34     1    31    1
    35     1    32    1
    36     1    33    1
    37     3    34    1
    38     4    35    1
    39     8    36    1
    40     8    37    1
    41     9    38    1
    42    13    39    1
    43    15    40    1
    44    21    41    1
    45    22    42    1
    46    25    43    1
    47    28    44    1
