@<TRIPOS>MOLECULE
*****
 38 42 0 0 0
SMALL
GASTEIGER

@<TRIPOS>ATOM
      1 CL         -5.9034    2.0224   -2.0677 Cl      1  UNL1       -0.0835
      2 C          -4.6654    1.1916   -1.1370 C.ar    1  UNL1        0.0410
      3 C          -3.6524    0.4790   -1.7236 C.ar    1  UNL1       -0.0431
      4 C          -2.6893   -0.1657   -0.9410 C.ar    1  UNL1       -0.0562
      5 C          -2.7315   -0.1033    0.4340 C.ar    1  UNL1       -0.0338
      6 C          -1.6713   -0.8139    1.1951 C.3     1  UNL1        0.0558
      7 C          -0.3433   -0.2182    1.0007 C.ar    1  UNL1        0.1483
      8 N          -0.0094    0.9939    1.5105 N.ar    1  UNL1       -0.1328
      9 N           1.2204    1.3053    1.2024 N.ar    1  UNL1       -0.1291
     10 C           1.7335    0.3065    0.4797 C.ar    1  UNL1        0.1646
     11 C           2.9875    0.1639   -0.0776 C.ar    1  UNL1        0.0003
     12 C           4.0472    1.1994    0.0619 C.3     1  UNL1       -0.0123
     13 C           4.1865    2.2964   -0.9117 C.3     1  UNL1       -0.0455
     14 C           5.1763    1.1452   -0.9174 C.3     1  UNL1       -0.0455
     15 C           3.2182   -1.0056   -0.7829 C.ar    1  UNL1       -0.0534
     16 C           2.2166   -1.9490   -0.8951 C.ar    1  UNL1       -0.0447
     17 C           0.9747   -1.7687   -0.3225 C.ar    1  UNL1        0.0129
     18 N           0.7564   -0.6325    0.3604 N.ar    1  UNL1       -0.2854
     19 C          -1.9406   -2.1985    1.5222 C.3     1  UNL1       -0.0352
     20 C          -1.9425   -1.2204    2.6306 C.3     1  UNL1       -0.0352
     21 C          -3.7554    0.6162    1.0021 C.ar    1  UNL1       -0.0562
     22 C          -4.7148    1.2589    0.2362 C.ar    1  UNL1       -0.0431
     23 H          -3.6184    0.4294   -2.7912 H       1  UNL1        0.0632
     24 H          -1.9247   -0.7063   -1.4918 H       1  UNL1        0.0621
     25 H           4.3864    1.4479    1.1102 H       1  UNL1        0.0350
     26 H           3.5007    2.4185   -1.7685 H       1  UNL1        0.0271
     27 H           4.6043    3.2697   -0.5676 H       1  UNL1        0.0271
     28 H           6.2145    1.3607   -0.5779 H       1  UNL1        0.0271
     29 H           5.1380    0.5392   -1.8256 H       1  UNL1        0.0271
     30 H           4.1815   -1.1604   -1.2345 H       1  UNL1        0.0622
     31 H           2.3708   -2.8683   -1.4390 H       1  UNL1        0.0632
     32 H           0.1790   -2.4959   -0.4015 H       1  UNL1        0.0814
     33 H          -2.9482   -2.6121    1.2835 H       1  UNL1        0.0278
     34 H          -1.2095   -3.0312    1.4686 H       1  UNL1        0.0278
     35 H          -2.9066   -0.8442    3.0271 H       1  UNL1        0.0278
     36 H          -1.1320   -1.1578    3.3770 H       1  UNL1        0.0278
     37 H          -3.8238    0.6904    2.0683 H       1  UNL1        0.0621
     38 H          -5.5101    1.8176    0.6949 H       1  UNL1        0.0632
@<TRIPOS>BOND
     1     1     2    1
     2     2     3   ar
     3     3     4   ar
     4     4     5   ar
     5     5     6    1
     6     6     7    1
     7     7     8   ar
     8     8     9   ar
     9     9    10   ar
    10    10    11   ar
    11    11    12    1
    12    12    13    1
    13    13    14    1
    14    11    15   ar
    15    15    16   ar
    16    16    17   ar
    17    17    18   ar
    18     6    19    1
    19    19    20    1
    20     5    21   ar
    21    21    22   ar
    22    22     2   ar
    23    20     6    1
    24    18     7   ar
    25    18    10   ar
    26    14    12    1
    27     3    23    1
    28     4    24    1
    29    12    25    1
    30    13    26    1
    31    13    27    1
    32    14    28    1
    33    14    29    1
    34    15    30    1
    35    16    31    1
    36    17    32    1
    37    19    33    1
    38    19    34    1
    39    20    35    1
    40    20    36    1
    41    21    37    1
    42    22    38    1
