
     RDKit          3D

 38 42  0  0  0  0  0  0  0  0999 V2000
   -5.9034    2.0224   -2.0677 Cl  0  0  0  0  0  0  0  0  0  0  0  0
   -4.6654    1.1916   -1.1370 C   0  0  0  0  0  0  0  0  0  0  0  0
   -3.6524    0.4790   -1.7236 C   0  0  0  0  0  0  0  0  0  0  0  0
   -2.6893   -0.1657   -0.9410 C   0  0  0  0  0  0  0  0  0  0  0  0
   -2.7315   -0.1033    0.4340 C   0  0  0  0  0  0  0  0  0  0  0  0
   -1.6713   -0.8139    1.1951 C   0  0  0  0  0  0  0  0  0  0  0  0
   -0.3433   -0.2182    1.0007 C   0  0  0  0  0  0  0  0  0  0  0  0
   -0.0094    0.9939    1.5105 N   0  0  0  0  0  0  0  0  0  0  0  0
    1.2204    1.3053    1.2024 N   0  0  0  0  0  0  0  0  0  0  0  0
    1.7335    0.3065    0.4797 C   0  0  0  0  0  0  0  0  0  0  0  0
    2.9875    0.1639   -0.0776 C   0  0  0  0  0  0  0  0  0  0  0  0
    4.0472    1.1994    0.0619 C   0  0  0  0  0  0  0  0  0  0  0  0
    4.1865    2.2964   -0.9117 C   0  0  0  0  0  0  0  0  0  0  0  0
    5.1763    1.1452   -0.9174 C   0  0  0  0  0  0  0  0  0  0  0  0
    3.2182   -1.0056   -0.7829 C   0  0  0  0  0  0  0  0  0  0  0  0
    2.2166   -1.9490   -0.8951 C   0  0  0  0  0  0  0  0  0  0  0  0
    0.9747   -1.7687   -0.3225 C   0  0  0  0  0  0  0  0  0  0  0  0
    0.7564   -0.6325    0.3604 N   0  0  0  0  0  0  0  0  0  0  0  0
   -1.9406   -2.1985    1.5222 C   0  0  0  0  0  0  0  0  0  0  0  0
   -1.9425   -1.2204    2.6306 C   0  0  0  0  0  0  0  0  0  0  0  0
   -3.7554    0.6162    1.0021 C   0  0  0  0  0  0  0  0  0  0  0  0
   -4.7148    1.2589    0.2362 C   0  0  0  0  0  0  0  0  0  0  0  0
   -3.6184    0.4294   -2.7912 H   0  0  0  0  0  0  0  0  0  0  0  0
   -1.9247   -0.7063   -1.4918 H   0  0  0  0  0  0  0  0  0  0  0  0
    4.3864    1.4479    1.1102 H   0  0  0  0  0  0  0  0  0  0  0  0
    3.5007    2.4185   -1.7685 H   0  0  0  0  0  0  0  0  0  0  0  0
    4.6043    3.2697   -0.5676 H   0  0  0  0  0  0  0  0  0  0  0  0
    6.2145    1.3607   -0.5779 H   0  0  0  0  0  0  0  0  0  0  0  0
    5.1380    0.5392   -1.8256 H   0  0  0  0  0  0  0  0  0  0  0  0
    4.1815   -1.1604   -1.2345 H   0  0  0  0  0  0  0  0  0  0  0  0
    2.3708   -2.8683   -1.4390 H   0  0  0  0  0  0  0  0  0  0  0  0
    0.1790   -2.4959   -0.4015 H   0  0  0  0  0  0  0  0  0  0  0  0
   -2.9482   -2.6121    1.2835 H   0  0  0  0  0  0  0  0  0  0  0  0
   -1.2095   -3.0312    1.4686 H   0  0  0  0  0  0  0  0  0  0  0  0
   -2.9066   -0.8442    3.0271 H   0  0  0  0  0  0  0  0  0  0  0  0
   -1.1320   -1.1578    3.3770 H   0  0  0  0  0  0  0  0  0  0  0  0
   -3.8238    0.6904    2.0683 H   0  0  0  0  0  0  0  0  0  0  0  0
   -5.5101    1.8176    0.6949 H   0  0  0  0  0  0  0  0  0  0  0  0
  1  2  1  0
  2  3  2  0
  3  4  1  0
  4  5  2  0
  5  6  1  0
  6  7  1  0
  7  8  2  0
  8  9  1  0
  9 10  2  0
 10 11  1  0
 11 12  1  0
 12 13  1  0
 13 14  1  0
 11 15  2  0
 15 16  1  0
 16 17  2  0
 17 18  1  0
  6 19  1  0
 19 20  1  0
  5 21  1  0
 21 22  2  0
 22  2  1  0
 20  6  1  0
 18  7  1  0
 18 10  1  0
 14 12  1  0
  3 23  1  0
  4 24  1  0
 12 25  1  0
 13 26  1  0
 13 27  1  0
 14 28  1  0
 14 29  1  0
 15 30  1  0
 16 31  1  0
 17 32  1  0
 19 33  1  0
 19 34  1  0
 20 35  1  0
 20 36  1  0
 21 37  1  0
 22 38  1  0
M  END
$$$$
