@<TRIPOS>MOLECULE
*****
 59 62 0 0 0
SMALL
GASTEIGER

@<TRIPOS>ATOM
      1 C          -3.2061   -6.0034   -0.2408 C.3     1  UNL1       -0.0495
      2 C          -3.3748   -4.6677    0.4291 C.3     1  UNL1        0.0088
      3 N          -2.7724   -3.6448   -0.4347 N.am    1  UNL1       -0.3140
      4 C          -2.7740   -2.2748   -0.0685 C.2     1  UNL1        0.2336
      5 O          -3.3189   -1.9608    1.0415 O.2     1  UNL1       -0.2738
      6 C          -2.1581   -1.2632   -0.9605 C.3     1  UNL1        0.1042
      7 C          -0.6745   -1.5517   -1.0342 C.3     1  UNL1       -0.0058
      8 C          -0.0945   -0.5754   -0.0640 C.3     1  UNL1        0.0414
      9 N           1.3059   -0.3553   -0.2227 N.am    1  UNL1       -0.3057
     10 C           2.2211   -0.5806    0.8445 C.2     1  UNL1        0.2623
     11 O           1.7947   -0.9800    1.9474 O.2     1  UNL1       -0.2685
     12 C           3.6310   -0.3437    0.6364 C.ar    1  UNL1        0.1232
     13 C           4.2221    0.0932   -0.5214 C.ar    1  UNL1       -0.0086
     14 C           5.5770    0.1831   -0.2833 C.ar    1  UNL1        0.0635
     15 C           6.5900    0.6192   -1.2762 C.3     1  UNL1       -0.0115
     16 C           7.9426    0.5631   -0.5782 C.3     1  UNL1       -0.0598
     17 N           5.7490   -0.1977    0.9911 N.ar    1  UNL1       -0.1758
     18 N           4.5926   -0.5142    1.5486 N.ar    1  UNL1       -0.2620
     19 C           4.4534   -0.9697    2.9379 C.3     1  UNL1        0.0310
     20 C          -0.9376    0.6625   -0.2971 C.3     1  UNL1        0.0343
     21 N          -2.2599    0.0641   -0.3986 N.am    1  UNL1       -0.2840
     22 C          -3.4509    0.7129    0.0038 C.2     1  UNL1        0.2509
     23 O          -4.5402    0.1079   -0.1267 O.2     1  UNL1       -0.2698
     24 C          -3.4568    2.0570    0.5637 C.ar    1  UNL1        0.0823
     25 C          -3.3445    2.4087    1.9137 C.ar    1  UNL1        0.1053
     26 O          -3.3911    3.7140    2.0268 O.2     1  UNL1       -0.4621
     27 C          -3.5285    4.2728    0.8335 C.ar    1  UNL1        0.1355
     28 C          -3.6269    5.5834    0.4023 C.ar    1  UNL1       -0.0187
     29 C          -3.7655    5.8420   -0.9409 C.ar    1  UNL1       -0.0582
     30 C          -3.8111    4.8364   -1.8892 C.ar    1  UNL1       -0.0610
     31 C          -3.7132    3.5211   -1.4658 C.ar    1  UNL1       -0.0503
     32 C          -3.5726    3.2605   -0.1022 C.ar    1  UNL1        0.0323
     33 H          -3.0933   -5.8508   -1.3503 H       1  UNL1        0.0245
     34 H          -2.2894   -6.4747    0.1873 H       1  UNL1        0.0245
     35 H          -4.0996   -6.6128   -0.0215 H       1  UNL1        0.0245
     36 H          -4.4626   -4.4211    0.5897 H       1  UNL1        0.0459
     37 H          -2.9077   -4.6824    1.4278 H       1  UNL1        0.0459
     38 H          -2.3214   -3.9092   -1.3544 H       1  UNL1        0.1487
     39 H          -2.5476   -1.3168   -1.9950 H       1  UNL1        0.0597
     40 H          -0.2695   -1.4473   -2.0572 H       1  UNL1        0.0306
     41 H          -0.4857   -2.6166   -0.7432 H       1  UNL1        0.0306
     42 H          -0.2907   -0.9253    0.9716 H       1  UNL1        0.0514
     43 H           1.6912   -0.0156   -1.1535 H       1  UNL1        0.1494
     44 H           3.7101    0.3284   -1.4657 H       1  UNL1        0.0659
     45 H           6.5901   -0.0608   -2.1741 H       1  UNL1        0.0326
     46 H           6.3488    1.6563   -1.5823 H       1  UNL1        0.0326
     47 H           8.3098   -0.4672   -0.5335 H       1  UNL1        0.0233
     48 H           7.7771    1.0181    0.4266 H       1  UNL1        0.0233
     49 H           8.6132    1.2344   -1.1777 H       1  UNL1        0.0233
     50 H           5.3321   -0.6403    3.5388 H       1  UNL1        0.0473
     51 H           3.5653   -0.4952    3.3940 H       1  UNL1        0.0473
     52 H           4.3304   -2.0719    2.9843 H       1  UNL1        0.0473
     53 H          -0.8212    1.3176    0.5673 H       1  UNL1        0.0483
     54 H          -0.6576    1.2141   -1.2031 H       1  UNL1        0.0483
     55 H          -3.2371    1.6590    2.7006 H       1  UNL1        0.1037
     56 H          -3.5899    6.3596    1.1546 H       1  UNL1        0.0654
     57 H          -3.8408    6.8783   -1.2548 H       1  UNL1        0.0619
     58 H          -3.9207    5.0413   -2.9495 H       1  UNL1        0.0618
     59 H          -3.7404    2.6820   -2.1419 H       1  UNL1        0.0625
@<TRIPOS>BOND
     1     1     2    1
     2     2     3    1
     3     3     4   am
     4     4     5    2
     5     4     6    1
     6     6     7    1
     7     7     8    1
     8     8     9    1
     9     9    10   am
    10    10    11    2
    11    10    12    1
    12    12    13   ar
    13    13    14   ar
    14    14    15    1
    15    15    16    1
    16    14    17   ar
    17    17    18   ar
    18    18    19    1
    19     8    20    1
    20    20    21    1
    21    21    22   am
    22    22    23    2
    23    22    24    1
    24    24    25   ar
    25    25    26   ar
    26    26    27   ar
    27    27    28   ar
    28    28    29   ar
    29    29    30   ar
    30    30    31   ar
    31    31    32   ar
    32    21     6    1
    33    32    24   ar
    34    18    12   ar
    35    32    27   ar
    36     1    33    1
    37     1    34    1
    38     1    35    1
    39     2    36    1
    40     2    37    1
    41     3    38    1
    42     6    39    1
    43     7    40    1
    44     7    41    1
    45     8    42    1
    46     9    43    1
    47    13    44    1
    48    15    45    1
    49    15    46    1
    50    16    47    1
    51    16    48    1
    52    16    49    1
    53    19    50    1
    54    19    51    1
    55    19    52    1
    56    20    53    1
    57    20    54    1
    58    25    55    1
    59    28    56    1
    60    29    57    1
    61    30    58    1
    62    31    59    1
