@<TRIPOS>MOLECULE
*****
 56 58 0 0 0
SMALL
GASTEIGER

@<TRIPOS>ATOM
      1 C           1.6858    1.5640   -3.9588 C.2     1  UNL1       -0.0951
      2 C           1.1782    1.3270   -2.7701 C.2     1  UNL1       -0.0472
      3 C          -0.2983    1.5743   -2.6600 C.3     1  UNL1       -0.0396
      4 C           2.0475    0.9600   -1.6842 C.ar    1  UNL1        0.0166
      5 C           3.4400    1.1345   -1.7937 C.ar    1  UNL1        0.0374
      6 N           4.2941    0.8219   -0.8048 N.ar    1  UNL1       -0.2542
      7 C           3.8878    0.3191    0.3656 C.ar    1  UNL1        0.0755
      8 C           4.8166   -0.0147    1.4316 C.ar    1  UNL1        0.0369
      9 C           4.4324   -0.5301    2.6401 C.ar    1  UNL1       -0.0314
     10 C           5.3969   -0.8233    3.6127 C.ar    1  UNL1        0.0418
     11 CL          4.9016   -1.4803    5.1515 Cl      1  UNL1       -0.0835
     12 C           6.7345   -0.5990    3.3688 C.ar    1  UNL1       -0.0406
     13 C           7.1020   -0.0790    2.1448 C.ar    1  UNL1       -0.0244
     14 C           6.1531    0.2076    1.1928 C.ar    1  UNL1        0.1326
     15 F           6.5912    0.7193    0.0066 F       1  UNL1       -0.2048
     16 C           2.5412    0.1247    0.5312 C.ar    1  UNL1       -0.0138
     17 C           1.6322    0.4497   -0.5082 C.ar    1  UNL1        0.0423
     18 N           0.2299    0.1858   -0.2431 N.pl3   1  UNL1       -0.3133
     19 C          -0.3629   -0.8664   -0.9917 C.ar    1  UNL1        0.0465
     20 C           0.4495   -1.6170   -1.8726 C.ar    1  UNL1       -0.0217
     21 C          -0.0904   -2.6332   -2.6195 C.ar    1  UNL1        0.0293
     22 N          -1.3919   -2.9099   -2.5087 N.ar    1  UNL1       -0.2624
     23 C          -2.1849   -2.1967   -1.6655 C.ar    1  UNL1        0.0415
     24 C          -1.6907   -1.1513   -0.8808 C.ar    1  UNL1        0.0758
     25 C          -2.5555   -0.4110   -0.0047 C.2     1  UNL1        0.2478
     26 O          -2.2383    0.5583    0.7307 O.2     1  UNL1       -0.2701
     27 N          -3.9446   -0.7510    0.1008 N.am    1  UNL1       -0.3040
     28 C          -4.8330   -0.0174    0.9774 C.3     1  UNL1        0.0523
     29 C          -4.8781    1.4620    0.5839 C.3     1  UNL1       -0.0418
     30 C          -6.2341   -0.5427    0.8004 C.3     1  UNL1       -0.0418
     31 C          -4.4674   -0.1150    2.4153 C.3     1  UNL1        0.0649
     32 O          -5.4197    0.6457    3.1315 O.3     1  UNL1       -0.3929
     33 H           2.7056    1.4330   -4.1829 H       1  UNL1        0.0538
     34 H           1.0467    1.9079   -4.7512 H       1  UNL1        0.0538
     35 H          -0.4405    2.5383   -3.2731 H       1  UNL1        0.0278
     36 H          -0.9131    0.8104   -3.1200 H       1  UNL1        0.0278
     37 H          -0.5488    1.8633   -1.6291 H       1  UNL1        0.0278
     38 H           3.8158    1.5544   -2.7257 H       1  UNL1        0.0836
     39 H           3.3947   -0.7213    2.8724 H       1  UNL1        0.0639
     40 H           7.4925   -0.8241    4.1196 H       1  UNL1        0.0633
     41 H           8.1481    0.1054    1.9318 H       1  UNL1        0.0647
     42 H           2.1091   -0.2752    1.4365 H       1  UNL1        0.0658
     43 H          -0.2089    0.7770    0.4659 H       1  UNL1        0.1522
     44 H           1.4972   -1.3991   -1.9536 H       1  UNL1        0.0651
     45 H           0.5199   -3.2230   -3.3047 H       1  UNL1        0.0830
     46 H          -3.2350   -2.4373   -1.5922 H       1  UNL1        0.0838
     47 H          -4.3476   -1.5192   -0.4362 H       1  UNL1        0.1496
     48 H          -5.8653    1.8463    0.8672 H       1  UNL1        0.0251
     49 H          -4.7629    1.5221   -0.5123 H       1  UNL1        0.0251
     50 H          -4.0498    2.0215    1.0919 H       1  UNL1        0.0251
     51 H          -6.9867    0.2901    0.7787 H       1  UNL1        0.0251
     52 H          -6.4734   -1.2936    1.5783 H       1  UNL1        0.0251
     53 H          -6.3032   -1.0261   -0.1994 H       1  UNL1        0.0251
     54 H          -4.6026   -1.1596    2.7903 H       1  UNL1        0.0578
     55 H          -3.4906    0.3041    2.6861 H       1  UNL1        0.0578
     56 H          -5.4259    1.5889    2.8426 H       1  UNL1        0.2095
@<TRIPOS>BOND
     1     1     2    2
     2     2     3    1
     3     2     4    1
     4     4     5   ar
     5     5     6   ar
     6     6     7   ar
     7     7     8    1
     8     8     9   ar
     9     9    10   ar
    10    10    11    1
    11    10    12   ar
    12    12    13   ar
    13    13    14   ar
    14    14    15    1
    15     7    16   ar
    16    16    17   ar
    17    17    18    1
    18    18    19    1
    19    19    20   ar
    20    20    21   ar
    21    21    22   ar
    22    22    23   ar
    23    23    24   ar
    24    24    25    1
    25    25    26    2
    26    25    27   am
    27    27    28    1
    28    28    29    1
    29    28    30    1
    30    28    31    1
    31    31    32    1
    32    17     4   ar
    33    24    19   ar
    34    14     8   ar
    35     1    33    1
    36     1    34    1
    37     3    35    1
    38     3    36    1
    39     3    37    1
    40     5    38    1
    41     9    39    1
    42    12    40    1
    43    13    41    1
    44    16    42    1
    45    18    43    1
    46    20    44    1
    47    21    45    1
    48    23    46    1
    49    27    47    1
    50    29    48    1
    51    29    49    1
    52    29    50    1
    53    30    51    1
    54    30    52    1
    55    30    53    1
    56    31    54    1
    57    31    55    1
    58    32    56    1
