
     RDKit          3D

 32 33  0  0  0  0  0  0  0  0999 V2000
   -1.1396   -1.4334   -1.7048 O   0  0  0  0  0  0  0  0  0  0  0  0
   -1.2335   -0.6312   -0.7234 C   0  0  0  0  0  0  0  0  0  0  0  0
   -0.0166   -0.1316   -0.1384 C   0  0  0  0  0  0  0  0  0  0  0  0
    1.1426   -0.5152   -0.6306 C   0  0  0  0  0  0  0  0  0  0  0  0
    2.4006   -0.0421   -0.0787 C   0  0  0  0  0  0  0  0  0  0  0  0
    2.5253    0.8240    0.9761 C   0  0  0  0  0  0  0  0  0  0  0  0
    3.7548    1.2492    1.4700 C   0  0  0  0  0  0  0  0  0  0  0  0
    4.8976    0.7736    0.8660 C   0  0  0  0  0  0  0  0  0  0  0  0
    6.1492    1.1708    1.3253 O   0  0  0  0  0  0  0  0  0  0  0  0
    4.8396   -0.1043   -0.2045 C   0  0  0  0  0  0  0  0  0  0  0  0
    6.0307   -0.5368   -0.7569 O   0  0  0  0  0  0  0  0  0  0  0  0
    3.5951   -0.4864   -0.6456 C   0  0  0  0  0  0  0  0  0  0  0  0
   -2.5744   -0.2691   -0.2538 C   0  0  0  0  0  0  0  0  0  0  0  0
   -2.7918    0.5900    0.7997 C   0  0  0  0  0  0  0  0  0  0  0  0
   -4.0848    0.9145    1.2224 C   0  0  0  0  0  0  0  0  0  0  0  0
   -5.1906    0.3830    0.5963 C   0  0  0  0  0  0  0  0  0  0  0  0
   -6.4797    0.7087    1.0205 O   0  0  0  0  0  0  0  0  0  0  0  0
   -4.9651   -0.4762   -0.4574 C   0  0  0  0  0  0  0  0  0  0  0  0
   -3.6852   -0.7988   -0.8776 C   0  0  0  0  0  0  0  0  0  0  0  0
   -3.4842   -1.6752   -1.9517 O   0  0  0  0  0  0  0  0  0  0  0  0
   -0.0748    0.5452    0.6892 H   0  0  0  0  0  0  0  0  0  0  0  0
    1.1943   -1.2102   -1.4802 H   0  0  0  0  0  0  0  0  0  0  0  0
    1.6328    1.1962    1.4487 H   0  0  0  0  0  0  0  0  0  0  0  0
    3.7882    1.9224    2.2912 H   0  0  0  0  0  0  0  0  0  0  0  0
    6.8651    1.4536    0.6801 H   0  0  0  0  0  0  0  0  0  0  0  0
    6.4404   -1.3730   -0.3446 H   0  0  0  0  0  0  0  0  0  0  0  0
    3.5601   -1.1842   -1.4967 H   0  0  0  0  0  0  0  0  0  0  0  0
   -1.9332    1.0167    1.3029 H   0  0  0  0  0  0  0  0  0  0  0  0
   -4.2256    1.5948    2.0559 H   0  0  0  0  0  0  0  0  0  0  0  0
   -7.2265    0.0467    1.1105 H   0  0  0  0  0  0  0  0  0  0  0  0
   -5.8211   -0.9058   -0.9644 H   0  0  0  0  0  0  0  0  0  0  0  0
   -3.8897   -2.6160   -1.9165 H   0  0  0  0  0  0  0  0  0  0  0  0
  1  2  2  0
  2  3  1  0
  3  4  2  0
  4  5  1  0
  5  6  2  0
  6  7  1  0
  7  8  2  0
  8  9  1  0
  8 10  1  0
 10 11  1  0
 10 12  2  0
  2 13  1  0
 13 14  2  0
 14 15  1  0
 15 16  2  0
 16 17  1  0
 16 18  1  0
 18 19  2  0
 19 20  1  0
 12  5  1  0
 19 13  1  0
  3 21  1  0
  4 22  1  0
  6 23  1  0
  7 24  1  0
  9 25  1  0
 11 26  1  0
 12 27  1  0
 14 28  1  0
 15 29  1  0
 17 30  1  0
 18 31  1  0
 20 32  1  0
M  END
$$$$
