@<TRIPOS>MOLECULE
*****
 32 33 0 0 0
SMALL
GASTEIGER

@<TRIPOS>ATOM
      1 O          -1.1396   -1.4334   -1.7048 O.2     1  UNL1       -0.2872
      2 C          -1.2335   -0.6312   -0.7234 C.2     1  UNL1        0.1896
      3 C          -0.0166   -0.1316   -0.1384 C.2     1  UNL1       -0.0137
      4 C           1.1426   -0.5152   -0.6306 C.2     1  UNL1       -0.0508
      5 C           2.4006   -0.0421   -0.0787 C.ar    1  UNL1       -0.0212
      6 C           2.5253    0.8240    0.9761 C.ar    1  UNL1       -0.0509
      7 C           3.7548    1.2492    1.4700 C.ar    1  UNL1       -0.0160
      8 C           4.8976    0.7736    0.8660 C.ar    1  UNL1        0.1582
      9 O           6.1492    1.1708    1.3253 O.3     1  UNL1       -0.5033
     10 C           4.8396   -0.1043   -0.2045 C.ar    1  UNL1        0.1588
     11 O           6.0307   -0.5368   -0.7569 O.3     1  UNL1       -0.5033
     12 C           3.5951   -0.4864   -0.6456 C.ar    1  UNL1       -0.0094
     13 C          -2.5744   -0.2691   -0.2538 C.ar    1  UNL1        0.0632
     14 C          -2.7918    0.5900    0.7997 C.ar    1  UNL1       -0.0440
     15 C          -4.0848    0.9145    1.2224 C.ar    1  UNL1       -0.0193
     16 C          -5.1906    0.3830    0.5963 C.ar    1  UNL1        0.1204
     17 O          -6.4797    0.7087    1.0205 O.3     1  UNL1       -0.5066
     18 C          -4.9651   -0.4762   -0.4574 C.ar    1  UNL1        0.0220
     19 C          -3.6852   -0.7988   -0.8776 C.ar    1  UNL1        0.1311
     20 O          -3.4842   -1.6752   -1.9517 O.3     1  UNL1       -0.5059
     21 H          -0.0748    0.5452    0.6892 H       1  UNL1        0.0656
     22 H           1.1943   -1.2102   -1.4802 H       1  UNL1        0.0625
     23 H           1.6328    1.1962    1.4487 H       1  UNL1        0.0625
     24 H           3.7882    1.9224    2.2912 H       1  UNL1        0.0655
     25 H           6.8651    1.4536    0.6801 H       1  UNL1        0.2923
     26 H           6.4404   -1.3730   -0.3446 H       1  UNL1        0.2923
     27 H           3.5601   -1.1842   -1.4967 H       1  UNL1        0.0661
     28 H          -1.9332    1.0167    1.3029 H       1  UNL1        0.0627
     29 H          -4.2256    1.5948    2.0559 H       1  UNL1        0.0654
     30 H          -7.2265    0.0467    1.1105 H       1  UNL1        0.2921
     31 H          -5.8211   -0.9058   -0.9644 H       1  UNL1        0.0691
     32 H          -3.8897   -2.6160   -1.9165 H       1  UNL1        0.2922
@<TRIPOS>BOND
     1     1     2    2
     2     2     3    1
     3     3     4    2
     4     4     5    1
     5     5     6   ar
     6     6     7   ar
     7     7     8   ar
     8     8     9    1
     9     8    10   ar
    10    10    11    1
    11    10    12   ar
    12     2    13    1
    13    13    14   ar
    14    14    15   ar
    15    15    16   ar
    16    16    17    1
    17    16    18   ar
    18    18    19   ar
    19    19    20    1
    20    12     5   ar
    21    19    13   ar
    22     3    21    1
    23     4    22    1
    24     6    23    1
    25     7    24    1
    26     9    25    1
    27    11    26    1
    28    12    27    1
    29    14    28    1
    30    15    29    1
    31    17    30    1
    32    18    31    1
    33    20    32    1
