
     RDKit          3D

 27 27  0  0  0  0  0  0  0  0999 V2000
   -0.2346   -1.7186   -0.3168 C   0  0  1  0  0  0  0  0  0  0  0  0
   -0.7070   -2.4664   -1.4024 O   0  0  0  0  0  0  0  0  0  0  0  0
    1.0351   -1.0417   -0.7307 C   0  0  2  0  0  0  0  0  0  0  0  0
    2.1536   -1.8374   -0.5916 O   0  0  0  0  0  0  0  0  0  0  0  0
    1.2272    0.1695    0.1783 C   0  0  1  0  0  0  0  0  0  0  0  0
    2.6486    0.6384   -0.0402 C   0  0  0  0  0  0  0  0  0  0  0  0
    2.8602    1.7700    0.7100 O   0  0  0  0  0  0  0  0  0  0  0  0
    0.3354    1.1422   -0.2043 O   0  0  0  0  0  0  0  0  0  0  0  0
   -0.9157    0.6775   -0.5453 C   0  0  2  0  0  0  0  0  0  0  0  0
   -1.9775    1.6068   -0.0207 C   0  0  0  0  0  0  0  0  0  0  0  0
   -2.0303    1.8024    1.3487 O   0  0  0  0  0  0  0  0  0  0  0  0
   -2.7794    2.1743   -0.8317 N   0  0  0  0  0  0  0  0  0  0  0  0
   -1.2310   -0.6669    0.0728 C   0  0  2  0  0  0  0  0  0  0  0  0
   -1.2965   -0.5071    1.4530 O   0  0  0  0  0  0  0  0  0  0  0  0
   -0.0172   -2.4263    0.5047 H   0  0  0  0  0  0  0  0  0  0  0  0
   -1.6868   -2.3936   -1.4178 H   0  0  0  0  0  0  0  0  0  0  0  0
    0.9589   -0.6533   -1.7703 H   0  0  0  0  0  0  0  0  0  0  0  0
    2.0440   -2.3601    0.2409 H   0  0  0  0  0  0  0  0  0  0  0  0
    1.0871   -0.0857    1.2454 H   0  0  0  0  0  0  0  0  0  0  0  0
    3.3069   -0.1672    0.3918 H   0  0  0  0  0  0  0  0  0  0  0  0
    2.8693    0.8081   -1.0961 H   0  0  0  0  0  0  0  0  0  0  0  0
    3.6819    2.2705    0.4377 H   0  0  0  0  0  0  0  0  0  0  0  0
   -0.9829    0.6043   -1.6350 H   0  0  0  0  0  0  0  0  0  0  0  0
   -2.9215    2.0893    1.7691 H   0  0  0  0  0  0  0  0  0  0  0  0
   -3.5396    2.8243   -0.5937 H   0  0  0  0  0  0  0  0  0  0  0  0
   -2.2490   -0.9401   -0.2684 H   0  0  0  0  0  0  0  0  0  0  0  0
   -1.6390   -1.3132    1.9019 H   0  0  0  0  0  0  0  0  0  0  0  0
  1  2  1  0
  1  3  1  0
  3  4  1  0
  3  5  1  0
  5  6  1  0
  6  7  1  0
  5  8  1  0
  8  9  1  0
  9 10  1  0
 10 11  1  0
 10 12  2  3
  9 13  1  0
 13 14  1  0
 13  1  1  0
  1 15  1  1
  2 16  1  0
  3 17  1  6
  4 18  1  0
  5 19  1  1
  6 20  1  0
  6 21  1  0
  7 22  1  0
  9 23  1  6
 11 24  1  0
 12 25  1  0
 13 26  1  6
 14 27  1  0
M  END
$$$$
