
     RDKit          3D

 39 42  0  0  0  0  0  0  0  0999 V2000
    1.1694    0.4210   -1.5373 C   0  0  2  0  0  0  0  0  0  0  0  0
   -0.0758   -0.1495   -2.1567 C   0  0  0  0  0  0  0  0  0  0  0  0
   -0.9509   -0.8121   -1.1530 C   0  0  0  0  0  0  0  0  0  0  0  0
   -0.7424   -0.5754    0.1797 C   0  0  0  0  0  0  0  0  0  0  0  0
   -1.5733   -1.2071    1.0825 C   0  0  0  0  0  0  0  0  0  0  0  0
   -2.5895   -2.0561    0.6661 C   0  0  0  0  0  0  0  0  0  0  0  0
   -2.7563   -2.2607   -0.7018 C   0  0  0  0  0  0  0  0  0  0  0  0
   -3.7489   -3.0947   -1.2053 O   0  0  0  0  0  0  0  0  0  0  0  0
   -1.9297   -1.6309   -1.5753 N   0  0  0  0  0  0  0  0  0  0  0  0
    0.3000    0.3014    0.7247 C   0  0  2  0  0  0  0  0  0  0  0  0
    1.4356   -0.5310    1.2893 C   0  0  0  0  0  0  0  0  0  0  0  0
    2.3748   -0.8848    0.1637 C   0  0  0  0  0  0  0  0  0  0  0  0
    3.7057   -1.4288    0.5982 C   0  0  0  0  0  0  0  0  0  0  0  0
    2.0351   -0.7214   -1.1133 C   0  0  0  0  0  0  0  0  0  0  0  0
   -0.2479    1.0987    1.7983 N   0  0  0  0  0  0  0  0  0  0  0  0
   -1.3678    1.8883    1.4068 C   0  0  0  0  0  0  0  0  0  0  0  0
   -1.2642    2.4427    0.0094 C   0  0  0  0  0  0  0  0  0  0  0  0
    0.1369    2.4889   -0.5163 C   0  0  0  0  0  0  0  0  0  0  0  0
    0.9054    1.2243   -0.2951 C   0  0  2  0  0  0  0  0  0  0  0  0
    1.6575    1.0814   -2.2745 H   0  0  0  0  0  0  0  0  0  0  0  0
    0.2644   -0.9688   -2.8524 H   0  0  0  0  0  0  0  0  0  0  0  0
   -0.6317    0.5515   -2.7955 H   0  0  0  0  0  0  0  0  0  0  0  0
   -1.4932   -1.0883    2.1497 H   0  0  0  0  0  0  0  0  0  0  0  0
   -3.2740   -2.5809    1.3225 H   0  0  0  0  0  0  0  0  0  0  0  0
   -4.6853   -2.7004   -1.2188 H   0  0  0  0  0  0  0  0  0  0  0  0
    1.1230   -1.3991    1.8621 H   0  0  0  0  0  0  0  0  0  0  0  0
    2.0329    0.1977    1.9091 H   0  0  0  0  0  0  0  0  0  0  0  0
    4.1736   -2.0605   -0.1834 H   0  0  0  0  0  0  0  0  0  0  0  0
    3.5795   -2.0111    1.5299 H   0  0  0  0  0  0  0  0  0  0  0  0
    4.3262   -0.5423    0.8696 H   0  0  0  0  0  0  0  0  0  0  0  0
    2.4486   -1.4916   -1.7856 H   0  0  0  0  0  0  0  0  0  0  0  0
    0.4475    1.5353    2.4078 H   0  0  0  0  0  0  0  0  0  0  0  0
   -1.5585    2.6595    2.1771 H   0  0  0  0  0  0  0  0  0  0  0  0
   -2.2754    1.2215    1.4122 H   0  0  0  0  0  0  0  0  0  0  0  0
   -1.6177    3.5066    0.0781 H   0  0  0  0  0  0  0  0  0  0  0  0
   -1.9597    1.9756   -0.7164 H   0  0  0  0  0  0  0  0  0  0  0  0
    0.0794    2.7309   -1.5964 H   0  0  0  0  0  0  0  0  0  0  0  0
    0.6295    3.3593   -0.0316 H   0  0  0  0  0  0  0  0  0  0  0  0
    1.9173    1.5110    0.0719 H   0  0  0  0  0  0  0  0  0  0  0  0
  1  2  1  0
  2  3  1  0
  3  4  2  0
  4  5  1  0
  5  6  2  0
  6  7  1  0
  7  8  1  0
  7  9  2  0
  4 10  1  0
 10 11  1  0
 11 12  1  0
 12 13  1  0
 12 14  2  0
 10 15  1  1
 15 16  1  0
 16 17  1  0
 17 18  1  0
 18 19  1  0
 14  1  1  0
 19  1  1  0
  9  3  1  0
 19 10  1  0
  1 20  1  6
  2 21  1  0
  2 22  1  0
  5 23  1  0
  6 24  1  0
  8 25  1  0
 11 26  1  0
 11 27  1  0
 13 28  1  0
 13 29  1  0
 13 30  1  0
 14 31  1  0
 15 32  1  0
 16 33  1  0
 16 34  1  0
 17 35  1  0
 17 36  1  0
 18 37  1  0
 18 38  1  0
 19 39  1  1
M  END
$$$$
