@<TRIPOS>MOLECULE
*****
 39 42 0 0 0
SMALL
GASTEIGER

@<TRIPOS>ATOM
      1 C           1.1694    0.4210   -1.5373 C.3     1  UNL1       -0.0124
      2 C          -0.0758   -0.1495   -2.1567 C.3     1  UNL1       -0.0034
      3 C          -0.9509   -0.8121   -1.1530 C.ar    1  UNL1        0.0506
      4 C          -0.7424   -0.5754    0.1797 C.ar    1  UNL1       -0.0053
      5 C          -1.5733   -1.2071    1.0825 C.ar    1  UNL1       -0.0501
      6 C          -2.5895   -2.0561    0.6661 C.ar    1  UNL1        0.0002
      7 C          -2.7563   -2.2607   -0.7018 C.ar    1  UNL1        0.2125
      8 O          -3.7489   -3.0947   -1.2053 O.3     1  UNL1       -0.4924
      9 N          -1.9297   -1.6309   -1.5753 N.ar    1  UNL1       -0.2177
     10 C           0.3000    0.3014    0.7247 C.3     1  UNL1        0.0532
     11 C           1.4356   -0.5310    1.2893 C.3     1  UNL1       -0.0092
     12 C           2.3748   -0.8848    0.1637 C.2     1  UNL1       -0.0742
     13 C           3.7057   -1.4288    0.5982 C.3     1  UNL1       -0.0437
     14 C           2.0351   -0.7214   -1.1133 C.2     1  UNL1       -0.0812
     15 N          -0.2479    1.0987    1.7983 N.3     1  UNL1       -0.3062
     16 C          -1.3678    1.8883    1.4068 C.3     1  UNL1       -0.0033
     17 C          -1.2642    2.4427    0.0094 C.3     1  UNL1       -0.0401
     18 C           0.1369    2.4889   -0.5163 C.3     1  UNL1       -0.0465
     19 C           0.9054    1.2243   -0.2951 C.3     1  UNL1       -0.0116
     20 H           1.6575    1.0814   -2.2745 H       1  UNL1        0.0350
     21 H           0.2644   -0.9688   -2.8524 H       1  UNL1        0.0334
     22 H          -0.6317    0.5515   -2.7955 H       1  UNL1        0.0334
     23 H          -1.4932   -1.0883    2.1497 H       1  UNL1        0.0623
     24 H          -3.2740   -2.5809    1.3225 H       1  UNL1        0.0671
     25 H          -4.6853   -2.7004   -1.2188 H       1  UNL1        0.2937
     26 H           1.1230   -1.3991    1.8621 H       1  UNL1        0.0331
     27 H           2.0329    0.1977    1.9091 H       1  UNL1        0.0331
     28 H           4.1736   -2.0605   -0.1834 H       1  UNL1        0.0274
     29 H           3.5795   -2.0111    1.5299 H       1  UNL1        0.0274
     30 H           4.3262   -0.5423    0.8696 H       1  UNL1        0.0274
     31 H           2.4486   -1.4916   -1.7856 H       1  UNL1        0.0575
     32 H           0.4475    1.5353    2.4078 H       1  UNL1        0.1228
     33 H          -1.5585    2.6595    2.1771 H       1  UNL1        0.0424
     34 H          -2.2754    1.2215    1.4122 H       1  UNL1        0.0424
     35 H          -1.6177    3.5066    0.0781 H       1  UNL1        0.0278
     36 H          -1.9597    1.9756   -0.7164 H       1  UNL1        0.0278
     37 H           0.0794    2.7309   -1.5964 H       1  UNL1        0.0269
     38 H           0.6295    3.3593   -0.0316 H       1  UNL1        0.0269
     39 H           1.9173    1.5110    0.0719 H       1  UNL1        0.0328
@<TRIPOS>BOND
     1     1     2    1
     2     2     3    1
     3     3     4   ar
     4     4     5   ar
     5     5     6   ar
     6     6     7   ar
     7     7     8    1
     8     7     9   ar
     9     4    10    1
    10    10    11    1
    11    11    12    1
    12    12    13    1
    13    12    14    2
    14    10    15    1
    15    15    16    1
    16    16    17    1
    17    17    18    1
    18    18    19    1
    19    14     1    1
    20    19     1    1
    21     9     3   ar
    22    19    10    1
    23     1    20    1
    24     2    21    1
    25     2    22    1
    26     5    23    1
    27     6    24    1
    28     8    25    1
    29    11    26    1
    30    11    27    1
    31    13    28    1
    32    13    29    1
    33    13    30    1
    34    14    31    1
    35    15    32    1
    36    16    33    1
    37    16    34    1
    38    17    35    1
    39    17    36    1
    40    18    37    1
    41    18    38    1
    42    19    39    1
