@<TRIPOS>MOLECULE
*****
 35 37 0 0 0
SMALL
GASTEIGER

@<TRIPOS>ATOM
      1 N           4.8809   -1.3448    0.2078 N.3     1  UNL1       -0.3267
      2 C           5.2004    0.0520    0.1020 C.3     1  UNL1        0.0123
      3 C           5.0054    0.7863   -1.1719 C.3     1  UNL1       -0.0289
      4 C           4.1886    1.1199    0.0937 C.3     1  UNL1        0.0008
      5 C           2.7574    0.8762   -0.0778 C.ar    1  UNL1       -0.0426
      6 C           1.8502    1.7790    0.4360 C.ar    1  UNL1       -0.0565
      7 C           0.4871    1.6428    0.3275 C.ar    1  UNL1       -0.0402
      8 C          -0.0040    0.5365   -0.3352 C.ar    1  UNL1        0.0337
      9 N          -1.4053    0.3755   -0.4591 N.am    1  UNL1       -0.2815
     10 C          -2.1401   -0.3249    0.5264 C.2     1  UNL1        0.2483
     11 O          -1.5169   -0.7974    1.5094 O.2     1  UNL1       -0.2699
     12 C          -3.5756   -0.5044    0.4244 C.ar    1  UNL1        0.0370
     13 C          -4.3556   -0.0309   -0.6047 C.ar    1  UNL1       -0.0496
     14 C          -5.7233   -0.2470   -0.6252 C.ar    1  UNL1       -0.0610
     15 C          -6.3727   -0.9384    0.3692 C.ar    1  UNL1       -0.0617
     16 C          -5.6036   -1.4198    1.4087 C.ar    1  UNL1       -0.0610
     17 C          -4.2451   -1.2037    1.4263 C.ar    1  UNL1       -0.0496
     18 C           0.8967   -0.3715   -0.8522 C.ar    1  UNL1       -0.0402
     19 C           2.2455   -0.2276   -0.7395 C.ar    1  UNL1       -0.0565
     20 H           5.1141   -1.8892   -0.6489 H       1  UNL1        0.1185
     21 H           5.2059   -1.7660    1.0809 H       1  UNL1        0.1185
     22 H           6.1685    0.3024    0.6201 H       1  UNL1        0.0464
     23 H           5.7420    1.5800   -1.4764 H       1  UNL1        0.0287
     24 H           4.5060    0.3165   -2.0165 H       1  UNL1        0.0287
     25 H           4.4475    2.0711    0.6103 H       1  UNL1        0.0364
     26 H           2.2025    2.6698    0.9687 H       1  UNL1        0.0621
     27 H          -0.2202    2.3598    0.7358 H       1  UNL1        0.0636
     28 H          -1.8685    0.7856   -1.2900 H       1  UNL1        0.1551
     29 H          -3.8623    0.5245   -1.4115 H       1  UNL1        0.0625
     30 H          -6.3069    0.1364   -1.4448 H       1  UNL1        0.0618
     31 H          -7.4449   -1.1093    0.3557 H       1  UNL1        0.0618
     32 H          -6.0897   -1.9712    2.2106 H       1  UNL1        0.0618
     33 H          -3.6557   -1.5919    2.2559 H       1  UNL1        0.0625
     34 H           0.5187   -1.2539   -1.3805 H       1  UNL1        0.0636
     35 H           2.9728   -0.9221   -1.1353 H       1  UNL1        0.0621
@<TRIPOS>BOND
     1     1     2    1
     2     2     3    1
     3     3     4    1
     4     4     5    1
     5     5     6   ar
     6     6     7   ar
     7     7     8   ar
     8     8     9    1
     9     9    10   am
    10    10    11    2
    11    10    12    1
    12    12    13   ar
    13    13    14   ar
    14    14    15   ar
    15    15    16   ar
    16    16    17   ar
    17     8    18   ar
    18    18    19   ar
    19     4     2    1
    20    19     5   ar
    21    17    12   ar
    22     1    20    1
    23     1    21    1
    24     2    22    1
    25     3    23    1
    26     3    24    1
    27     4    25    1
    28     6    26    1
    29     7    27    1
    30     9    28    1
    31    13    29    1
    32    14    30    1
    33    15    31    1
    34    16    32    1
    35    17    33    1
    36    18    34    1
    37    19    35    1
