@<TRIPOS>MOLECULE
*****
 43 46 0 0 0
SMALL
GASTEIGER

@<TRIPOS>ATOM
      1 C          -5.7544   -0.3214    0.8344 C.3     1  UNL1        0.0309
      2 N          -4.9831    0.5789   -0.0318 N.ar    1  UNL1       -0.2667
      3 N          -5.4137    1.7857   -0.3360 N.ar    1  UNL1       -0.1793
      4 C          -4.5211    2.3775   -1.1308 C.ar    1  UNL1        0.0500
      5 C          -3.4900    1.4842   -1.3224 C.ar    1  UNL1       -0.0162
      6 C          -3.7994    0.3426   -0.6154 C.ar    1  UNL1        0.0721
      7 C          -3.0142   -0.8901   -0.5066 C.ar    1  UNL1        0.0436
      8 C          -3.6810   -2.0855   -0.6397 C.ar    1  UNL1       -0.0307
      9 C          -2.9749   -3.2798   -0.5435 C.ar    1  UNL1        0.0418
     10 CL         -3.7729   -4.8298   -0.7050 Cl      1  UNL1       -0.0835
     11 C          -1.6141   -3.2508   -0.3156 C.ar    1  UNL1       -0.0399
     12 C          -0.9511   -2.0511   -0.1829 C.ar    1  UNL1       -0.0173
     13 C          -1.6493   -0.8702   -0.2784 C.ar    1  UNL1        0.1377
     14 O          -1.0731    0.3606   -0.1614 O.3     1  UNL1       -0.4538
     15 C           0.2144    0.7284    0.0292 C.ar    1  UNL1        0.1495
     16 C           0.4830    1.4313    1.2121 C.ar    1  UNL1        0.0193
     17 C           1.7616    1.8527    1.5025 C.ar    1  UNL1        0.1535
     18 F           2.0313    2.5418    2.6598 F       1  UNL1       -0.2033
     19 C           2.8315    1.6148    0.6672 C.ar    1  UNL1        0.1452
     20 S           4.4285    2.1771    1.0867 S.O2    1  UNL1        0.0767
     21 O           4.3705    3.6606    1.2360 O.2     1  UNL1       -0.1498
     22 O           4.7699    1.5869    2.4266 O.2     1  UNL1       -0.1498
     23 N           5.6009    1.7507   -0.0847 N.pl3   1  UNL1       -0.1923
     24 C           5.9098    0.4090   -0.4078 C.ar    1  UNL1        0.2004
     25 N           6.7912   -0.1332   -1.2946 N.ar    1  UNL1       -0.1248
     26 N           6.8529   -1.3877   -1.3629 N.ar    1  UNL1       -0.1481
     27 C           6.2626   -2.2157   -0.7749 C.ar    1  UNL1        0.0902
     28 S           5.1958   -1.0853    0.3009 S.2     1  UNL1       -0.0376
     29 C           2.5460    0.9232   -0.4895 C.ar    1  UNL1       -0.0103
     30 C           1.2627    0.4876   -0.8046 C.ar    1  UNL1        0.0852
     31 CL          0.9409   -0.3739   -2.2986 Cl      1  UNL1       -0.0797
     32 H          -5.1270   -1.0837    1.3070 H       1  UNL1        0.0473
     33 H          -6.5460   -0.7512    0.1668 H       1  UNL1        0.0473
     34 H          -6.2767    0.2910    1.6056 H       1  UNL1        0.0473
     35 H          -4.5493    3.3741   -1.5736 H       1  UNL1        0.0848
     36 H          -2.5968    1.6399   -1.9166 H       1  UNL1        0.0654
     37 H          -4.7402   -2.1312   -0.8173 H       1  UNL1        0.0640
     38 H          -1.0622   -4.1895   -0.2405 H       1  UNL1        0.0633
     39 H           0.1349   -2.0395    0.0065 H       1  UNL1        0.0655
     40 H          -0.3206    1.6561    1.9236 H       1  UNL1        0.0684
     41 H           6.1038    2.5475   -0.5759 H       1  UNL1        0.1758
     42 H           6.0962   -3.3365   -0.6137 H       1  UNL1        0.0927
     43 H           3.3228    0.7042   -1.1856 H       1  UNL1        0.0654
@<TRIPOS>BOND
     1     1     2    1
     2     2     3   ar
     3     3     4   ar
     4     4     5   ar
     5     5     6   ar
     6     6     7    1
     7     7     8   ar
     8     8     9   ar
     9     9    10    1
    10     9    11   ar
    11    11    12   ar
    12    12    13   ar
    13    13    14    1
    14    14    15    1
    15    15    16   ar
    16    16    17   ar
    17    17    18    1
    18    17    19   ar
    19    19    20    1
    20    20    21    2
    21    20    22    2
    22    20    23    1
    23    23    24    1
    24    24    25   ar
    25    25    26   ar
    26    26    27   ar
    27    27    28   ar
    28    19    29   ar
    29    29    30   ar
    30    30    31    1
    31     6     2   ar
    32    13     7   ar
    33    30    15   ar
    34    28    24   ar
    35     1    32    1
    36     1    33    1
    37     1    34    1
    38     4    35    1
    39     5    36    1
    40     8    37    1
    41    11    38    1
    42    12    39    1
    43    16    40    1
    44    23    41    1
    45    27    42    1
    46    29    43    1
