
     RDKit          3D

 43 46  0  0  0  0  0  0  0  0999 V2000
   -5.7544   -0.3214    0.8344 C   0  0  0  0  0  0  0  0  0  0  0  0
   -4.9831    0.5789   -0.0318 N   0  0  0  0  0  0  0  0  0  0  0  0
   -5.4137    1.7857   -0.3360 N   0  0  0  0  0  0  0  0  0  0  0  0
   -4.5211    2.3775   -1.1308 C   0  0  0  0  0  0  0  0  0  0  0  0
   -3.4900    1.4842   -1.3224 C   0  0  0  0  0  0  0  0  0  0  0  0
   -3.7994    0.3426   -0.6154 C   0  0  0  0  0  0  0  0  0  0  0  0
   -3.0142   -0.8901   -0.5066 C   0  0  0  0  0  0  0  0  0  0  0  0
   -3.6810   -2.0855   -0.6397 C   0  0  0  0  0  0  0  0  0  0  0  0
   -2.9749   -3.2798   -0.5435 C   0  0  0  0  0  0  0  0  0  0  0  0
   -3.7729   -4.8298   -0.7050 Cl  0  0  0  0  0  0  0  0  0  0  0  0
   -1.6141   -3.2508   -0.3156 C   0  0  0  0  0  0  0  0  0  0  0  0
   -0.9511   -2.0511   -0.1829 C   0  0  0  0  0  0  0  0  0  0  0  0
   -1.6493   -0.8702   -0.2784 C   0  0  0  0  0  0  0  0  0  0  0  0
   -1.0731    0.3606   -0.1614 O   0  0  0  0  0  0  0  0  0  0  0  0
    0.2144    0.7284    0.0292 C   0  0  0  0  0  0  0  0  0  0  0  0
    0.4830    1.4313    1.2121 C   0  0  0  0  0  0  0  0  0  0  0  0
    1.7616    1.8527    1.5025 C   0  0  0  0  0  0  0  0  0  0  0  0
    2.0313    2.5418    2.6598 F   0  0  0  0  0  0  0  0  0  0  0  0
    2.8315    1.6148    0.6672 C   0  0  0  0  0  0  0  0  0  0  0  0
    4.4285    2.1771    1.0867 S   0  0  0  0  0  6  0  0  0  0  0  0
    4.3705    3.6606    1.2360 O   0  0  0  0  0  0  0  0  0  0  0  0
    4.7699    1.5869    2.4266 O   0  0  0  0  0  0  0  0  0  0  0  0
    5.6009    1.7507   -0.0847 N   0  0  0  0  0  0  0  0  0  0  0  0
    5.9098    0.4090   -0.4078 C   0  0  0  0  0  0  0  0  0  0  0  0
    6.7912   -0.1332   -1.2946 N   0  0  0  0  0  0  0  0  0  0  0  0
    6.8529   -1.3877   -1.3629 N   0  0  0  0  0  0  0  0  0  0  0  0
    6.2626   -2.2157   -0.7749 C   0  0  0  0  0  0  0  0  0  0  0  0
    5.1958   -1.0853    0.3009 S   0  0  0  0  0  0  0  0  0  0  0  0
    2.5460    0.9232   -0.4895 C   0  0  0  0  0  0  0  0  0  0  0  0
    1.2627    0.4876   -0.8046 C   0  0  0  0  0  0  0  0  0  0  0  0
    0.9409   -0.3739   -2.2986 Cl  0  0  0  0  0  0  0  0  0  0  0  0
   -5.1270   -1.0837    1.3070 H   0  0  0  0  0  0  0  0  0  0  0  0
   -6.5460   -0.7512    0.1668 H   0  0  0  0  0  0  0  0  0  0  0  0
   -6.2767    0.2910    1.6056 H   0  0  0  0  0  0  0  0  0  0  0  0
   -4.5493    3.3741   -1.5736 H   0  0  0  0  0  0  0  0  0  0  0  0
   -2.5968    1.6399   -1.9166 H   0  0  0  0  0  0  0  0  0  0  0  0
   -4.7402   -2.1312   -0.8173 H   0  0  0  0  0  0  0  0  0  0  0  0
   -1.0622   -4.1895   -0.2405 H   0  0  0  0  0  0  0  0  0  0  0  0
    0.1349   -2.0395    0.0065 H   0  0  0  0  0  0  0  0  0  0  0  0
   -0.3206    1.6561    1.9236 H   0  0  0  0  0  0  0  0  0  0  0  0
    6.1038    2.5475   -0.5759 H   0  0  0  0  0  0  0  0  0  0  0  0
    6.0962   -3.3365   -0.6137 H   0  0  0  0  0  0  0  0  0  0  0  0
    3.3228    0.7042   -1.1856 H   0  0  0  0  0  0  0  0  0  0  0  0
  1  2  1  0
  2  3  1  0
  3  4  2  0
  4  5  1  0
  5  6  2  0
  6  7  1  0
  7  8  2  0
  8  9  1  0
  9 10  1  0
  9 11  2  0
 11 12  1  0
 12 13  2  0
 13 14  1  0
 14 15  1  0
 15 16  2  0
 16 17  1  0
 17 18  1  0
 17 19  2  0
 19 20  1  0
 20 21  2  0
 20 22  2  0
 20 23  1  0
 23 24  1  0
 24 25  2  0
 25 26  1  0
 26 27  2  0
 27 28  1  0
 19 29  1  0
 29 30  2  0
 30 31  1  0
  6  2  1  0
 13  7  1  0
 30 15  1  0
 28 24  1  0
  1 32  1  0
  1 33  1  0
  1 34  1  0
  4 35  1  0
  5 36  1  0
  8 37  1  0
 11 38  1  0
 12 39  1  0
 16 40  1  0
 23 41  1  0
 27 42  1  0
 29 43  1  0
M  END
$$$$
