@<TRIPOS>MOLECULE
*****
 75 80 0 0 0
SMALL
GASTEIGER

@<TRIPOS>ATOM
      1 C          -4.7374   -3.7346   -1.4209 C.3     1  UNL1        0.0032
      2 N          -5.6992   -3.4325   -0.3667 N.am    1  UNL1       -0.3024
      3 C          -7.0918   -3.8174   -0.5187 C.3     1  UNL1        0.0032
      4 C          -5.2664   -2.7436    0.8134 C.2     1  UNL1        0.2630
      5 O          -6.1179   -2.5137    1.6970 O.2     1  UNL1       -0.2684
      6 C          -3.8461   -2.3305    0.9417 C.ar    1  UNL1        0.1113
      7 C          -2.7592   -3.1197    1.2308 C.ar    1  UNL1       -0.0206
      8 C          -1.6548   -2.2824    1.2277 C.ar    1  UNL1        0.0382
      9 C          -0.3184   -2.5639    1.4491 C.ar    1  UNL1        0.0419
     10 N           0.5425   -1.5340    1.3685 N.ar    1  UNL1       -0.2219
     11 C           0.1565   -0.2809    1.0878 C.ar    1  UNL1        0.2224
     12 N           1.0836    0.7719    0.9743 N.pl3   1  UNL1       -0.2685
     13 C           2.3266    0.5821    0.2775 C.ar    1  UNL1        0.1250
     14 C           2.6781   -0.5863   -0.3521 C.ar    1  UNL1       -0.0208
     15 C           3.8778   -0.7547   -1.0084 C.ar    1  UNL1       -0.0449
     16 C           4.7473    0.3487   -1.0052 C.ar    1  UNL1        0.0551
     17 C           6.0241    0.2107   -1.6915 C.2     1  UNL1        0.2482
     18 O           5.9691   -0.1445   -2.9083 O.2     1  UNL1       -0.2699
     19 N           7.2847    0.4388   -1.0984 N.am    1  UNL1       -0.2945
     20 C           8.5189    0.2690   -1.8194 C.3     1  UNL1        0.0304
     21 C           9.5308   -0.3736   -0.8882 C.3     1  UNL1        0.0237
     22 C          10.3383    0.6970   -0.1704 C.3     1  UNL1       -0.0346
     23 C           9.6554    0.8448    1.1667 C.3     1  UNL1       -0.0346
     24 C           8.4067    0.0276    1.0268 C.3     1  UNL1        0.0237
     25 C           7.3604    0.8647    0.3077 C.3     1  UNL1        0.0304
     26 N           8.8103   -1.0609    0.1589 N.3     1  UNL1       -0.3075
     27 C           4.3914    1.5094   -0.3753 C.ar    1  UNL1        0.0418
     28 N           3.2112    1.6215    0.2482 N.ar    1  UNL1       -0.2394
     29 N          -1.1467   -0.0271    0.8772 N.ar    1  UNL1       -0.1958
     30 C          -2.0767   -1.0088    0.9405 C.ar    1  UNL1        0.1509
     31 N          -3.3905   -1.0703    0.7762 N.ar    1  UNL1       -0.2893
     32 C          -4.2631   -0.0011    0.4705 C.ar    1  UNL1        0.0487
     33 C          -4.3742    1.0133    1.4012 C.ar    1  UNL1       -0.0375
     34 C          -5.2278    2.0629    1.1820 C.ar    1  UNL1       -0.0551
     35 C          -5.9826    2.1149    0.0303 C.ar    1  UNL1       -0.0279
     36 C          -6.9052    3.2414   -0.1556 C.3     1  UNL1        0.0766
     37 C          -6.9017    4.1712    1.0442 C.3     1  UNL1       -0.0428
     38 C          -8.3111    2.6911   -0.3112 C.3     1  UNL1       -0.0428
     39 C          -6.5842    4.0049   -1.3539 C.1     1  UNL1        0.0734
     40 N          -6.3350    4.5853   -2.2958 N.1     1  UNL1       -0.1957
     41 C          -5.8733    1.1024   -0.9044 C.ar    1  UNL1       -0.0551
     42 C          -5.0104    0.0369   -0.6876 C.ar    1  UNL1       -0.0375
     43 H          -4.2890   -4.7586   -1.2489 H       1  UNL1        0.0428
     44 H          -3.9321   -2.9971   -1.5008 H       1  UNL1        0.0428
     45 H          -5.3315   -3.8492   -2.3594 H       1  UNL1        0.0428
     46 H          -7.7160   -2.8802   -0.5353 H       1  UNL1        0.0428
     47 H          -7.2027   -4.2638   -1.5277 H       1  UNL1        0.0428
     48 H          -7.3953   -4.4951    0.2895 H       1  UNL1        0.0428
     49 H          -2.7697   -4.1852    1.4215 H       1  UNL1        0.0647
     50 H          -0.0442   -3.5790    1.6722 H       1  UNL1        0.0838
     51 H           0.8790    1.7077    1.4014 H       1  UNL1        0.1564
     52 H           1.9894   -1.4223   -0.3499 H       1  UNL1        0.0652
     53 H           4.1669   -1.6583   -1.5035 H       1  UNL1        0.0627
     54 H           8.3420   -0.4201   -2.6655 H       1  UNL1        0.0480
     55 H           8.9415    1.2494   -2.1593 H       1  UNL1        0.0480
     56 H          10.2168   -1.0088   -1.4645 H       1  UNL1        0.0476
     57 H          11.3868    0.4128   -0.0451 H       1  UNL1        0.0281
     58 H          10.2169    1.6582   -0.7369 H       1  UNL1        0.0281
     59 H           9.4393    1.9138    1.4050 H       1  UNL1        0.0281
     60 H          10.2421    0.3676    1.9974 H       1  UNL1        0.0281
     61 H           8.0352   -0.3492    2.0056 H       1  UNL1        0.0476
     62 H           6.4072    0.7423    0.8416 H       1  UNL1        0.0480
     63 H           7.6096    1.9436    0.2924 H       1  UNL1        0.0480
     64 H           7.9356   -1.5103   -0.2344 H       1  UNL1        0.1226
     65 H           5.1018    2.3667   -0.3900 H       1  UNL1        0.0838
     66 H          -3.7800    0.9838    2.3170 H       1  UNL1        0.0638
     67 H          -5.2776    2.8371    1.9457 H       1  UNL1        0.0621
     68 H          -5.9053    4.6366    1.2032 H       1  UNL1        0.0248
     69 H          -7.6279    4.9846    0.7943 H       1  UNL1        0.0248
     70 H          -7.2607    3.6922    1.9548 H       1  UNL1        0.0248
     71 H          -9.0065    3.4003    0.1566 H       1  UNL1        0.0248
     72 H          -8.4259    1.7178    0.2388 H       1  UNL1        0.0248
     73 H          -8.5742    2.5093   -1.3576 H       1  UNL1        0.0248
     74 H          -6.4770    1.1656   -1.8063 H       1  UNL1        0.0621
     75 H          -4.9345   -0.7419   -1.4184 H       1  UNL1        0.0638
@<TRIPOS>BOND
     1     1     2    1
     2     2     3    1
     3     2     4   am
     4     4     5    2
     5     4     6    1
     6     6     7   ar
     7     7     8   ar
     8     8     9   ar
     9     9    10   ar
    10    10    11   ar
    11    11    12    1
    12    12    13    1
    13    13    14   ar
    14    14    15   ar
    15    15    16   ar
    16    16    17    1
    17    17    18    2
    18    17    19   am
    19    19    20    1
    20    20    21    1
    21    21    22    1
    22    22    23    1
    23    23    24    1
    24    24    25    1
    25    24    26    1
    26    16    27   ar
    27    27    28   ar
    28    11    29   ar
    29    29    30   ar
    30    30    31   ar
    31    31    32    1
    32    32    33   ar
    33    33    34   ar
    34    34    35   ar
    35    35    36    1
    36    36    37    1
    37    36    38    1
    38    36    39    1
    39    39    40    3
    40    35    41   ar
    41    41    42   ar
    42    31     6   ar
    43    42    32   ar
    44    30     8   ar
    45    28    13   ar
    46    25    19    1
    47    26    21    1
    48     1    43    1
    49     1    44    1
    50     1    45    1
    51     3    46    1
    52     3    47    1
    53     3    48    1
    54     7    49    1
    55     9    50    1
    56    12    51    1
    57    14    52    1
    58    15    53    1
    59    20    54    1
    60    20    55    1
    61    21    56    1
    62    22    57    1
    63    22    58    1
    64    23    59    1
    65    23    60    1
    66    24    61    1
    67    25    62    1
    68    25    63    1
    69    26    64    1
    70    27    65    1
    71    33    66    1
    72    34    67    1
    73    37    68    1
    74    37    69    1
    75    37    70    1
    76    38    71    1
    77    38    72    1
    78    38    73    1
    79    41    74    1
    80    42    75    1
