@<TRIPOS>MOLECULE
*****
 24 25 0 0 0
SMALL
GASTEIGER

@<TRIPOS>ATOM
      1 C          -1.3224   -2.5177   -0.2939 C.3     1  UNL1       -0.0185
      2 C          -1.8486   -1.1245   -0.2268 C.ar    1  UNL1        0.0885
      3 N          -3.1278   -0.7195   -0.2812 N.ar    1  UNL1       -0.0827
      4 O          -3.1293    0.5686   -0.1873 O.2     1  UNL1       -0.3591
      5 C          -1.9209    1.0468   -0.0731 C.ar    1  UNL1        0.1421
      6 C          -1.5540    2.4748    0.0552 C.3     1  UNL1       -0.0031
      7 C          -1.0712   -0.0155   -0.0948 C.ar    1  UNL1        0.0466
      8 C           0.3953    0.0125    0.0035 C.ar    1  UNL1       -0.0128
      9 C           1.1992    0.1120   -1.1191 C.ar    1  UNL1       -0.0539
     10 C           2.5696    0.1343   -0.9738 C.ar    1  UNL1       -0.0612
     11 C           3.1397    0.0588    0.2728 C.ar    1  UNL1       -0.0617
     12 C           2.3638   -0.0408    1.4062 C.ar    1  UNL1       -0.0612
     13 C           0.9984   -0.0616    1.2414 C.ar    1  UNL1       -0.0539
     14 H          -2.1662   -3.2449   -0.2957 H       1  UNL1        0.0294
     15 H          -0.6912   -2.7751    0.5781 H       1  UNL1        0.0294
     16 H          -0.7652   -2.7070   -1.2381 H       1  UNL1        0.0294
     17 H          -0.8563    2.6497    0.8921 H       1  UNL1        0.0309
     18 H          -1.0738    2.8485   -0.8715 H       1  UNL1        0.0309
     19 H          -2.4663    3.0833    0.2302 H       1  UNL1        0.0309
     20 H           0.7043    0.1688   -2.0787 H       1  UNL1        0.0624
     21 H           3.1786    0.2124   -1.8613 H       1  UNL1        0.0618
     22 H           4.2161    0.0774    0.3719 H       1  UNL1        0.0618
     23 H           2.8312   -0.1007    2.4000 H       1  UNL1        0.0618
     24 H           0.3970   -0.1406    2.1436 H       1  UNL1        0.0624
@<TRIPOS>BOND
     1     1     2    1
     2     2     3   ar
     3     3     4   ar
     4     4     5   ar
     5     5     6    1
     6     5     7   ar
     7     7     8    1
     8     8     9   ar
     9     9    10   ar
    10    10    11   ar
    11    11    12   ar
    12    12    13   ar
    13     7     2   ar
    14    13     8   ar
    15     1    14    1
    16     1    15    1
    17     1    16    1
    18     6    17    1
    19     6    18    1
    20     6    19    1
    21     9    20    1
    22    10    21    1
    23    11    22    1
    24    12    23    1
    25    13    24    1
