
     RDKit          3D

 24 25  0  0  0  0  0  0  0  0999 V2000
   -1.3224   -2.5177   -0.2939 C   0  0  0  0  0  0  0  0  0  0  0  0
   -1.8486   -1.1245   -0.2268 C   0  0  0  0  0  0  0  0  0  0  0  0
   -3.1278   -0.7195   -0.2812 N   0  0  0  0  0  0  0  0  0  0  0  0
   -3.1293    0.5686   -0.1873 O   0  0  0  0  0  0  0  0  0  0  0  0
   -1.9209    1.0468   -0.0731 C   0  0  0  0  0  0  0  0  0  0  0  0
   -1.5540    2.4748    0.0552 C   0  0  0  0  0  0  0  0  0  0  0  0
   -1.0712   -0.0155   -0.0948 C   0  0  0  0  0  0  0  0  0  0  0  0
    0.3953    0.0125    0.0035 C   0  0  0  0  0  0  0  0  0  0  0  0
    1.1992    0.1120   -1.1191 C   0  0  0  0  0  0  0  0  0  0  0  0
    2.5696    0.1343   -0.9738 C   0  0  0  0  0  0  0  0  0  0  0  0
    3.1397    0.0588    0.2728 C   0  0  0  0  0  0  0  0  0  0  0  0
    2.3638   -0.0408    1.4062 C   0  0  0  0  0  0  0  0  0  0  0  0
    0.9984   -0.0616    1.2414 C   0  0  0  0  0  0  0  0  0  0  0  0
   -2.1662   -3.2449   -0.2957 H   0  0  0  0  0  0  0  0  0  0  0  0
   -0.6912   -2.7751    0.5781 H   0  0  0  0  0  0  0  0  0  0  0  0
   -0.7652   -2.7070   -1.2381 H   0  0  0  0  0  0  0  0  0  0  0  0
   -0.8563    2.6497    0.8921 H   0  0  0  0  0  0  0  0  0  0  0  0
   -1.0738    2.8485   -0.8715 H   0  0  0  0  0  0  0  0  0  0  0  0
   -2.4663    3.0833    0.2302 H   0  0  0  0  0  0  0  0  0  0  0  0
    0.7043    0.1688   -2.0787 H   0  0  0  0  0  0  0  0  0  0  0  0
    3.1786    0.2124   -1.8613 H   0  0  0  0  0  0  0  0  0  0  0  0
    4.2161    0.0774    0.3719 H   0  0  0  0  0  0  0  0  0  0  0  0
    2.8312   -0.1007    2.4000 H   0  0  0  0  0  0  0  0  0  0  0  0
    0.3970   -0.1406    2.1436 H   0  0  0  0  0  0  0  0  0  0  0  0
  1  2  1  0
  2  3  2  0
  3  4  1  0
  4  5  1  0
  5  6  1  0
  5  7  2  0
  7  8  1  0
  8  9  2  0
  9 10  1  0
 10 11  2  0
 11 12  1  0
 12 13  2  0
  7  2  1  0
 13  8  1  0
  1 14  1  0
  1 15  1  0
  1 16  1  0
  6 17  1  0
  6 18  1  0
  6 19  1  0
  9 20  1  0
 10 21  1  0
 11 22  1  0
 12 23  1  0
 13 24  1  0
M  END
$$$$
