@<TRIPOS>MOLECULE
*****
 37 40 0 0 0
SMALL
GASTEIGER

@<TRIPOS>ATOM
      1 C          -4.6743    1.0253   -0.0617 C.3     1  UNL1       -0.0428
      2 C          -3.3172    1.6915    0.0254 C.3     1  UNL1        0.0493
      3 C          -3.0053    2.4607   -1.2499 C.3     1  UNL1       -0.0428
      4 N          -2.2659    0.6992    0.1706 N.ar    1  UNL1       -0.2431
      5 N          -0.9956    0.9037    0.0285 N.ar    1  UNL1       -0.1667
      6 C          -0.2533   -0.2175    0.2261 C.ar    1  UNL1        0.1267
      7 C           1.1958   -0.3033    0.1362 C.ar    1  UNL1        0.1342
      8 C           2.0441    0.7726   -0.1710 C.ar    1  UNL1        0.0101
      9 C           3.3048    0.2426   -0.1463 C.ar    1  UNL1        0.1410
     10 C           4.5596    0.9527   -0.4015 C.3     1  UNL1        0.0199
     11 C           5.6874    0.6361    0.6332 C.3     1  UNL1       -0.0426
     12 C           5.7949    0.2482   -0.8078 C.3     1  UNL1       -0.0426
     13 O           3.2434   -1.0470    0.1499 O.2     1  UNL1       -0.3587
     14 N           1.9900   -1.3452    0.3119 N.ar    1  UNL1       -0.0764
     15 C          -1.1484   -1.2133    0.5188 C.ar    1  UNL1        0.0875
     16 C          -1.0425   -2.5518    0.8135 C.ar    1  UNL1        0.1308
     17 N           0.2025   -3.2030    0.8669 N.pl3   1  UNL1       -0.3425
     18 N          -2.1886   -3.2439    1.0565 N.ar    1  UNL1       -0.2204
     19 C          -3.3801   -2.6315    1.0078 C.ar    1  UNL1        0.1204
     20 N          -3.5089   -1.3258    0.7223 N.ar    1  UNL1       -0.2161
     21 C          -2.4164   -0.6061    0.4771 C.ar    1  UNL1        0.1641
     22 H          -4.9075    0.6102    0.9272 H       1  UNL1        0.0250
     23 H          -5.4105    1.8650   -0.2189 H       1  UNL1        0.0250
     24 H          -4.7706    0.3310   -0.8969 H       1  UNL1        0.0250
     25 H          -3.3499    2.4106    0.8545 H       1  UNL1        0.0540
     26 H          -3.2802    1.8400   -2.1228 H       1  UNL1        0.0250
     27 H          -3.5332    3.4265   -1.2070 H       1  UNL1        0.0250
     28 H          -1.8954    2.6509   -1.2129 H       1  UNL1        0.0250
     29 H           1.6880    1.7495   -0.3650 H       1  UNL1        0.0675
     30 H           4.4788    2.0226   -0.6375 H       1  UNL1        0.0380
     31 H           6.2471    1.4945    1.0273 H       1  UNL1        0.0272
     32 H           5.4789   -0.1751    1.3498 H       1  UNL1        0.0272
     33 H           5.8097   -0.8229   -1.0409 H       1  UNL1        0.0272
     34 H           6.5289    0.8381   -1.4014 H       1  UNL1        0.0272
     35 H           0.5650   -3.6281   -0.0078 H       1  UNL1        0.1437
     36 H           0.7777   -3.2982    1.7381 H       1  UNL1        0.1437
     37 H          -4.2530   -3.2588    1.2155 H       1  UNL1        0.1048
@<TRIPOS>BOND
     1     1     2    1
     2     2     3    1
     3     2     4    1
     4     4     5   ar
     5     5     6   ar
     6     6     7    1
     7     7     8   ar
     8     8     9   ar
     9     9    10    1
    10    10    11    1
    11    11    12    1
    12     9    13   ar
    13    13    14   ar
    14     6    15   ar
    15    15    16   ar
    16    16    17    1
    17    16    18   ar
    18    18    19   ar
    19    19    20   ar
    20    20    21   ar
    21    21     4   ar
    22    14     7   ar
    23    21    15   ar
    24    12    10    1
    25     1    22    1
    26     1    23    1
    27     1    24    1
    28     2    25    1
    29     3    26    1
    30     3    27    1
    31     3    28    1
    32     8    29    1
    33    10    30    1
    34    11    31    1
    35    11    32    1
    36    12    33    1
    37    12    34    1
    38    17    35    1
    39    17    36    1
    40    19    37    1
