@<TRIPOS>MOLECULE
*****
 59 63 0 0 0
SMALL
GASTEIGER

@<TRIPOS>ATOM
      1 C           0.5424   -0.5302    3.5771 C.3     1  UNL1        0.0154
      2 N           0.6327   -0.7273    2.1322 N.ar    1  UNL1       -0.3083
      3 C           1.6122   -1.4940    1.6059 C.ar    1  UNL1        0.2732
      4 O           2.4176   -2.0123    2.4177 O.2     1  UNL1       -0.2657
      5 C           1.6897   -1.6739    0.2424 C.ar    1  UNL1        0.1105
      6 C           2.7685   -2.5087   -0.3592 C.3     1  UNL1        0.0201
      7 C           4.0613   -1.8087   -0.3961 C.ar    1  UNL1       -0.0414
      8 C           4.2907   -0.9893   -1.5076 C.ar    1  UNL1       -0.0574
      9 C           5.4669   -0.2835   -1.6509 C.ar    1  UNL1       -0.0466
     10 C           6.4635   -0.3577   -0.7040 C.ar    1  UNL1        0.0647
     11 C           7.7333    0.3980   -0.8443 C.2     1  UNL1        0.3081
     12 N           7.7316    1.5189   -1.4692 N.2     1  UNL1       -0.0994
     13 N           8.9380   -0.0917   -0.3047 N.pl3   1  UNL1       -0.2466
     14 C           6.2367   -1.1660    0.3915 C.ar    1  UNL1       -0.0466
     15 C           5.0519   -1.8769    0.5355 C.ar    1  UNL1       -0.0574
     16 N           0.7686   -1.0675   -0.5271 N.ar    1  UNL1       -0.2444
     17 C          -0.2247   -0.2939   -0.0366 C.ar    1  UNL1        0.0881
     18 C          -1.1527    0.3166   -0.8517 C.ar    1  UNL1       -0.0301
     19 C          -2.1849    1.1228   -0.3554 C.ar    1  UNL1       -0.0303
     20 C          -3.1232    1.8116   -1.2694 C.3     1  UNL1        0.0721
     21 C          -4.5761    1.6673   -1.1449 C.2     1  UNL1        0.2261
     22 O          -5.3144    2.4634   -1.8825 O.2     1  UNL1       -0.2746
     23 N          -5.3126    0.7917   -0.3484 N.am    1  UNL1       -0.3007
     24 C          -4.8928   -0.2381    0.5300 C.3     1  UNL1        0.0147
     25 C          -6.0293   -1.2441    0.5597 C.3     1  UNL1       -0.0357
     26 C          -7.1629   -0.6329   -0.1883 C.3     1  UNL1       -0.0357
     27 C          -6.8044    0.8206   -0.2985 C.3     1  UNL1        0.0147
     28 C          -2.6144    2.2318   -2.6163 C.3     1  UNL1       -0.0337
     29 C          -2.6630    3.2789   -1.5731 C.3     1  UNL1       -0.0337
     30 C          -2.2109    1.2660    1.0165 C.ar    1  UNL1       -0.0555
     31 C          -1.2866    0.6586    1.8387 C.ar    1  UNL1       -0.0357
     32 C          -0.2707   -0.1364    1.3317 C.ar    1  UNL1        0.0700
     33 H           1.4573   -0.9024    4.0814 H       1  UNL1        0.0457
     34 H           0.5407    0.5745    3.7410 H       1  UNL1        0.0457
     35 H          -0.3779   -0.9808    3.9989 H       1  UNL1        0.0457
     36 H           2.7905   -3.4626    0.2184 H       1  UNL1        0.0378
     37 H           2.4094   -2.7948   -1.3817 H       1  UNL1        0.0378
     38 H           3.5426   -0.8990   -2.2735 H       1  UNL1        0.0621
     39 H           5.6562    0.3619   -2.5189 H       1  UNL1        0.0626
     40 H           8.6152    2.0514   -1.5709 H       1  UNL1        0.3633
     41 H           9.1230   -0.0086    0.7051 H       1  UNL1        0.2884
     42 H           9.6348   -0.5339   -0.9227 H       1  UNL1        0.2884
     43 H           6.9970   -1.2380    1.1382 H       1  UNL1        0.0626
     44 H           4.9000   -2.4997    1.3925 H       1  UNL1        0.0621
     45 H          -1.0930    0.1741   -1.9246 H       1  UNL1        0.0642
     46 H          -4.6860    0.1007    1.5860 H       1  UNL1        0.0464
     47 H          -3.9477   -0.7558    0.2025 H       1  UNL1        0.0464
     48 H          -6.2845   -1.4774    1.6211 H       1  UNL1        0.0281
     49 H          -5.6651   -2.1658    0.0545 H       1  UNL1        0.0281
     50 H          -8.1338   -0.7909    0.3487 H       1  UNL1        0.0281
     51 H          -7.2801   -1.1108   -1.1870 H       1  UNL1        0.0281
     52 H          -7.1945    1.3109   -1.1859 H       1  UNL1        0.0464
     53 H          -7.1496    1.3480    0.6057 H       1  UNL1        0.0464
     54 H          -3.3363    2.3146   -3.4474 H       1  UNL1        0.0279
     55 H          -1.6211    1.8564   -2.9344 H       1  UNL1        0.0279
     56 H          -1.7116    3.6076   -1.1601 H       1  UNL1        0.0279
     57 H          -3.4564    4.0459   -1.6011 H       1  UNL1        0.0279
     58 H          -2.9949    1.8825    1.4377 H       1  UNL1        0.0621
     59 H          -1.3164    0.7785    2.9227 H       1  UNL1        0.0639
@<TRIPOS>BOND
     1     1     2    1
     2     2     3   ar
     3     3     4    2
     4     3     5   ar
     5     5     6    1
     6     6     7    1
     7     7     8   ar
     8     8     9   ar
     9     9    10   ar
    10    10    11    1
    11    11    12    2
    12    11    13    1
    13    10    14   ar
    14    14    15   ar
    15     5    16   ar
    16    16    17   ar
    17    17    18   ar
    18    18    19   ar
    19    19    20    1
    20    20    21    1
    21    21    22    2
    22    21    23   am
    23    23    24    1
    24    24    25    1
    25    25    26    1
    26    26    27    1
    27    20    28    1
    28    28    29    1
    29    19    30   ar
    30    30    31   ar
    31    31    32   ar
    32    32     2   ar
    33    15     7   ar
    34    32    17   ar
    35    29    20    1
    36    27    23    1
    37     1    33    1
    38     1    34    1
    39     1    35    1
    40     6    36    1
    41     6    37    1
    42     8    38    1
    43     9    39    1
    44    12    40    1
    45    13    41    1
    46    13    42    1
    47    14    43    1
    48    15    44    1
    49    18    45    1
    50    24    46    1
    51    24    47    1
    52    25    48    1
    53    25    49    1
    54    26    50    1
    55    26    51    1
    56    27    52    1
    57    27    53    1
    58    28    54    1
    59    28    55    1
    60    29    56    1
    61    29    57    1
    62    30    58    1
    63    31    59    1
