
     RDKit          3D

 59 63  0  0  0  0  0  0  0  0999 V2000
    0.5424   -0.5302    3.5771 C   0  0  0  0  0  0  0  0  0  0  0  0
    0.6327   -0.7273    2.1322 N   0  0  0  0  0  0  0  0  0  0  0  0
    1.6122   -1.4940    1.6059 C   0  0  0  0  0  0  0  0  0  0  0  0
    2.4176   -2.0123    2.4177 O   0  0  0  0  0  0  0  0  0  0  0  0
    1.6897   -1.6739    0.2424 C   0  0  0  0  0  0  0  0  0  0  0  0
    2.7685   -2.5087   -0.3592 C   0  0  0  0  0  0  0  0  0  0  0  0
    4.0613   -1.8087   -0.3961 C   0  0  0  0  0  0  0  0  0  0  0  0
    4.2907   -0.9893   -1.5076 C   0  0  0  0  0  0  0  0  0  0  0  0
    5.4669   -0.2835   -1.6509 C   0  0  0  0  0  0  0  0  0  0  0  0
    6.4635   -0.3577   -0.7040 C   0  0  0  0  0  0  0  0  0  0  0  0
    7.7333    0.3980   -0.8443 C   0  0  0  0  0  0  0  0  0  0  0  0
    7.7316    1.5189   -1.4692 N   0  0  0  0  0  0  0  0  0  0  0  0
    8.9380   -0.0917   -0.3047 N   0  0  0  0  0  0  0  0  0  0  0  0
    6.2367   -1.1660    0.3915 C   0  0  0  0  0  0  0  0  0  0  0  0
    5.0519   -1.8769    0.5355 C   0  0  0  0  0  0  0  0  0  0  0  0
    0.7686   -1.0675   -0.5271 N   0  0  0  0  0  0  0  0  0  0  0  0
   -0.2247   -0.2939   -0.0366 C   0  0  0  0  0  0  0  0  0  0  0  0
   -1.1527    0.3166   -0.8517 C   0  0  0  0  0  0  0  0  0  0  0  0
   -2.1849    1.1228   -0.3554 C   0  0  0  0  0  0  0  0  0  0  0  0
   -3.1232    1.8116   -1.2694 C   0  0  0  0  0  0  0  0  0  0  0  0
   -4.5761    1.6673   -1.1449 C   0  0  0  0  0  0  0  0  0  0  0  0
   -5.3144    2.4634   -1.8825 O   0  0  0  0  0  0  0  0  0  0  0  0
   -5.3126    0.7917   -0.3484 N   0  0  0  0  0  0  0  0  0  0  0  0
   -4.8928   -0.2381    0.5300 C   0  0  0  0  0  0  0  0  0  0  0  0
   -6.0293   -1.2441    0.5597 C   0  0  0  0  0  0  0  0  0  0  0  0
   -7.1629   -0.6329   -0.1883 C   0  0  0  0  0  0  0  0  0  0  0  0
   -6.8044    0.8206   -0.2985 C   0  0  0  0  0  0  0  0  0  0  0  0
   -2.6144    2.2318   -2.6163 C   0  0  0  0  0  0  0  0  0  0  0  0
   -2.6630    3.2789   -1.5731 C   0  0  0  0  0  0  0  0  0  0  0  0
   -2.2109    1.2660    1.0165 C   0  0  0  0  0  0  0  0  0  0  0  0
   -1.2866    0.6586    1.8387 C   0  0  0  0  0  0  0  0  0  0  0  0
   -0.2707   -0.1364    1.3317 C   0  0  0  0  0  0  0  0  0  0  0  0
    1.4573   -0.9024    4.0814 H   0  0  0  0  0  0  0  0  0  0  0  0
    0.5407    0.5745    3.7410 H   0  0  0  0  0  0  0  0  0  0  0  0
   -0.3779   -0.9808    3.9989 H   0  0  0  0  0  0  0  0  0  0  0  0
    2.7905   -3.4626    0.2184 H   0  0  0  0  0  0  0  0  0  0  0  0
    2.4094   -2.7948   -1.3817 H   0  0  0  0  0  0  0  0  0  0  0  0
    3.5426   -0.8990   -2.2735 H   0  0  0  0  0  0  0  0  0  0  0  0
    5.6562    0.3619   -2.5189 H   0  0  0  0  0  0  0  0  0  0  0  0
    8.6152    2.0514   -1.5709 H   0  0  0  0  0  0  0  0  0  0  0  0
    9.1230   -0.0086    0.7051 H   0  0  0  0  0  0  0  0  0  0  0  0
    9.6348   -0.5339   -0.9227 H   0  0  0  0  0  0  0  0  0  0  0  0
    6.9970   -1.2380    1.1382 H   0  0  0  0  0  0  0  0  0  0  0  0
    4.9000   -2.4997    1.3925 H   0  0  0  0  0  0  0  0  0  0  0  0
   -1.0930    0.1741   -1.9246 H   0  0  0  0  0  0  0  0  0  0  0  0
   -4.6860    0.1007    1.5860 H   0  0  0  0  0  0  0  0  0  0  0  0
   -3.9477   -0.7558    0.2025 H   0  0  0  0  0  0  0  0  0  0  0  0
   -6.2845   -1.4774    1.6211 H   0  0  0  0  0  0  0  0  0  0  0  0
   -5.6651   -2.1658    0.0545 H   0  0  0  0  0  0  0  0  0  0  0  0
   -8.1338   -0.7909    0.3487 H   0  0  0  0  0  0  0  0  0  0  0  0
   -7.2801   -1.1108   -1.1870 H   0  0  0  0  0  0  0  0  0  0  0  0
   -7.1945    1.3109   -1.1859 H   0  0  0  0  0  0  0  0  0  0  0  0
   -7.1496    1.3480    0.6057 H   0  0  0  0  0  0  0  0  0  0  0  0
   -3.3363    2.3146   -3.4474 H   0  0  0  0  0  0  0  0  0  0  0  0
   -1.6211    1.8564   -2.9344 H   0  0  0  0  0  0  0  0  0  0  0  0
   -1.7116    3.6076   -1.1601 H   0  0  0  0  0  0  0  0  0  0  0  0
   -3.4564    4.0459   -1.6011 H   0  0  0  0  0  0  0  0  0  0  0  0
   -2.9949    1.8825    1.4377 H   0  0  0  0  0  0  0  0  0  0  0  0
   -1.3164    0.7785    2.9227 H   0  0  0  0  0  0  0  0  0  0  0  0
  1  2  1  0
  2  3  1  0
  3  4  2  0
  3  5  1  0
  5  6  1  0
  6  7  1  0
  7  8  2  0
  8  9  1  0
  9 10  2  0
 10 11  1  0
 11 12  2  3
 11 13  1  0
 10 14  1  0
 14 15  2  0
  5 16  2  0
 16 17  1  0
 17 18  2  0
 18 19  1  0
 19 20  1  0
 20 21  1  0
 21 22  2  0
 21 23  1  0
 23 24  1  0
 24 25  1  0
 25 26  1  0
 26 27  1  0
 20 28  1  0
 28 29  1  0
 19 30  2  0
 30 31  1  0
 31 32  2  0
 32  2  1  0
 15  7  1  0
 32 17  1  0
 29 20  1  0
 27 23  1  0
  1 33  1  0
  1 34  1  0
  1 35  1  0
  6 36  1  0
  6 37  1  0
  8 38  1  0
  9 39  1  0
 12 40  1  0
 13 41  1  0
 13 42  1  0
 14 43  1  0
 15 44  1  0
 18 45  1  0
 24 46  1  0
 24 47  1  0
 25 48  1  0
 25 49  1  0
 26 50  1  0
 26 51  1  0
 27 52  1  0
 27 53  1  0
 28 54  1  0
 28 55  1  0
 29 56  1  0
 29 57  1  0
 30 58  1  0
 31 59  1  0
M  END
$$$$
