
     RDKit          3D

 34 34  0  0  0  0  0  0  0  0999 V2000
    1.1218   -2.4493   -0.2766 O   0  0  0  0  0  0  0  0  0  0  0  0
    0.7462   -1.2641   -0.8756 C   0  0  1  0  0  0  0  0  0  0  0  0
   -0.7328   -1.1531   -0.9246 C   0  0  1  0  0  0  0  0  0  0  0  0
   -1.2744   -2.4451   -0.9339 O   0  0  0  0  0  0  0  0  0  0  0  0
   -1.3585   -0.4274    0.2433 C   0  0  1  0  0  0  0  0  0  0  0  0
   -2.6512   -0.8631    0.4514 O   0  0  0  0  0  0  0  0  0  0  0  0
   -3.6856    0.4593    0.2866 P   0  0  0  0  0  0  0  0  0  0  0  0
   -4.4998    0.3745   -1.2010 O   0  0  0  0  0  0  0  0  0  0  0  0
   -2.8046    1.8876    0.4160 O   0  0  0  0  0  0  0  0  0  0  0  0
   -4.7242    0.4572    1.4010 O   0  0  0  0  0  0  0  0  0  0  0  0
   -0.4610   -0.6686    1.4352 C   0  0  2  0  0  0  0  0  0  0  0  0
   -1.0163   -0.1981    2.6255 O   0  0  0  0  0  0  0  0  0  0  0  0
    0.7963    0.1379    1.2019 C   0  0  1  0  0  0  0  0  0  0  0  0
    1.6797   -0.0724    2.2560 O   0  0  0  0  0  0  0  0  0  0  0  0
    1.4319   -0.1440   -0.1467 C   0  0  2  0  0  0  0  0  0  0  0  0
    1.4549    1.0565   -0.8391 O   0  0  0  0  0  0  0  0  0  0  0  0
    2.9579    1.6717   -1.1904 P   0  0  0  0  0  0  0  0  0  0  0  0
    2.8942    3.3367   -0.8677 O   0  0  0  0  0  0  0  0  0  0  0  0
    4.2239    1.0720   -0.2884 O   0  0  0  0  0  0  0  0  0  0  0  0
    3.2316    1.5263   -2.6832 O   0  0  0  0  0  0  0  0  0  0  0  0
    1.5756   -3.0960   -0.8707 H   0  0  0  0  0  0  0  0  0  0  0  0
    1.1260   -1.2350   -1.9333 H   0  0  0  0  0  0  0  0  0  0  0  0
   -1.0798   -0.6650   -1.8657 H   0  0  0  0  0  0  0  0  0  0  0  0
   -1.5904   -2.7048   -0.0287 H   0  0  0  0  0  0  0  0  0  0  0  0
   -1.3447    0.6642    0.0256 H   0  0  0  0  0  0  0  0  0  0  0  0
   -3.9561    0.8077   -1.9082 H   0  0  0  0  0  0  0  0  0  0  0  0
   -3.3742    2.6680    0.1707 H   0  0  0  0  0  0  0  0  0  0  0  0
   -0.2454   -1.7467    1.5853 H   0  0  0  0  0  0  0  0  0  0  0  0
   -0.8407   -0.8220    3.3923 H   0  0  0  0  0  0  0  0  0  0  0  0
    0.4688    1.2112    1.3058 H   0  0  0  0  0  0  0  0  0  0  0  0
    2.2525   -0.8639    2.0609 H   0  0  0  0  0  0  0  0  0  0  0  0
    2.4621   -0.5087    0.0663 H   0  0  0  0  0  0  0  0  0  0  0  0
    2.7849    3.8801   -1.6845 H   0  0  0  0  0  0  0  0  0  0  0  0
    4.4315    0.1167   -0.4056 H   0  0  0  0  0  0  0  0  0  0  0  0
  1  2  1  0
  2  3  1  0
  3  4  1  0
  3  5  1  0
  5  6  1  0
  6  7  1  0
  7  8  1  0
  7  9  1  0
  7 10  2  0
  5 11  1  0
 11 12  1  0
 11 13  1  0
 13 14  1  0
 13 15  1  0
 15 16  1  0
 16 17  1  0
 17 18  1  0
 17 19  1  0
 17 20  2  0
 15  2  1  0
  1 21  1  0
  2 22  1  6
  3 23  1  6
  4 24  1  0
  5 25  1  6
  8 26  1  0
  9 27  1  0
 11 28  1  1
 12 29  1  0
 13 30  1  6
 14 31  1  0
 15 32  1  1
 18 33  1  0
 19 34  1  0
M  END
$$$$
