@<TRIPOS>MOLECULE
*****
 34 34 0 0 0
SMALL
GASTEIGER

@<TRIPOS>ATOM
      1 O           1.1218   -2.4493   -0.2766 O.3     1  UNL1       -0.3865
      2 C           0.7462   -1.2641   -0.8756 C.3     1  UNL1        0.1127
      3 C          -0.7328   -1.1531   -0.9246 C.3     1  UNL1        0.1127
      4 O          -1.2744   -2.4451   -0.9339 O.3     1  UNL1       -0.3865
      5 C          -1.3585   -0.4274    0.2433 C.3     1  UNL1        0.1266
      6 O          -2.6512   -0.8631    0.4514 O.3     1  UNL1       -0.2781
      7 P          -3.6856    0.4593    0.2866 P.3     1  UNL1        0.4728
      8 O          -4.4998    0.3745   -1.2010 O.3     1  UNL1       -0.3026
      9 O          -2.8046    1.8876    0.4160 O.3     1  UNL1       -0.3026
     10 O          -4.7242    0.4572    1.4010 O.2     1  UNL1       -0.2275
     11 C          -0.4610   -0.6686    1.4352 C.3     1  UNL1        0.1127
     12 O          -1.0163   -0.1981    2.6255 O.3     1  UNL1       -0.3865
     13 C           0.7963    0.1379    1.2019 C.3     1  UNL1        0.1127
     14 O           1.6797   -0.0724    2.2560 O.3     1  UNL1       -0.3865
     15 C           1.4319   -0.1440   -0.1467 C.3     1  UNL1        0.1266
     16 O           1.4549    1.0565   -0.8391 O.3     1  UNL1       -0.2781
     17 P           2.9579    1.6717   -1.1904 P.3     1  UNL1        0.4728
     18 O           2.8942    3.3367   -0.8677 O.3     1  UNL1       -0.3026
     19 O           4.2239    1.0720   -0.2884 O.3     1  UNL1       -0.3026
     20 O           3.2316    1.5263   -2.6832 O.2     1  UNL1       -0.2275
     21 H           1.5756   -3.0960   -0.8707 H       1  UNL1        0.2100
     22 H           1.1260   -1.2350   -1.9333 H       1  UNL1        0.0647
     23 H          -1.0798   -0.6650   -1.8657 H       1  UNL1        0.0647
     24 H          -1.5904   -2.7048   -0.0287 H       1  UNL1        0.2100
     25 H          -1.3447    0.6642    0.0256 H       1  UNL1        0.0655
     26 H          -3.9561    0.8077   -1.9082 H       1  UNL1        0.2220
     27 H          -3.3742    2.6680    0.1707 H       1  UNL1        0.2220
     28 H          -0.2454   -1.7467    1.5853 H       1  UNL1        0.0647
     29 H          -0.8407   -0.8220    3.3923 H       1  UNL1        0.2100
     30 H           0.4688    1.2112    1.3058 H       1  UNL1        0.0647
     31 H           2.2525   -0.8639    2.0609 H       1  UNL1        0.2100
     32 H           2.4621   -0.5087    0.0663 H       1  UNL1        0.0655
     33 H           2.7849    3.8801   -1.6845 H       1  UNL1        0.2220
     34 H           4.4315    0.1167   -0.4056 H       1  UNL1        0.2220
@<TRIPOS>BOND
     1     1     2    1
     2     2     3    1
     3     3     4    1
     4     3     5    1
     5     5     6    1
     6     6     7    1
     7     7     8    1
     8     7     9    1
     9     7    10    2
    10     5    11    1
    11    11    12    1
    12    11    13    1
    13    13    14    1
    14    13    15    1
    15    15    16    1
    16    16    17    1
    17    17    18    1
    18    17    19    1
    19    17    20    2
    20    15     2    1
    21     1    21    1
    22     2    22    1
    23     3    23    1
    24     4    24    1
    25     5    25    1
    26     8    26    1
    27     9    27    1
    28    11    28    1
    29    12    29    1
    30    13    30    1
    31    14    31    1
    32    15    32    1
    33    18    33    1
    34    19    34    1
