@<TRIPOS>MOLECULE
*****
 66 71 0 0 0
SMALL
GASTEIGER

@<TRIPOS>ATOM
      1 C          -5.0450    2.3283   -0.9145 C.3     1  UNL1       -0.0380
      2 C          -5.7930    1.3663   -0.0762 C.ar    1  UNL1       -0.0279
      3 C          -7.0572    0.9723   -0.4085 C.ar    1  UNL1       -0.0557
      4 C          -7.7302    0.0792    0.3920 C.ar    1  UNL1       -0.0433
      5 C          -7.1253   -0.4187    1.5328 C.ar    1  UNL1        0.0279
      6 N          -5.8853   -0.0032    1.8169 N.ar    1  UNL1       -0.2583
      7 C          -5.2012    0.8672    1.0567 C.ar    1  UNL1        0.0581
      8 C          -3.8322    1.2538    1.4691 C.3     1  UNL1        0.0415
      9 N          -2.8625    0.5796    0.6644 N.3     1  UNL1       -0.2965
     10 C          -2.8745   -0.8439    0.7399 C.3     1  UNL1        0.0017
     11 C          -1.5197   -1.4551    1.0013 C.3     1  UNL1       -0.0095
     12 C          -0.4345   -0.8859    0.1679 C.3     1  UNL1        0.1240
     13 C          -0.6700    0.5707   -0.2112 C.3     1  UNL1       -0.0095
     14 C          -1.5473    1.1238    0.9220 C.3     1  UNL1        0.0017
     15 C           0.9034   -0.8752    0.8710 C.2     1  UNL1        0.2516
     16 O           1.1129   -1.0610    2.0923 O.2     1  UNL1       -0.2724
     17 N           1.8391   -0.6083   -0.1798 N.am    1  UNL1       -0.1920
     18 C           3.0893    0.0280   -0.0421 C.ar    1  UNL1        0.0455
     19 C           3.4994    0.4846    1.1836 C.ar    1  UNL1       -0.0392
     20 C           4.7471    1.1088    1.2978 C.ar    1  UNL1       -0.0522
     21 C           5.5904    1.2874    0.2266 C.ar    1  UNL1       -0.0149
     22 C           6.8837    1.9421    0.3802 C.ar    1  UNL1        0.0164
     23 C           7.9224    1.5615   -0.4425 C.ar    1  UNL1        0.0421
     24 N           9.1145    2.1726   -0.2951 N.ar    1  UNL1       -0.2009
     25 C           9.3550    3.1272    0.6005 C.ar    1  UNL1        0.3458
     26 O          10.4679    3.6973    0.7379 O.2     1  UNL1       -0.2447
     27 N           8.3547    3.5144    1.4142 N.ar    1  UNL1       -0.3124
     28 C           7.1286    2.9312    1.3100 C.ar    1  UNL1        0.0155
     29 C           5.1409    0.8148   -0.9848 C.ar    1  UNL1       -0.0522
     30 C           3.9103    0.1880   -1.1498 C.ar    1  UNL1       -0.0392
     31 C           1.2143   -1.1245   -1.3627 C.2     1  UNL1        0.3219
     32 O           1.6553   -1.1213   -2.5351 O.2     1  UNL1       -0.2512
     33 N          -0.0676   -1.6802   -0.9907 N.am    1  UNL1       -0.2240
     34 C          -0.7404   -2.7426   -1.6445 C.ar    1  UNL1        0.1364
     35 C          -0.5506   -4.0682   -1.2940 C.ar    1  UNL1        0.0432
     36 C          -1.2162   -5.0794   -1.9479 C.ar    1  UNL1        0.2531
     37 O          -1.0474   -6.3043   -1.6316 O.2     1  UNL1       -0.2678
     38 N          -2.0738   -4.7998   -2.9514 N.ar    1  UNL1       -0.3133
     39 C          -2.2543   -3.5063   -3.2882 C.ar    1  UNL1        0.0981
     40 N          -1.6101   -2.5310   -2.6549 N.ar    1  UNL1       -0.2220
     41 H          -4.2632    1.8401   -1.5159 H       1  UNL1        0.0278
     42 H          -4.5727    3.1476   -0.3087 H       1  UNL1        0.0278
     43 H          -5.7526    2.8568   -1.5907 H       1  UNL1        0.0278
     44 H          -7.5551    1.3441   -1.2941 H       1  UNL1        0.0621
     45 H          -8.7453   -0.2559    0.1510 H       1  UNL1        0.0633
     46 H          -7.6312   -1.1329    2.1966 H       1  UNL1        0.0829
     47 H          -3.6966    2.3397    1.3429 H       1  UNL1        0.0491
     48 H          -3.6527    0.9829    2.5343 H       1  UNL1        0.0491
     49 H          -3.2795   -1.3231   -0.1957 H       1  UNL1        0.0427
     50 H          -3.5177   -1.1174    1.6286 H       1  UNL1        0.0427
     51 H          -1.6127   -2.5505    0.8223 H       1  UNL1        0.0303
     52 H          -1.2458   -1.3568    2.0807 H       1  UNL1        0.0303
     53 H           0.2504    1.1591   -0.2502 H       1  UNL1        0.0303
     54 H          -1.2478    0.6717   -1.1340 H       1  UNL1        0.0303
     55 H          -1.2089    0.6765    1.8926 H       1  UNL1        0.0427
     56 H          -1.5271    2.2089    0.9851 H       1  UNL1        0.0427
     57 H           2.8720    0.3739    2.0684 H       1  UNL1        0.0636
     58 H           5.0083    1.4454    2.2939 H       1  UNL1        0.0624
     59 H           7.7365    0.7846   -1.1763 H       1  UNL1        0.0838
     60 H           8.4922    4.2553    2.1295 H       1  UNL1        0.1699
     61 H           6.3187    3.2349    1.9582 H       1  UNL1        0.0815
     62 H           5.7796    0.9377   -1.8538 H       1  UNL1        0.0624
     63 H           3.6593   -0.1436   -2.1446 H       1  UNL1        0.0636
     64 H           0.1247   -4.3403   -0.4991 H       1  UNL1        0.0706
     65 H          -2.5606   -5.5906   -3.4245 H       1  UNL1        0.1698
     66 H          -2.9630   -3.3382   -4.1102 H       1  UNL1        0.1028
@<TRIPOS>BOND
     1     1     2    1
     2     2     3   ar
     3     3     4   ar
     4     4     5   ar
     5     5     6   ar
     6     6     7   ar
     7     7     8    1
     8     8     9    1
     9     9    10    1
    10    10    11    1
    11    11    12    1
    12    12    13    1
    13    13    14    1
    14    12    15    1
    15    15    16    2
    16    15    17   am
    17    17    18    1
    18    18    19   ar
    19    19    20   ar
    20    20    21   ar
    21    21    22    1
    22    22    23   ar
    23    23    24   ar
    24    24    25   ar
    25    25    26    2
    26    25    27   ar
    27    27    28   ar
    28    21    29   ar
    29    29    30   ar
    30    17    31   am
    31    31    32    2
    32    31    33   am
    33    33    34    1
    34    34    35   ar
    35    35    36   ar
    36    36    37    2
    37    36    38   ar
    38    38    39   ar
    39    39    40   ar
    40     7     2   ar
    41    14     9    1
    42    30    18   ar
    43    40    34   ar
    44    33    12    1
    45    28    22   ar
    46     1    41    1
    47     1    42    1
    48     1    43    1
    49     3    44    1
    50     4    45    1
    51     5    46    1
    52     8    47    1
    53     8    48    1
    54    10    49    1
    55    10    50    1
    56    11    51    1
    57    11    52    1
    58    13    53    1
    59    13    54    1
    60    14    55    1
    61    14    56    1
    62    19    57    1
    63    20    58    1
    64    23    59    1
    65    27    60    1
    66    28    61    1
    67    29    62    1
    68    30    63    1
    69    35    64    1
    70    38    65    1
    71    39    66    1
