
     RDKit          3D

 66 71  0  0  0  0  0  0  0  0999 V2000
   -5.0450    2.3283   -0.9145 C   0  0  0  0  0  0  0  0  0  0  0  0
   -5.7930    1.3663   -0.0762 C   0  0  0  0  0  0  0  0  0  0  0  0
   -7.0572    0.9723   -0.4085 C   0  0  0  0  0  0  0  0  0  0  0  0
   -7.7302    0.0792    0.3920 C   0  0  0  0  0  0  0  0  0  0  0  0
   -7.1253   -0.4187    1.5328 C   0  0  0  0  0  0  0  0  0  0  0  0
   -5.8853   -0.0032    1.8169 N   0  0  0  0  0  0  0  0  0  0  0  0
   -5.2012    0.8672    1.0567 C   0  0  0  0  0  0  0  0  0  0  0  0
   -3.8322    1.2538    1.4691 C   0  0  0  0  0  0  0  0  0  0  0  0
   -2.8625    0.5796    0.6644 N   0  0  0  0  0  0  0  0  0  0  0  0
   -2.8745   -0.8439    0.7399 C   0  0  0  0  0  0  0  0  0  0  0  0
   -1.5197   -1.4551    1.0013 C   0  0  0  0  0  0  0  0  0  0  0  0
   -0.4345   -0.8859    0.1679 C   0  0  0  0  0  0  0  0  0  0  0  0
   -0.6700    0.5707   -0.2112 C   0  0  0  0  0  0  0  0  0  0  0  0
   -1.5473    1.1238    0.9220 C   0  0  0  0  0  0  0  0  0  0  0  0
    0.9034   -0.8752    0.8710 C   0  0  0  0  0  0  0  0  0  0  0  0
    1.1129   -1.0610    2.0923 O   0  0  0  0  0  0  0  0  0  0  0  0
    1.8391   -0.6083   -0.1798 N   0  0  0  0  0  0  0  0  0  0  0  0
    3.0893    0.0280   -0.0421 C   0  0  0  0  0  0  0  0  0  0  0  0
    3.4994    0.4846    1.1836 C   0  0  0  0  0  0  0  0  0  0  0  0
    4.7471    1.1088    1.2978 C   0  0  0  0  0  0  0  0  0  0  0  0
    5.5904    1.2874    0.2266 C   0  0  0  0  0  0  0  0  0  0  0  0
    6.8837    1.9421    0.3802 C   0  0  0  0  0  0  0  0  0  0  0  0
    7.9224    1.5615   -0.4425 C   0  0  0  0  0  0  0  0  0  0  0  0
    9.1145    2.1726   -0.2951 N   0  0  0  0  0  0  0  0  0  0  0  0
    9.3550    3.1272    0.6005 C   0  0  0  0  0  0  0  0  0  0  0  0
   10.4679    3.6973    0.7379 O   0  0  0  0  0  0  0  0  0  0  0  0
    8.3547    3.5144    1.4142 N   0  0  0  0  0  0  0  0  0  0  0  0
    7.1286    2.9312    1.3100 C   0  0  0  0  0  0  0  0  0  0  0  0
    5.1409    0.8148   -0.9848 C   0  0  0  0  0  0  0  0  0  0  0  0
    3.9103    0.1880   -1.1498 C   0  0  0  0  0  0  0  0  0  0  0  0
    1.2143   -1.1245   -1.3627 C   0  0  0  0  0  0  0  0  0  0  0  0
    1.6553   -1.1213   -2.5351 O   0  0  0  0  0  0  0  0  0  0  0  0
   -0.0676   -1.6802   -0.9907 N   0  0  0  0  0  0  0  0  0  0  0  0
   -0.7404   -2.7426   -1.6445 C   0  0  0  0  0  0  0  0  0  0  0  0
   -0.5506   -4.0682   -1.2940 C   0  0  0  0  0  0  0  0  0  0  0  0
   -1.2162   -5.0794   -1.9479 C   0  0  0  0  0  0  0  0  0  0  0  0
   -1.0474   -6.3043   -1.6316 O   0  0  0  0  0  0  0  0  0  0  0  0
   -2.0738   -4.7998   -2.9514 N   0  0  0  0  0  0  0  0  0  0  0  0
   -2.2543   -3.5063   -3.2882 C   0  0  0  0  0  0  0  0  0  0  0  0
   -1.6101   -2.5310   -2.6549 N   0  0  0  0  0  0  0  0  0  0  0  0
   -4.2632    1.8401   -1.5159 H   0  0  0  0  0  0  0  0  0  0  0  0
   -4.5727    3.1476   -0.3087 H   0  0  0  0  0  0  0  0  0  0  0  0
   -5.7526    2.8568   -1.5907 H   0  0  0  0  0  0  0  0  0  0  0  0
   -7.5551    1.3441   -1.2941 H   0  0  0  0  0  0  0  0  0  0  0  0
   -8.7453   -0.2559    0.1510 H   0  0  0  0  0  0  0  0  0  0  0  0
   -7.6312   -1.1329    2.1966 H   0  0  0  0  0  0  0  0  0  0  0  0
   -3.6966    2.3397    1.3429 H   0  0  0  0  0  0  0  0  0  0  0  0
   -3.6527    0.9829    2.5343 H   0  0  0  0  0  0  0  0  0  0  0  0
   -3.2795   -1.3231   -0.1957 H   0  0  0  0  0  0  0  0  0  0  0  0
   -3.5177   -1.1174    1.6286 H   0  0  0  0  0  0  0  0  0  0  0  0
   -1.6127   -2.5505    0.8223 H   0  0  0  0  0  0  0  0  0  0  0  0
   -1.2458   -1.3568    2.0807 H   0  0  0  0  0  0  0  0  0  0  0  0
    0.2504    1.1591   -0.2502 H   0  0  0  0  0  0  0  0  0  0  0  0
   -1.2478    0.6717   -1.1340 H   0  0  0  0  0  0  0  0  0  0  0  0
   -1.2089    0.6765    1.8926 H   0  0  0  0  0  0  0  0  0  0  0  0
   -1.5271    2.2089    0.9851 H   0  0  0  0  0  0  0  0  0  0  0  0
    2.8720    0.3739    2.0684 H   0  0  0  0  0  0  0  0  0  0  0  0
    5.0083    1.4454    2.2939 H   0  0  0  0  0  0  0  0  0  0  0  0
    7.7365    0.7846   -1.1763 H   0  0  0  0  0  0  0  0  0  0  0  0
    8.4922    4.2553    2.1295 H   0  0  0  0  0  0  0  0  0  0  0  0
    6.3187    3.2349    1.9582 H   0  0  0  0  0  0  0  0  0  0  0  0
    5.7796    0.9377   -1.8538 H   0  0  0  0  0  0  0  0  0  0  0  0
    3.6593   -0.1436   -2.1446 H   0  0  0  0  0  0  0  0  0  0  0  0
    0.1247   -4.3403   -0.4991 H   0  0  0  0  0  0  0  0  0  0  0  0
   -2.5606   -5.5906   -3.4245 H   0  0  0  0  0  0  0  0  0  0  0  0
   -2.9630   -3.3382   -4.1102 H   0  0  0  0  0  0  0  0  0  0  0  0
  1  2  1  0
  2  3  2  0
  3  4  1  0
  4  5  2  0
  5  6  1  0
  6  7  2  0
  7  8  1  0
  8  9  1  0
  9 10  1  0
 10 11  1  0
 11 12  1  0
 12 13  1  0
 13 14  1  0
 12 15  1  0
 15 16  2  0
 15 17  1  0
 17 18  1  0
 18 19  2  0
 19 20  1  0
 20 21  2  0
 21 22  1  0
 22 23  1  0
 23 24  2  0
 24 25  1  0
 25 26  2  0
 25 27  1  0
 27 28  1  0
 21 29  1  0
 29 30  2  0
 17 31  1  0
 31 32  2  0
 31 33  1  0
 33 34  1  0
 34 35  2  0
 35 36  1  0
 36 37  2  0
 36 38  1  0
 38 39  1  0
 39 40  2  0
  7  2  1  0
 14  9  1  0
 30 18  1  0
 40 34  1  0
 33 12  1  0
 28 22  2  0
  1 41  1  0
  1 42  1  0
  1 43  1  0
  3 44  1  0
  4 45  1  0
  5 46  1  0
  8 47  1  0
  8 48  1  0
 10 49  1  0
 10 50  1  0
 11 51  1  0
 11 52  1  0
 13 53  1  0
 13 54  1  0
 14 55  1  0
 14 56  1  0
 19 57  1  0
 20 58  1  0
 23 59  1  0
 27 60  1  0
 28 61  1  0
 29 62  1  0
 30 63  1  0
 35 64  1  0
 38 65  1  0
 39 66  1  0
M  END
$$$$
