@<TRIPOS>MOLECULE
*****
 52 55 0 0 0
SMALL
GASTEIGER

@<TRIPOS>ATOM
      1 C          -1.6294    3.1971    0.2253 C.3     1  UNL1        0.0035
      2 N          -1.3906    1.7975   -0.0614 N.am    1  UNL1       -0.2995
      3 C          -2.4399    0.8664   -0.0080 C.2     1  UNL1        0.2199
      4 O          -2.2469   -0.3522   -0.2591 O.2     1  UNL1       -0.2752
      5 C          -3.8422    1.2778    0.3507 C.3     1  UNL1        0.0493
      6 C          -4.7498    0.1127    0.3294 C.ar    1  UNL1       -0.0384
      7 C          -4.9486   -0.6617    1.4456 C.ar    1  UNL1       -0.0554
      8 C          -5.7974   -1.7649    1.4682 C.ar    1  UNL1       -0.0262
      9 C          -6.4723   -2.0994    0.3176 C.ar    1  UNL1        0.1234
     10 F          -7.3157   -3.1603    0.2667 F       1  UNL1       -0.2055
     11 C          -6.2806   -1.3313   -0.8051 C.ar    1  UNL1       -0.0262
     12 C          -5.4377   -0.2324   -0.8350 C.ar    1  UNL1       -0.0554
     13 C          -0.0475    1.4001   -0.3974 C.3     1  UNL1        0.0439
     14 C           0.0990    0.7479   -1.7377 C.3     1  UNL1       -0.0273
     15 C           1.5756    0.7414   -2.0744 C.3     1  UNL1       -0.0103
     16 C           2.2749    0.0128   -0.9936 C.ar    1  UNL1        0.0236
     17 C           3.4800   -0.6571   -1.0141 C.ar    1  UNL1       -0.0083
     18 C           4.3919   -0.8056   -2.1863 C.3     1  UNL1        0.0721
     19 C           5.1065    0.4713   -2.3895 C.2     1  UNL1        0.3091
     20 O           4.9112    1.4558   -1.6466 O.2     1  UNL1       -0.2507
     21 O           6.0209    0.6018   -3.4244 O.3     1  UNL1       -0.4804
     22 C           3.7203   -1.1776    0.2317 C.ar    1  UNL1        0.0038
     23 C           4.7739   -1.9273    0.7458 C.ar    1  UNL1       -0.0523
     24 C           4.7173   -2.3026    2.0625 C.ar    1  UNL1       -0.0611
     25 C           3.6508   -1.9568    2.8781 C.ar    1  UNL1       -0.0598
     26 C           2.6222   -1.2143    2.3423 C.ar    1  UNL1       -0.0376
     27 C           2.6414   -0.8118    1.0060 C.ar    1  UNL1        0.0496
     28 N           1.7804   -0.0914    0.2396 N.ar    1  UNL1       -0.3417
     29 C           0.5186    0.4858    0.6691 C.3     1  UNL1        0.0422
     30 H          -2.1000    3.3558    1.2124 H       1  UNL1        0.0429
     31 H          -2.3006    3.6559   -0.5337 H       1  UNL1        0.0429
     32 H          -0.6925    3.7893    0.2055 H       1  UNL1        0.0429
     33 H          -4.2090    2.0498   -0.3850 H       1  UNL1        0.0407
     34 H          -3.8421    1.7991    1.3279 H       1  UNL1        0.0407
     35 H          -4.4214   -0.4163    2.3772 H       1  UNL1        0.0621
     36 H          -5.9091   -2.3315    2.3786 H       1  UNL1        0.0646
     37 H          -6.7974   -1.5749   -1.7147 H       1  UNL1        0.0646
     38 H          -5.2787    0.3742   -1.7003 H       1  UNL1        0.0621
     39 H           0.6522    2.2890   -0.3975 H       1  UNL1        0.0518
     40 H          -0.2358   -0.3043   -1.7674 H       1  UNL1        0.0287
     41 H          -0.4630    1.3196   -2.5063 H       1  UNL1        0.0287
     42 H           1.7421    0.2889   -3.0735 H       1  UNL1        0.0328
     43 H           1.9024    1.8139   -2.0901 H       1  UNL1        0.0328
     44 H           3.7972   -1.0830   -3.0776 H       1  UNL1        0.0427
     45 H           5.1382   -1.6131   -1.9838 H       1  UNL1        0.0427
     46 H           6.3378    1.5028   -3.7448 H       1  UNL1        0.2951
     47 H           5.5893   -2.1768    0.0745 H       1  UNL1        0.0624
     48 H           5.5388   -2.8841    2.4535 H       1  UNL1        0.0618
     49 H           3.6168   -2.2610    3.9237 H       1  UNL1        0.0618
     50 H           1.7890   -0.9422    2.9728 H       1  UNL1        0.0638
     51 H           0.6812    1.0354    1.6067 H       1  UNL1        0.0510
     52 H          -0.2215   -0.3080    0.8729 H       1  UNL1        0.0510
@<TRIPOS>BOND
     1     1     2    1
     2     2     3   am
     3     3     4    2
     4     3     5    1
     5     5     6    1
     6     6     7   ar
     7     7     8   ar
     8     8     9   ar
     9     9    10    1
    10     9    11   ar
    11    11    12   ar
    12     2    13    1
    13    13    14    1
    14    14    15    1
    15    15    16    1
    16    16    17   ar
    17    17    18    1
    18    18    19    1
    19    19    20    2
    20    19    21    1
    21    17    22   ar
    22    22    23   ar
    23    23    24   ar
    24    24    25   ar
    25    25    26   ar
    26    26    27   ar
    27    27    28   ar
    28    28    29    1
    29    12     6   ar
    30    29    13    1
    31    28    16   ar
    32    27    22   ar
    33     1    30    1
    34     1    31    1
    35     1    32    1
    36     5    33    1
    37     5    34    1
    38     7    35    1
    39     8    36    1
    40    11    37    1
    41    12    38    1
    42    13    39    1
    43    14    40    1
    44    14    41    1
    45    15    42    1
    46    15    43    1
    47    18    44    1
    48    18    45    1
    49    21    46    1
    50    23    47    1
    51    24    48    1
    52    25    49    1
    53    26    50    1
    54    29    51    1
    55    29    52    1
