@<TRIPOS>MOLECULE
*****
 50 54 0 0 0
SMALL
GASTEIGER

@<TRIPOS>ATOM
      1 C          -3.2324    5.0920   -0.7718 C.3     1  UNL1        0.0571
      2 N          -2.3956    3.9253   -0.5563 N.am    1  UNL1       -0.1649
      3 C          -2.9000    2.6104   -0.7605 C.2     1  UNL1        0.2861
      4 O          -4.1396    2.4084   -0.7413 O.2     1  UNL1       -0.2567
      5 C          -1.9049    1.5313   -0.9895 C.3     1  UNL1        0.1124
      6 C          -2.5072    0.2159   -0.5470 C.3     1  UNL1        0.0316
      7 N          -1.8208   -0.1163    0.7086 N.pl3   1  UNL1       -0.2946
      8 C          -1.9275   -1.3988    1.3110 C.ar    1  UNL1        0.2180
      9 N          -2.6584   -2.3901    0.8060 N.ar    1  UNL1       -0.2199
     10 C          -2.7508   -3.6096    1.3922 C.ar    1  UNL1        0.0679
     11 C          -2.0624   -3.8468    2.5636 C.ar    1  UNL1        0.1595
     12 F          -2.1399   -5.0596    3.1677 F       1  UNL1       -0.2023
     13 C          -1.3019   -2.8166    3.0898 C.ar    1  UNL1        0.0679
     14 N          -1.2580   -1.6313    2.4514 N.ar    1  UNL1       -0.2199
     15 C          -1.0838    1.0427    1.1530 C.3     1  UNL1        0.0603
     16 C          -0.7094    1.7271   -0.1174 C.3     1  UNL1        0.1853
     17 C           0.4883    1.0429   -0.7336 C.ar    1  UNL1        0.0358
     18 C           1.1967   -0.0032   -0.3437 C.ar    1  UNL1       -0.0400
     19 C           2.2413   -0.4350   -1.0688 C.ar    1  UNL1       -0.0105
     20 C           3.0970   -1.6188   -0.6918 C.ar    1  UNL1       -0.0162
     21 C           3.2608   -1.8518    0.6484 C.ar    1  UNL1       -0.0539
     22 C           4.0346   -2.9229    1.0564 C.ar    1  UNL1       -0.0600
     23 C           4.6277   -3.7374    0.1022 C.ar    1  UNL1       -0.0443
     24 C           4.4645   -3.5052   -1.2452 C.ar    1  UNL1        0.0523
     25 C           5.0914   -4.3622   -2.1995 C.1     1  UNL1        0.0992
     26 N           5.6224   -5.0545   -2.9907 N.1     1  UNL1       -0.1909
     27 C           3.6744   -2.4118   -1.6264 C.ar    1  UNL1       -0.0366
     28 C           2.5201    0.2786   -2.2328 C.ar    1  UNL1       -0.0162
     29 S           1.2296    1.5573   -2.2095 S.2     1  UNL1       -0.0971
     30 N          -0.3181    3.0998    0.0543 N.2     1  UNL1       -0.1023
     31 C          -1.0461    4.1275   -0.1324 C.2     1  UNL1        0.3722
     32 N          -0.5894    5.4633    0.0573 N.pl3   1  UNL1       -0.2512
     33 H          -4.2816    4.7361   -0.8275 H       1  UNL1        0.0602
     34 H          -2.9882    5.6180   -1.7168 H       1  UNL1        0.0602
     35 H          -3.1701    5.8059    0.0759 H       1  UNL1        0.0602
     36 H          -1.6307    1.4379   -2.0585 H       1  UNL1        0.0468
     37 H          -3.5865    0.2465   -0.3998 H       1  UNL1        0.0474
     38 H          -2.2734   -0.6058   -1.2707 H       1  UNL1        0.0474
     39 H          -3.3416   -4.4195    0.9893 H       1  UNL1        0.0860
     40 H          -0.7718   -3.0262    4.0074 H       1  UNL1        0.0860
     41 H          -0.2122    0.7047    1.7609 H       1  UNL1        0.0507
     42 H          -1.7493    1.7157    1.7408 H       1  UNL1        0.0507
     43 H           0.9185   -0.5376    0.6066 H       1  UNL1        0.0633
     44 H           2.7816   -1.1936    1.3653 H       1  UNL1        0.0624
     45 H           4.1679   -3.1121    2.1013 H       1  UNL1        0.0618
     46 H           5.2274   -4.5673    0.4587 H       1  UNL1        0.0630
     47 H           3.5377   -2.2181   -2.6613 H       1  UNL1        0.0636
     48 H           3.2990    0.1568   -3.0079 H       1  UNL1        0.0699
     49 H           0.4428    5.6505   -0.0978 H       1  UNL1        0.2412
     50 H          -1.1719    6.2577    0.3302 H       1  UNL1        0.2412
@<TRIPOS>BOND
     1     1     2    1
     2     2     3   am
     3     3     4    2
     4     3     5    1
     5     5     6    1
     6     6     7    1
     7     7     8    1
     8     8     9   ar
     9     9    10   ar
    10    10    11   ar
    11    11    12    1
    12    11    13   ar
    13    13    14   ar
    14     7    15    1
    15    15    16    1
    16    16    17    1
    17    17    18   ar
    18    18    19   ar
    19    19    20    1
    20    20    21   ar
    21    21    22   ar
    22    22    23   ar
    23    23    24   ar
    24    24    25    1
    25    25    26    3
    26    24    27   ar
    27    19    28   ar
    28    28    29   ar
    29    16    30    1
    30    30    31    2
    31    31    32    1
    32    31     2    1
    33    16     5    1
    34    29    17   ar
    35    14     8   ar
    36    27    20   ar
    37     1    33    1
    38     1    34    1
    39     1    35    1
    40     5    36    1
    41     6    37    1
    42     6    38    1
    43    10    39    1
    44    13    40    1
    45    15    41    1
    46    15    42    1
    47    18    43    1
    48    21    44    1
    49    22    45    1
    50    23    46    1
    51    27    47    1
    52    28    48    1
    53    32    49    1
    54    32    50    1
