
     RDKit          3D

 50 54  0  0  0  0  0  0  0  0999 V2000
   -3.2324    5.0920   -0.7718 C   0  0  0  0  0  0  0  0  0  0  0  0
   -2.3956    3.9253   -0.5563 N   0  0  0  0  0  0  0  0  0  0  0  0
   -2.9000    2.6104   -0.7605 C   0  0  0  0  0  0  0  0  0  0  0  0
   -4.1396    2.4084   -0.7413 O   0  0  0  0  0  0  0  0  0  0  0  0
   -1.9049    1.5313   -0.9895 C   0  0  2  0  0  0  0  0  0  0  0  0
   -2.5072    0.2159   -0.5470 C   0  0  0  0  0  0  0  0  0  0  0  0
   -1.8208   -0.1163    0.7086 N   0  0  0  0  0  0  0  0  0  0  0  0
   -1.9275   -1.3988    1.3110 C   0  0  0  0  0  0  0  0  0  0  0  0
   -2.6584   -2.3901    0.8060 N   0  0  0  0  0  0  0  0  0  0  0  0
   -2.7508   -3.6096    1.3922 C   0  0  0  0  0  0  0  0  0  0  0  0
   -2.0624   -3.8468    2.5636 C   0  0  0  0  0  0  0  0  0  0  0  0
   -2.1399   -5.0596    3.1677 F   0  0  0  0  0  0  0  0  0  0  0  0
   -1.3019   -2.8166    3.0898 C   0  0  0  0  0  0  0  0  0  0  0  0
   -1.2580   -1.6313    2.4514 N   0  0  0  0  0  0  0  0  0  0  0  0
   -1.0838    1.0427    1.1530 C   0  0  0  0  0  0  0  0  0  0  0  0
   -0.7094    1.7271   -0.1174 C   0  0  1  0  0  0  0  0  0  0  0  0
    0.4883    1.0429   -0.7336 C   0  0  0  0  0  0  0  0  0  0  0  0
    1.1967   -0.0032   -0.3437 C   0  0  0  0  0  0  0  0  0  0  0  0
    2.2413   -0.4350   -1.0688 C   0  0  0  0  0  0  0  0  0  0  0  0
    3.0970   -1.6188   -0.6918 C   0  0  0  0  0  0  0  0  0  0  0  0
    3.2608   -1.8518    0.6484 C   0  0  0  0  0  0  0  0  0  0  0  0
    4.0346   -2.9229    1.0564 C   0  0  0  0  0  0  0  0  0  0  0  0
    4.6277   -3.7374    0.1022 C   0  0  0  0  0  0  0  0  0  0  0  0
    4.4645   -3.5052   -1.2452 C   0  0  0  0  0  0  0  0  0  0  0  0
    5.0914   -4.3622   -2.1995 C   0  0  0  0  0  0  0  0  0  0  0  0
    5.6224   -5.0545   -2.9907 N   0  0  0  0  0  0  0  0  0  0  0  0
    3.6744   -2.4118   -1.6264 C   0  0  0  0  0  0  0  0  0  0  0  0
    2.5201    0.2786   -2.2328 C   0  0  0  0  0  0  0  0  0  0  0  0
    1.2296    1.5573   -2.2095 S   0  0  0  0  0  0  0  0  0  0  0  0
   -0.3181    3.0998    0.0543 N   0  0  0  0  0  0  0  0  0  0  0  0
   -1.0461    4.1275   -0.1324 C   0  0  0  0  0  0  0  0  0  0  0  0
   -0.5894    5.4633    0.0573 N   0  0  0  0  0  0  0  0  0  0  0  0
   -4.2816    4.7361   -0.8275 H   0  0  0  0  0  0  0  0  0  0  0  0
   -2.9882    5.6180   -1.7168 H   0  0  0  0  0  0  0  0  0  0  0  0
   -3.1701    5.8059    0.0759 H   0  0  0  0  0  0  0  0  0  0  0  0
   -1.6307    1.4379   -2.0585 H   0  0  0  0  0  0  0  0  0  0  0  0
   -3.5865    0.2465   -0.3998 H   0  0  0  0  0  0  0  0  0  0  0  0
   -2.2734   -0.6058   -1.2707 H   0  0  0  0  0  0  0  0  0  0  0  0
   -3.3416   -4.4195    0.9893 H   0  0  0  0  0  0  0  0  0  0  0  0
   -0.7718   -3.0262    4.0074 H   0  0  0  0  0  0  0  0  0  0  0  0
   -0.2122    0.7047    1.7609 H   0  0  0  0  0  0  0  0  0  0  0  0
   -1.7493    1.7157    1.7408 H   0  0  0  0  0  0  0  0  0  0  0  0
    0.9185   -0.5376    0.6066 H   0  0  0  0  0  0  0  0  0  0  0  0
    2.7816   -1.1936    1.3653 H   0  0  0  0  0  0  0  0  0  0  0  0
    4.1679   -3.1121    2.1013 H   0  0  0  0  0  0  0  0  0  0  0  0
    5.2274   -4.5673    0.4587 H   0  0  0  0  0  0  0  0  0  0  0  0
    3.5377   -2.2181   -2.6613 H   0  0  0  0  0  0  0  0  0  0  0  0
    3.2990    0.1568   -3.0079 H   0  0  0  0  0  0  0  0  0  0  0  0
    0.4428    5.6505   -0.0978 H   0  0  0  0  0  0  0  0  0  0  0  0
   -1.1719    6.2577    0.3302 H   0  0  0  0  0  0  0  0  0  0  0  0
  1  2  1  0
  2  3  1  0
  3  4  2  0
  3  5  1  0
  5  6  1  0
  6  7  1  0
  7  8  1  0
  8  9  2  0
  9 10  1  0
 10 11  2  0
 11 12  1  0
 11 13  1  0
 13 14  2  0
  7 15  1  0
 15 16  1  0
 16 17  1  6
 17 18  2  0
 18 19  1  0
 19 20  1  0
 20 21  2  0
 21 22  1  0
 22 23  2  0
 23 24  1  0
 24 25  1  0
 25 26  3  0
 24 27  2  0
 19 28  2  0
 28 29  1  0
 16 30  1  0
 30 31  2  0
 31 32  1  0
 31  2  1  0
 16  5  1  0
 29 17  1  0
 14  8  1  0
 27 20  1  0
  1 33  1  0
  1 34  1  0
  1 35  1  0
  5 36  1  6
  6 37  1  0
  6 38  1  0
 10 39  1  0
 13 40  1  0
 15 41  1  0
 15 42  1  0
 18 43  1  0
 21 44  1  0
 22 45  1  0
 23 46  1  0
 27 47  1  0
 28 48  1  0
 32 49  1  0
 32 50  1  0
M  END
$$$$
