@<TRIPOS>MOLECULE
*****
 21 22 0 0 0
SMALL
GASTEIGER

@<TRIPOS>ATOM
      1 C           2.7529    1.5969    0.4361 C.3     1  UNL1        0.0325
      2 N           2.1249    0.3637    0.0045 N.ar    1  UNL1       -0.2467
      3 N           2.8273   -0.6587   -0.4331 N.ar    1  UNL1       -0.1582
      4 C           2.2460   -1.8067   -0.8351 C.ar    1  UNL1        0.1372
      5 N           0.9178   -2.0081   -0.8256 N.ar    1  UNL1       -0.2251
      6 C           0.1233   -1.0179   -0.3943 C.ar    1  UNL1        0.1737
      7 C          -1.2534   -1.1170   -0.3424 C.ar    1  UNL1        0.2841
      8 O          -1.8173   -2.1868   -0.7156 O.2     1  UNL1       -0.2651
      9 N          -1.9921   -0.0834    0.1019 N.ar    1  UNL1       -0.2607
     10 C          -3.4589   -0.1687    0.1649 C.3     1  UNL1        0.0197
     11 C          -1.3609    1.0390    0.4908 C.ar    1  UNL1        0.3529
     12 O          -2.0472    2.0101    0.9078 O.2     1  UNL1       -0.2443
     13 N          -0.0248    1.2008    0.4656 N.ar    1  UNL1       -0.1717
     14 C           0.7867    0.2168    0.0356 C.ar    1  UNL1        0.1857
     15 H           2.0138    2.4318    0.3836 H       1  UNL1        0.0473
     16 H           3.5939    1.8866   -0.2138 H       1  UNL1        0.0473
     17 H           3.0666    1.4648    1.4984 H       1  UNL1        0.0473
     18 H           2.8748   -2.6172   -1.1868 H       1  UNL1        0.1065
     19 H          -3.7547    0.2850    1.1167 H       1  UNL1        0.0458
     20 H          -3.8573    0.3924   -0.7097 H       1  UNL1        0.0458
     21 H          -3.7615   -1.2233    0.0505 H       1  UNL1        0.0458
@<TRIPOS>BOND
     1     1     2    1
     2     2     3   ar
     3     3     4   ar
     4     4     5   ar
     5     5     6   ar
     6     6     7   ar
     7     7     8    2
     8     7     9   ar
     9     9    10    1
    10     9    11   ar
    11    11    12    2
    12    11    13   ar
    13    13    14   ar
    14    14     2   ar
    15    14     6    1
    16     1    15    1
    17     1    16    1
    18     1    17    1
    19     4    18    1
    20    10    19    1
    21    10    20    1
    22    10    21    1
