
     RDKit          3D

 21 22  0  0  0  0  0  0  0  0999 V2000
    2.7529    1.5969    0.4361 C   0  0  0  0  0  0  0  0  0  0  0  0
    2.1249    0.3637    0.0045 N   0  0  0  0  0  0  0  0  0  0  0  0
    2.8273   -0.6587   -0.4331 N   0  0  0  0  0  0  0  0  0  0  0  0
    2.2460   -1.8067   -0.8351 C   0  0  0  0  0  0  0  0  0  0  0  0
    0.9178   -2.0081   -0.8256 N   0  0  0  0  0  0  0  0  0  0  0  0
    0.1233   -1.0179   -0.3943 C   0  0  0  0  0  0  0  0  0  0  0  0
   -1.2534   -1.1170   -0.3424 C   0  0  0  0  0  0  0  0  0  0  0  0
   -1.8173   -2.1868   -0.7156 O   0  0  0  0  0  0  0  0  0  0  0  0
   -1.9921   -0.0834    0.1019 N   0  0  0  0  0  0  0  0  0  0  0  0
   -3.4589   -0.1687    0.1649 C   0  0  0  0  0  0  0  0  0  0  0  0
   -1.3609    1.0390    0.4908 C   0  0  0  0  0  0  0  0  0  0  0  0
   -2.0472    2.0101    0.9078 O   0  0  0  0  0  0  0  0  0  0  0  0
   -0.0248    1.2008    0.4656 N   0  0  0  0  0  0  0  0  0  0  0  0
    0.7867    0.2168    0.0356 C   0  0  0  0  0  0  0  0  0  0  0  0
    2.0138    2.4318    0.3836 H   0  0  0  0  0  0  0  0  0  0  0  0
    3.5939    1.8866   -0.2138 H   0  0  0  0  0  0  0  0  0  0  0  0
    3.0666    1.4648    1.4984 H   0  0  0  0  0  0  0  0  0  0  0  0
    2.8748   -2.6172   -1.1868 H   0  0  0  0  0  0  0  0  0  0  0  0
   -3.7547    0.2850    1.1167 H   0  0  0  0  0  0  0  0  0  0  0  0
   -3.8573    0.3924   -0.7097 H   0  0  0  0  0  0  0  0  0  0  0  0
   -3.7615   -1.2233    0.0505 H   0  0  0  0  0  0  0  0  0  0  0  0
  1  2  1  0
  2  3  1  0
  3  4  2  0
  4  5  1  0
  5  6  2  0
  6  7  1  0
  7  8  2  0
  7  9  1  0
  9 10  1  0
  9 11  1  0
 11 12  2  0
 11 13  1  0
 13 14  2  0
 14  2  1  0
 14  6  1  0
  1 15  1  0
  1 16  1  0
  1 17  1  0
  4 18  1  0
 10 19  1  0
 10 20  1  0
 10 21  1  0
M  END
$$$$
