
     RDKit          3D

 67 71  0  0  0  0  0  0  0  0999 V2000
    3.5137    0.1271   -0.6327 O   0  0  0  0  0  0  0  0  0  0  0  0
    3.4578   -0.9652   -0.0431 C   0  0  0  0  0  0  0  0  0  0  0  0
    4.6876   -1.7188    0.3742 C   0  0  0  0  0  0  0  0  0  0  0  0
    5.8845   -0.9887   -0.0105 N   0  0  0  0  0  0  0  0  0  0  0  0
    6.1648    0.3147    0.4553 C   0  0  0  0  0  0  0  0  0  0  0  0
    5.3360    0.8612    1.2377 O   0  0  0  0  0  0  0  0  0  0  0  0
    7.3484    1.0521    0.0829 C   0  0  0  0  0  0  0  0  0  0  0  0
    7.5747    2.3427    0.5672 C   0  0  0  0  0  0  0  0  0  0  0  0
    8.6944    3.0709    0.2336 C   0  0  0  0  0  0  0  0  0  0  0  0
    9.6506    2.5439   -0.6053 C   0  0  0  0  0  0  0  0  0  0  0  0
    9.4504    1.2743   -1.0953 C   0  0  0  0  0  0  0  0  0  0  0  0
   10.4849    0.7021   -2.0039 C   0  0  0  0  0  0  0  0  0  0  0  0
   11.2983   -0.1932   -1.3358 F   0  0  0  0  0  0  0  0  0  0  0  0
    9.7996   -0.0212   -2.9735 F   0  0  0  0  0  0  0  0  0  0  0  0
   11.1995    1.6741   -2.6422 F   0  0  0  0  0  0  0  0  0  0  0  0
    8.3097    0.5407   -0.7513 C   0  0  0  0  0  0  0  0  0  0  0  0
    2.1972   -1.5339    0.2537 N   0  0  0  0  0  0  0  0  0  0  0  0
    0.9789   -0.8821   -0.1068 C   0  0  0  0  0  0  0  0  0  0  0  0
   -0.0798   -1.7257   -0.7709 C   0  0  0  0  0  0  0  0  0  0  0  0
   -0.8712   -1.5961    0.3791 N   0  0  0  0  0  0  0  0  0  0  0  0
   -2.2706   -1.5149    0.3574 C   0  0  1  0  0  0  0  0  0  0  0  0
   -2.8096   -1.3283    1.7507 C   0  0  0  0  0  0  0  0  0  0  0  0
   -3.2840    0.0314    2.0731 C   0  0  0  0  0  0  0  0  0  0  0  0
   -3.9690    0.8022    1.0121 C   0  0  2  0  0  0  0  0  0  0  0  0
   -3.9874    2.1530    1.4514 O   0  0  0  0  0  0  0  0  0  0  0  0
   -5.3723    0.4419    0.7594 C   0  0  0  0  0  0  0  0  0  0  0  0
   -6.1087   -0.4707    1.4798 C   0  0  0  0  0  0  0  0  0  0  0  0
   -7.4255   -0.7687    1.1827 C   0  0  0  0  0  0  0  0  0  0  0  0
   -8.0548   -0.1421    0.1264 C   0  0  0  0  0  0  0  0  0  0  0  0
   -7.3521    0.7642   -0.6035 C   0  0  0  0  0  0  0  0  0  0  0  0
   -6.0214    1.0546   -0.2901 C   0  0  0  0  0  0  0  0  0  0  0  0
   -8.1956    1.2647   -1.6186 O   0  0  0  0  0  0  0  0  0  0  0  0
   -9.2379    0.3252   -1.8330 C   0  0  0  0  0  0  0  0  0  0  0  0
   -9.4342   -0.2343   -0.4412 C   0  0  0  0  0  0  0  0  0  0  0  0
   -3.1036    0.7868   -0.2174 C   0  0  0  0  0  0  0  0  0  0  0  0
   -2.9071   -0.6166   -0.6528 C   0  0  0  0  0  0  0  0  0  0  0  0
   -0.0257   -0.6625    0.9853 C   0  0  0  0  0  0  0  0  0  0  0  0
    4.7319   -2.7133   -0.1103 H   0  0  0  0  0  0  0  0  0  0  0  0
    4.6062   -1.8807    1.4541 H   0  0  0  0  0  0  0  0  0  0  0  0
    6.5709   -1.4336   -0.6551 H   0  0  0  0  0  0  0  0  0  0  0  0
    6.8038    2.7384    1.2288 H   0  0  0  0  0  0  0  0  0  0  0  0
    8.8522    4.0674    0.6175 H   0  0  0  0  0  0  0  0  0  0  0  0
   10.5385    3.0948   -0.8816 H   0  0  0  0  0  0  0  0  0  0  0  0
    8.2225   -0.4546   -1.1786 H   0  0  0  0  0  0  0  0  0  0  0  0
    2.1754   -2.4692    0.7581 H   0  0  0  0  0  0  0  0  0  0  0  0
    1.1806    0.0916   -0.6175 H   0  0  0  0  0  0  0  0  0  0  0  0
    0.2675   -2.7714   -0.9343 H   0  0  0  0  0  0  0  0  0  0  0  0
   -0.4586   -1.3384   -1.7343 H   0  0  0  0  0  0  0  0  0  0  0  0
   -2.6179   -2.5616    0.0631 H   0  0  0  0  0  0  0  0  0  0  0  0
   -1.9750   -1.5637    2.4821 H   0  0  0  0  0  0  0  0  0  0  0  0
   -3.5881   -2.0696    2.0292 H   0  0  0  0  0  0  0  0  0  0  0  0
   -2.4512    0.6865    2.4744 H   0  0  0  0  0  0  0  0  0  0  0  0
   -3.9796   -0.0463    2.9619 H   0  0  0  0  0  0  0  0  0  0  0  0
   -4.2288    2.6793    0.6338 H   0  0  0  0  0  0  0  0  0  0  0  0
   -5.6668   -0.9716    2.2996 H   0  0  0  0  0  0  0  0  0  0  0  0
   -7.9568   -1.4858    1.7733 H   0  0  0  0  0  0  0  0  0  0  0  0
   -5.5471    1.7926   -0.9309 H   0  0  0  0  0  0  0  0  0  0  0  0
  -10.1538    0.7720   -2.2160 H   0  0  0  0  0  0  0  0  0  0  0  0
   -8.8806   -0.5226   -2.4905 H   0  0  0  0  0  0  0  0  0  0  0  0
  -10.0523    0.4677    0.1715 H   0  0  0  0  0  0  0  0  0  0  0  0
   -9.8271   -1.2599   -0.4329 H   0  0  0  0  0  0  0  0  0  0  0  0
   -3.5771    1.3301   -1.0785 H   0  0  0  0  0  0  0  0  0  0  0  0
   -2.1800    1.3601   -0.0226 H   0  0  0  0  0  0  0  0  0  0  0  0
   -3.9387   -1.0178   -0.9025 H   0  0  0  0  0  0  0  0  0  0  0  0
   -2.3583   -0.6217   -1.5968 H   0  0  0  0  0  0  0  0  0  0  0  0
   -0.3454    0.3727    1.1330 H   0  0  0  0  0  0  0  0  0  0  0  0
    0.3132   -1.0363    2.0015 H   0  0  0  0  0  0  0  0  0  0  0  0
  1  2  2  0
  2  3  1  0
  3  4  1  0
  4  5  1  0
  5  6  2  0
  5  7  1  0
  7  8  2  0
  8  9  1  0
  9 10  2  0
 10 11  1  0
 11 12  1  0
 12 13  1  0
 12 14  1  0
 12 15  1  0
 11 16  2  0
  2 17  1  0
 17 18  1  0
 18 19  1  0
 19 20  1  0
 20 21  1  0
 21 22  1  0
 22 23  1  0
 23 24  1  0
 24 25  1  1
 24 26  1  0
 26 27  2  0
 27 28  1  0
 28 29  2  0
 29 30  1  0
 30 31  2  0
 30 32  1  0
 32 33  1  0
 33 34  1  0
 24 35  1  0
 35 36  1  0
 20 37  1  0
 16  7  1  0
 37 18  1  0
 36 21  1  0
 31 26  1  0
 34 29  1  0
  3 38  1  0
  3 39  1  0
  4 40  1  0
  8 41  1  0
  9 42  1  0
 10 43  1  0
 16 44  1  0
 17 45  1  0
 18 46  1  0
 19 47  1  0
 19 48  1  0
 21 49  1  6
 22 50  1  0
 22 51  1  0
 23 52  1  0
 23 53  1  0
 25 54  1  0
 27 55  1  0
 28 56  1  0
 31 57  1  0
 33 58  1  0
 33 59  1  0
 34 60  1  0
 34 61  1  0
 35 62  1  0
 35 63  1  0
 36 64  1  0
 36 65  1  0
 37 66  1  0
 37 67  1  0
M  END
$$$$
