@<TRIPOS>MOLECULE
*****
 67 71 0 0 0
SMALL
GASTEIGER

@<TRIPOS>ATOM
      1 O           3.5137    0.1271   -0.6327 O.2     1  UNL1       -0.2741
      2 C           3.4578   -0.9652   -0.0431 C.2     1  UNL1        0.2305
      3 C           4.6876   -1.7188    0.3742 C.3     1  UNL1        0.0884
      4 N           5.8845   -0.9887   -0.0105 N.am    1  UNL1       -0.3028
      5 C           6.1648    0.3147    0.4553 C.2     1  UNL1        0.2445
      6 O           5.3360    0.8612    1.2377 O.2     1  UNL1       -0.2702
      7 C           7.3484    1.0521    0.0829 C.ar    1  UNL1        0.0372
      8 C           7.5747    2.3427    0.5672 C.ar    1  UNL1       -0.0496
      9 C           8.6944    3.0709    0.2336 C.ar    1  UNL1       -0.0605
     10 C           9.6506    2.5439   -0.6053 C.ar    1  UNL1       -0.0501
     11 C           9.4504    1.2743   -1.0953 C.ar    1  UNL1        0.0555
     12 C          10.4849    0.7021   -2.0039 C.3     1  UNL1        0.4174
     13 F          11.2983   -0.1932   -1.3358 F       1  UNL1       -0.1659
     14 F           9.7996   -0.0212   -2.9735 F       1  UNL1       -0.1659
     15 F          11.1995    1.6741   -2.6422 F       1  UNL1       -0.1659
     16 C           8.3097    0.5407   -0.7513 C.ar    1  UNL1       -0.0380
     17 N           2.1972   -1.5339    0.2537 N.am    1  UNL1       -0.3087
     18 C           0.9789   -0.8821   -0.1068 C.3     1  UNL1        0.0486
     19 C          -0.0798   -1.7257   -0.7709 C.3     1  UNL1        0.0189
     20 N          -0.8712   -1.5961    0.3791 N.3     1  UNL1       -0.2958
     21 C          -2.2706   -1.5149    0.3574 C.3     1  UNL1        0.0107
     22 C          -2.8096   -1.3283    1.7507 C.3     1  UNL1       -0.0344
     23 C          -3.2840    0.0314    2.0731 C.3     1  UNL1       -0.0184
     24 C          -3.9690    0.8022    1.0121 C.3     1  UNL1        0.0912
     25 O          -3.9874    2.1530    1.4514 O.3     1  UNL1       -0.3840
     26 C          -5.3723    0.4419    0.7594 C.ar    1  UNL1       -0.0127
     27 C          -6.1087   -0.4707    1.4798 C.ar    1  UNL1       -0.0554
     28 C          -7.4255   -0.7687    1.1827 C.ar    1  UNL1       -0.0547
     29 C          -8.0548   -0.1421    0.1264 C.ar    1  UNL1       -0.0025
     30 C          -7.3521    0.7642   -0.6035 C.ar    1  UNL1        0.1241
     31 C          -6.0214    1.0546   -0.2901 C.ar    1  UNL1       -0.0138
     32 O          -8.1956    1.2647   -1.6186 O.3     1  UNL1       -0.4914
     33 C          -9.2379    0.3252   -1.8330 C.3     1  UNL1        0.0937
     34 C          -9.4342   -0.2343   -0.4412 C.3     1  UNL1        0.0101
     35 C          -3.1036    0.7868   -0.2174 C.3     1  UNL1       -0.0184
     36 C          -2.9071   -0.6166   -0.6528 C.3     1  UNL1       -0.0344
     37 C          -0.0257   -0.6625    0.9853 C.3     1  UNL1        0.0189
     38 H           4.7319   -2.7133   -0.1103 H       1  UNL1        0.0558
     39 H           4.6062   -1.8807    1.4541 H       1  UNL1        0.0558
     40 H           6.5709   -1.4336   -0.6551 H       1  UNL1        0.1495
     41 H           6.8038    2.7384    1.2288 H       1  UNL1        0.0625
     42 H           8.8522    4.0674    0.6175 H       1  UNL1        0.0618
     43 H          10.5385    3.0948   -0.8816 H       1  UNL1        0.0623
     44 H           8.2225   -0.4546   -1.1786 H       1  UNL1        0.0631
     45 H           2.1754   -2.4692    0.7581 H       1  UNL1        0.1491
     46 H           1.1806    0.0916   -0.6175 H       1  UNL1        0.0523
     47 H           0.2675   -2.7714   -0.9343 H       1  UNL1        0.0445
     48 H          -0.4586   -1.3384   -1.7343 H       1  UNL1        0.0445
     49 H          -2.6179   -2.5616    0.0631 H       1  UNL1        0.0462
     50 H          -1.9750   -1.5637    2.4821 H       1  UNL1        0.0281
     51 H          -3.5881   -2.0696    2.0292 H       1  UNL1        0.0281
     52 H          -2.4512    0.6865    2.4744 H       1  UNL1        0.0297
     53 H          -3.9796   -0.0463    2.9619 H       1  UNL1        0.0297
     54 H          -4.2288    2.6793    0.6338 H       1  UNL1        0.2106
     55 H          -5.6668   -0.9716    2.2996 H       1  UNL1        0.0621
     56 H          -7.9568   -1.4858    1.7733 H       1  UNL1        0.0622
     57 H          -5.5471    1.7926   -0.9309 H       1  UNL1        0.0658
     58 H         -10.1538    0.7720   -2.2160 H       1  UNL1        0.0700
     59 H          -8.8806   -0.5226   -2.4905 H       1  UNL1        0.0700
     60 H         -10.0523    0.4677    0.1715 H       1  UNL1        0.0347
     61 H          -9.8271   -1.2599   -0.4329 H       1  UNL1        0.0347
     62 H          -3.5771    1.3301   -1.0785 H       1  UNL1        0.0297
     63 H          -2.1800    1.3601   -0.0226 H       1  UNL1        0.0297
     64 H          -3.9387   -1.0178   -0.9025 H       1  UNL1        0.0281
     65 H          -2.3583   -0.6217   -1.5968 H       1  UNL1        0.0281
     66 H          -0.3454    0.3727    1.1330 H       1  UNL1        0.0445
     67 H           0.3132   -1.0363    2.0015 H       1  UNL1        0.0445
@<TRIPOS>BOND
     1     1     2    2
     2     2     3    1
     3     3     4    1
     4     4     5   am
     5     5     6    2
     6     5     7    1
     7     7     8   ar
     8     8     9   ar
     9     9    10   ar
    10    10    11   ar
    11    11    12    1
    12    12    13    1
    13    12    14    1
    14    12    15    1
    15    11    16   ar
    16     2    17   am
    17    17    18    1
    18    18    19    1
    19    19    20    1
    20    20    21    1
    21    21    22    1
    22    22    23    1
    23    23    24    1
    24    24    25    1
    25    24    26    1
    26    26    27   ar
    27    27    28   ar
    28    28    29   ar
    29    29    30   ar
    30    30    31   ar
    31    30    32    1
    32    32    33    1
    33    33    34    1
    34    24    35    1
    35    35    36    1
    36    20    37    1
    37    16     7   ar
    38    37    18    1
    39    36    21    1
    40    31    26   ar
    41    34    29    1
    42     3    38    1
    43     3    39    1
    44     4    40    1
    45     8    41    1
    46     9    42    1
    47    10    43    1
    48    16    44    1
    49    17    45    1
    50    18    46    1
    51    19    47    1
    52    19    48    1
    53    21    49    1
    54    22    50    1
    55    22    51    1
    56    23    52    1
    57    23    53    1
    58    25    54    1
    59    27    55    1
    60    28    56    1
    61    31    57    1
    62    33    58    1
    63    33    59    1
    64    34    60    1
    65    34    61    1
    66    35    62    1
    67    35    63    1
    68    36    64    1
    69    36    65    1
    70    37    66    1
    71    37    67    1
