
     RDKit          3D

 40 40  0  0  0  0  0  0  0  0999 V2000
    4.9493   -0.7202   -2.3558 C   0  0  0  0  0  0  0  0  0  0  0  0
    4.2889   -0.4235   -1.0768 C   0  0  0  0  0  0  0  0  0  0  0  0
    2.9138   -0.3446   -0.9791 C   0  0  0  0  0  0  0  0  0  0  0  0
    2.3566   -0.0618    0.2545 C   0  0  0  0  0  0  0  0  0  0  0  0
    0.9903    0.0430    0.4769 O   0  0  0  0  0  0  0  0  0  0  0  0
    0.0357   -0.1335   -0.5562 C   0  0  0  0  0  0  0  0  0  0  0  0
   -1.3494    0.0486    0.0302 C   0  0  0  0  0  0  0  0  0  0  0  0
   -2.4187   -0.1228   -1.0020 C   0  0  0  0  0  0  0  0  0  0  0  0
   -3.7749    0.0666   -0.3737 C   0  0  0  0  0  0  0  0  0  0  0  0
   -4.0264   -0.9363    0.7341 C   0  0  0  0  0  0  0  0  0  0  0  0
   -4.8202   -0.2170   -1.4602 C   0  0  0  0  0  0  0  0  0  0  0  0
   -4.0292    1.4546    0.0738 C   0  0  0  0  0  0  0  0  0  0  0  0
   -3.3272    2.2100    1.0025 O   0  0  0  0  0  0  0  0  0  0  0  0
   -4.9438    2.2558   -0.2938 O   0  0  0  0  0  0  0  0  0  0  0  0
    3.1509    0.1423    1.3868 C   0  0  0  0  0  0  0  0  0  0  0  0
    2.5626    0.4463    2.7147 C   0  0  0  0  0  0  0  0  0  0  0  0
    4.5439    0.0600    1.2764 C   0  0  0  0  0  0  0  0  0  0  0  0
    5.0816   -0.2230    0.0379 C   0  0  0  0  0  0  0  0  0  0  0  0
    5.4808    0.1710   -2.7898 H   0  0  0  0  0  0  0  0  0  0  0  0
    5.7783   -1.4377   -2.1340 H   0  0  0  0  0  0  0  0  0  0  0  0
    4.2572   -1.0493   -3.1366 H   0  0  0  0  0  0  0  0  0  0  0  0
    2.2650   -0.4951   -1.8269 H   0  0  0  0  0  0  0  0  0  0  0  0
    0.0750   -1.1647   -0.9476 H   0  0  0  0  0  0  0  0  0  0  0  0
    0.2286    0.6112   -1.3462 H   0  0  0  0  0  0  0  0  0  0  0  0
   -1.3753    1.0494    0.4540 H   0  0  0  0  0  0  0  0  0  0  0  0
   -1.4529   -0.7016    0.8346 H   0  0  0  0  0  0  0  0  0  0  0  0
   -2.3835   -1.0793   -1.5212 H   0  0  0  0  0  0  0  0  0  0  0  0
   -2.3171    0.6613   -1.7804 H   0  0  0  0  0  0  0  0  0  0  0  0
   -3.7654   -1.9322    0.3357 H   0  0  0  0  0  0  0  0  0  0  0  0
   -3.4952   -0.6534    1.6550 H   0  0  0  0  0  0  0  0  0  0  0  0
   -5.1079   -0.9543    0.9421 H   0  0  0  0  0  0  0  0  0  0  0  0
   -5.7926    0.0896   -1.0196 H   0  0  0  0  0  0  0  0  0  0  0  0
   -4.8048   -1.2889   -1.6981 H   0  0  0  0  0  0  0  0  0  0  0  0
   -4.6069    0.4530   -2.3014 H   0  0  0  0  0  0  0  0  0  0  0  0
   -3.7346    2.5714    1.8556 H   0  0  0  0  0  0  0  0  0  0  0  0
    3.3030    0.1967    3.5007 H   0  0  0  0  0  0  0  0  0  0  0  0
    2.3469    1.5391    2.8374 H   0  0  0  0  0  0  0  0  0  0  0  0
    1.6186   -0.0885    2.9040 H   0  0  0  0  0  0  0  0  0  0  0  0
    5.1292    0.2239    2.1751 H   0  0  0  0  0  0  0  0  0  0  0  0
    6.1697   -0.2659    0.0541 H   0  0  0  0  0  0  0  0  0  0  0  0
  1  2  1  0
  2  3  2  0
  3  4  1  0
  4  5  1  0
  5  6  1  0
  6  7  1  0
  7  8  1  0
  8  9  1  0
  9 10  1  0
  9 11  1  0
  9 12  1  0
 12 13  1  0
 12 14  2  0
  4 15  2  0
 15 16  1  0
 15 17  1  0
 17 18  2  0
 18  2  1  0
  1 19  1  0
  1 20  1  0
  1 21  1  0
  3 22  1  0
  6 23  1  0
  6 24  1  0
  7 25  1  0
  7 26  1  0
  8 27  1  0
  8 28  1  0
 10 29  1  0
 10 30  1  0
 10 31  1  0
 11 32  1  0
 11 33  1  0
 11 34  1  0
 13 35  1  0
 16 36  1  0
 16 37  1  0
 16 38  1  0
 17 39  1  0
 18 40  1  0
M  END
$$$$
