@<TRIPOS>MOLECULE
*****
 51 55 0 0 0
SMALL
GASTEIGER

@<TRIPOS>ATOM
      1 C          -4.4116   -1.6138    1.4388 C.3     1  UNL1        0.0166
      2 N          -3.1338   -1.3235    0.8584 N.ar    1  UNL1       -0.2957
      3 C          -1.9950   -1.7583    1.4242 C.ar    1  UNL1        0.2544
      4 O          -2.1344   -2.4409    2.4966 O.2     1  UNL1       -0.2676
      5 C          -0.7795   -1.4943    0.8986 C.ar    1  UNL1        0.0249
      6 C          -0.6511   -0.7365   -0.2870 C.ar    1  UNL1        0.0488
      7 N           0.6306   -0.5896   -0.8277 N.pl3   1  UNL1       -0.3126
      8 C           1.6161    0.3796   -0.5592 C.ar    1  UNL1        0.0506
      9 C           2.8875   -0.1259   -0.1904 C.ar    1  UNL1       -0.0270
     10 C           3.9383    0.6707    0.1271 C.ar    1  UNL1        0.0385
     11 C           5.2422    0.0606    0.5042 C.2     1  UNL1        0.2443
     12 O           5.3433   -1.1958    0.5139 O.2     1  UNL1       -0.2702
     13 N           6.3787    0.7997    0.8533 N.am    1  UNL1       -0.3085
     14 C           7.6225    0.1470    1.2117 C.3     1  UNL1        0.0235
     15 C           8.6035    0.7642    2.1056 C.3     1  UNL1       -0.0328
     16 C           8.8976    0.7250    0.6370 C.3     1  UNL1       -0.0328
     17 C           3.8050    2.0339    0.1023 C.ar    1  UNL1       -0.0481
     18 C           2.5895    2.5400   -0.2493 C.ar    1  UNL1       -0.0409
     19 C           1.4963    1.7218   -0.5788 C.ar    1  UNL1        0.0621
     20 CL          0.0172    2.5935   -0.9491 Cl      1  UNL1       -0.0816
     21 C          -1.8287   -0.3042   -0.8521 C.ar    1  UNL1        0.0586
     22 C          -2.0685    0.3998   -2.0353 C.ar    1  UNL1        0.0608
     23 N          -3.3901    0.5192   -2.1477 N.ar    1  UNL1       -0.1722
     24 N          -3.9830   -0.0740   -1.1017 N.ar    1  UNL1       -0.2156
     25 C          -5.4019   -0.1270   -0.9097 C.ar    1  UNL1        0.0678
     26 C          -6.0848    0.6314   -0.0031 C.ar    1  UNL1       -0.0335
     27 C          -7.4402    0.5264    0.0979 C.ar    1  UNL1       -0.0244
     28 C          -8.1420   -0.3411   -0.7074 C.ar    1  UNL1        0.1235
     29 F          -9.5048   -0.4607   -0.6205 F       1  UNL1       -0.2055
     30 C          -7.4917   -1.1200   -1.6306 C.ar    1  UNL1       -0.0244
     31 C          -6.1335   -0.9995   -1.7158 C.ar    1  UNL1       -0.0335
     32 C          -3.0612   -0.5988   -0.2775 C.ar    1  UNL1        0.1485
     33 H          -4.7901   -0.7867    2.1058 H       1  UNL1        0.0457
     34 H          -4.2414   -2.4721    2.1713 H       1  UNL1        0.0457
     35 H          -5.1764   -1.9927    0.7633 H       1  UNL1        0.0457
     36 H           0.1371   -1.8491    1.3597 H       1  UNL1        0.0691
     37 H           0.9139   -1.3283   -1.5629 H       1  UNL1        0.1522
     38 H           3.0046   -1.2188   -0.1677 H       1  UNL1        0.0644
     39 H           6.3482    1.8311    0.8611 H       1  UNL1        0.1493
     40 H           7.5988   -0.9700    1.1854 H       1  UNL1        0.0498
     41 H           9.2597    0.1035    2.7181 H       1  UNL1        0.0284
     42 H           8.4760    1.7641    2.5671 H       1  UNL1        0.0284
     43 H           9.6808    0.0218    0.2534 H       1  UNL1        0.0284
     44 H           8.8050    1.6222    0.0075 H       1  UNL1        0.0284
     45 H           4.6540    2.6771    0.3581 H       1  UNL1        0.0625
     46 H           2.4794    3.6395   -0.2702 H       1  UNL1        0.0633
     47 H          -1.2972    0.7605   -2.7371 H       1  UNL1        0.0855
     48 H          -5.5464    1.3071    0.6254 H       1  UNL1        0.0640
     49 H          -8.0302    1.1062    0.8015 H       1  UNL1        0.0647
     50 H          -8.0747   -1.7950   -2.2515 H       1  UNL1        0.0647
     51 H          -5.6338   -1.6294   -2.4583 H       1  UNL1        0.0640
@<TRIPOS>BOND
     1     1     2    1
     2     2     3   ar
     3     3     4    2
     4     3     5   ar
     5     5     6   ar
     6     6     7    1
     7     7     8    1
     8     8     9   ar
     9     9    10   ar
    10    10    11    1
    11    11    12    2
    12    11    13   am
    13    13    14    1
    14    14    15    1
    15    15    16    1
    16    10    17   ar
    17    17    18   ar
    18    18    19   ar
    19    19    20    1
    20     6    21   ar
    21    21    22   ar
    22    22    23   ar
    23    23    24   ar
    24    24    25    1
    25    25    26   ar
    26    26    27   ar
    27    27    28   ar
    28    28    29    1
    29    28    30   ar
    30    30    31   ar
    31    24    32   ar
    32    32     2   ar
    33    19     8   ar
    34    32    21   ar
    35    16    14    1
    36    31    25   ar
    37     1    33    1
    38     1    34    1
    39     1    35    1
    40     5    36    1
    41     7    37    1
    42     9    38    1
    43    13    39    1
    44    14    40    1
    45    15    41    1
    46    15    42    1
    47    16    43    1
    48    16    44    1
    49    17    45    1
    50    18    46    1
    51    22    47    1
    52    26    48    1
    53    27    49    1
    54    30    50    1
    55    31    51    1
