
     RDKit          3D

 51 55  0  0  0  0  0  0  0  0999 V2000
   -4.4116   -1.6138    1.4388 C   0  0  0  0  0  0  0  0  0  0  0  0
   -3.1338   -1.3235    0.8584 N   0  0  0  0  0  0  0  0  0  0  0  0
   -1.9950   -1.7583    1.4242 C   0  0  0  0  0  0  0  0  0  0  0  0
   -2.1344   -2.4409    2.4966 O   0  0  0  0  0  0  0  0  0  0  0  0
   -0.7795   -1.4943    0.8986 C   0  0  0  0  0  0  0  0  0  0  0  0
   -0.6511   -0.7365   -0.2870 C   0  0  0  0  0  0  0  0  0  0  0  0
    0.6306   -0.5896   -0.8277 N   0  0  0  0  0  0  0  0  0  0  0  0
    1.6161    0.3796   -0.5592 C   0  0  0  0  0  0  0  0  0  0  0  0
    2.8875   -0.1259   -0.1904 C   0  0  0  0  0  0  0  0  0  0  0  0
    3.9383    0.6707    0.1271 C   0  0  0  0  0  0  0  0  0  0  0  0
    5.2422    0.0606    0.5042 C   0  0  0  0  0  0  0  0  0  0  0  0
    5.3433   -1.1958    0.5139 O   0  0  0  0  0  0  0  0  0  0  0  0
    6.3787    0.7997    0.8533 N   0  0  0  0  0  0  0  0  0  0  0  0
    7.6225    0.1470    1.2117 C   0  0  0  0  0  0  0  0  0  0  0  0
    8.6035    0.7642    2.1056 C   0  0  0  0  0  0  0  0  0  0  0  0
    8.8976    0.7250    0.6370 C   0  0  0  0  0  0  0  0  0  0  0  0
    3.8050    2.0339    0.1023 C   0  0  0  0  0  0  0  0  0  0  0  0
    2.5895    2.5400   -0.2493 C   0  0  0  0  0  0  0  0  0  0  0  0
    1.4963    1.7218   -0.5788 C   0  0  0  0  0  0  0  0  0  0  0  0
    0.0172    2.5935   -0.9491 Cl  0  0  0  0  0  0  0  0  0  0  0  0
   -1.8287   -0.3042   -0.8521 C   0  0  0  0  0  0  0  0  0  0  0  0
   -2.0685    0.3998   -2.0353 C   0  0  0  0  0  0  0  0  0  0  0  0
   -3.3901    0.5192   -2.1477 N   0  0  0  0  0  0  0  0  0  0  0  0
   -3.9830   -0.0740   -1.1017 N   0  0  0  0  0  0  0  0  0  0  0  0
   -5.4019   -0.1270   -0.9097 C   0  0  0  0  0  0  0  0  0  0  0  0
   -6.0848    0.6314   -0.0031 C   0  0  0  0  0  0  0  0  0  0  0  0
   -7.4402    0.5264    0.0979 C   0  0  0  0  0  0  0  0  0  0  0  0
   -8.1420   -0.3411   -0.7074 C   0  0  0  0  0  0  0  0  0  0  0  0
   -9.5048   -0.4607   -0.6205 F   0  0  0  0  0  0  0  0  0  0  0  0
   -7.4917   -1.1200   -1.6306 C   0  0  0  0  0  0  0  0  0  0  0  0
   -6.1335   -0.9995   -1.7158 C   0  0  0  0  0  0  0  0  0  0  0  0
   -3.0612   -0.5988   -0.2775 C   0  0  0  0  0  0  0  0  0  0  0  0
   -4.7901   -0.7867    2.1058 H   0  0  0  0  0  0  0  0  0  0  0  0
   -4.2414   -2.4721    2.1713 H   0  0  0  0  0  0  0  0  0  0  0  0
   -5.1764   -1.9927    0.7633 H   0  0  0  0  0  0  0  0  0  0  0  0
    0.1371   -1.8491    1.3597 H   0  0  0  0  0  0  0  0  0  0  0  0
    0.9139   -1.3283   -1.5629 H   0  0  0  0  0  0  0  0  0  0  0  0
    3.0046   -1.2188   -0.1677 H   0  0  0  0  0  0  0  0  0  0  0  0
    6.3482    1.8311    0.8611 H   0  0  0  0  0  0  0  0  0  0  0  0
    7.5988   -0.9700    1.1854 H   0  0  0  0  0  0  0  0  0  0  0  0
    9.2597    0.1035    2.7181 H   0  0  0  0  0  0  0  0  0  0  0  0
    8.4760    1.7641    2.5671 H   0  0  0  0  0  0  0  0  0  0  0  0
    9.6808    0.0218    0.2534 H   0  0  0  0  0  0  0  0  0  0  0  0
    8.8050    1.6222    0.0075 H   0  0  0  0  0  0  0  0  0  0  0  0
    4.6540    2.6771    0.3581 H   0  0  0  0  0  0  0  0  0  0  0  0
    2.4794    3.6395   -0.2702 H   0  0  0  0  0  0  0  0  0  0  0  0
   -1.2972    0.7605   -2.7371 H   0  0  0  0  0  0  0  0  0  0  0  0
   -5.5464    1.3071    0.6254 H   0  0  0  0  0  0  0  0  0  0  0  0
   -8.0302    1.1062    0.8015 H   0  0  0  0  0  0  0  0  0  0  0  0
   -8.0747   -1.7950   -2.2515 H   0  0  0  0  0  0  0  0  0  0  0  0
   -5.6338   -1.6294   -2.4583 H   0  0  0  0  0  0  0  0  0  0  0  0
  1  2  1  0
  2  3  1  0
  3  4  2  0
  3  5  1  0
  5  6  2  0
  6  7  1  0
  7  8  1  0
  8  9  2  0
  9 10  1  0
 10 11  1  0
 11 12  2  0
 11 13  1  0
 13 14  1  0
 14 15  1  0
 15 16  1  0
 10 17  2  0
 17 18  1  0
 18 19  2  0
 19 20  1  0
  6 21  1  0
 21 22  1  0
 22 23  2  0
 23 24  1  0
 24 25  1  0
 25 26  2  0
 26 27  1  0
 27 28  2  0
 28 29  1  0
 28 30  1  0
 30 31  2  0
 24 32  1  0
 32  2  1  0
 19  8  1  0
 32 21  2  0
 16 14  1  0
 31 25  1  0
  1 33  1  0
  1 34  1  0
  1 35  1  0
  5 36  1  0
  7 37  1  0
  9 38  1  0
 13 39  1  0
 14 40  1  0
 15 41  1  0
 15 42  1  0
 16 43  1  0
 16 44  1  0
 17 45  1  0
 18 46  1  0
 22 47  1  0
 26 48  1  0
 27 49  1  0
 30 50  1  0
 31 51  1  0
M  END
$$$$
