
     RDKit          3D

 52 55  0  0  0  0  0  0  0  0999 V2000
    2.2145   -5.3735    0.9232 N   0  0  0  0  0  0  0  0  0  0  0  0
    2.7542   -4.0992    0.6160 C   0  0  0  0  0  0  0  0  0  0  0  0
    3.9807   -3.9697    0.5116 O   0  0  0  0  0  0  0  0  0  0  0  0
    1.8087   -2.9905    0.4371 C   0  0  0  0  0  0  0  0  0  0  0  0
    0.4370   -3.1848    0.5643 C   0  0  0  0  0  0  0  0  0  0  0  0
   -0.3187   -2.1125    0.3815 N   0  0  0  0  0  0  0  0  0  0  0  0
    0.0707   -0.8823    0.0934 C   0  0  0  0  0  0  0  0  0  0  0  0
   -0.8980    0.1416   -0.0657 N   0  0  0  0  0  0  0  0  0  0  0  0
   -2.2982   -0.1917    0.0974 C   0  0  1  0  0  0  0  0  0  0  0  0
   -2.5592   -0.6934    1.4754 C   0  0  0  0  0  0  0  0  0  0  0  0
   -3.3477    0.1806    2.3719 C   0  0  0  0  0  0  0  0  0  0  0  0
   -3.4529    1.5939    1.8738 C   0  0  0  0  0  0  0  0  0  0  0  0
   -3.8784    1.6682    0.5109 N   0  0  0  0  0  0  0  0  0  0  0  0
   -3.1635    0.8788   -0.4143 C   0  0  2  0  0  0  0  0  0  0  0  0
   -4.1712    0.3417   -1.4403 C   0  0  0  0  0  0  0  0  0  0  0  0
   -5.0602   -0.7031   -0.8477 C   0  0  0  0  0  0  0  0  0  0  0  0
   -5.7866   -0.1964    0.2208 O   0  0  0  0  0  0  0  0  0  0  0  0
    1.4633   -0.6101   -0.0518 C   0  0  0  0  0  0  0  0  0  0  0  0
    2.0307    0.5524   -0.3364 C   0  0  0  0  0  0  0  0  0  0  0  0
    3.4083    0.6637   -0.4462 C   0  0  0  0  0  0  0  0  0  0  0  0
    4.3024    1.7219   -0.7288 C   0  0  0  0  0  0  0  0  0  0  0  0
    3.8073    2.9770   -0.9671 C   0  0  0  0  0  0  0  0  0  0  0  0
    4.6302    4.0542   -1.2493 C   0  0  0  0  0  0  0  0  0  0  0  0
    5.9803    3.8599   -1.2918 C   0  0  0  0  0  0  0  0  0  0  0  0
    6.5110    2.6137   -1.0576 C   0  0  0  0  0  0  0  0  0  0  0  0
    5.6698    1.5614   -0.7795 C   0  0  0  0  0  0  0  0  0  0  0  0
    3.9178   -1.0692   -0.1063 S   0  0  0  0  0  0  0  0  0  0  0  0
    2.2609   -1.7283    0.1383 C   0  0  0  0  0  0  0  0  0  0  0  0
    2.0127   -6.0630    0.1582 H   0  0  0  0  0  0  0  0  0  0  0  0
    2.0255   -5.6005    1.9360 H   0  0  0  0  0  0  0  0  0  0  0  0
    0.0996   -4.1745    0.7976 H   0  0  0  0  0  0  0  0  0  0  0  0
   -0.6151    1.1379   -0.3000 H   0  0  0  0  0  0  0  0  0  0  0  0
   -2.4331   -1.0897   -0.5849 H   0  0  0  0  0  0  0  0  0  0  0  0
   -3.0502   -1.7117    1.4845 H   0  0  0  0  0  0  0  0  0  0  0  0
   -1.5661   -0.8856    1.9797 H   0  0  0  0  0  0  0  0  0  0  0  0
   -4.3720   -0.2470    2.5753 H   0  0  0  0  0  0  0  0  0  0  0  0
   -2.8873    0.2451    3.3984 H   0  0  0  0  0  0  0  0  0  0  0  0
   -2.5103    2.1379    2.0644 H   0  0  0  0  0  0  0  0  0  0  0  0
   -4.2334    2.0975    2.4939 H   0  0  0  0  0  0  0  0  0  0  0  0
   -3.9374    2.6975    0.2630 H   0  0  0  0  0  0  0  0  0  0  0  0
   -2.5246    1.5860   -1.0273 H   0  0  0  0  0  0  0  0  0  0  0  0
   -3.6278   -0.1323   -2.3061 H   0  0  0  0  0  0  0  0  0  0  0  0
   -4.7915    1.1462   -1.8568 H   0  0  0  0  0  0  0  0  0  0  0  0
   -5.7967   -0.9884   -1.6266 H   0  0  0  0  0  0  0  0  0  0  0  0
   -4.5192   -1.6350   -0.5830 H   0  0  0  0  0  0  0  0  0  0  0  0
   -6.3290   -0.9476    0.5977 H   0  0  0  0  0  0  0  0  0  0  0  0
    1.4600    1.5280   -0.5101 H   0  0  0  0  0  0  0  0  0  0  0  0
    2.7426    3.1593   -0.9399 H   0  0  0  0  0  0  0  0  0  0  0  0
    4.2019    5.0327   -1.4325 H   0  0  0  0  0  0  0  0  0  0  0  0
    6.6471    4.6837   -1.5099 H   0  0  0  0  0  0  0  0  0  0  0  0
    7.5793    2.4306   -1.0848 H   0  0  0  0  0  0  0  0  0  0  0  0
    6.1116    0.5886   -0.5985 H   0  0  0  0  0  0  0  0  0  0  0  0
  1  2  1  0
  2  3  2  0
  2  4  1  0
  4  5  2  0
  5  6  1  0
  6  7  2  0
  7  8  1  0
  8  9  1  0
  9 10  1  0
 10 11  1  0
 11 12  1  0
 12 13  1  0
 13 14  1  0
 14 15  1  0
 15 16  1  0
 16 17  1  0
  7 18  1  0
 18 19  1  0
 19 20  2  0
 20 21  1  0
 21 22  2  0
 22 23  1  0
 23 24  2  0
 24 25  1  0
 25 26  2  0
 20 27  1  0
 27 28  1  0
 28  4  1  0
 14  9  1  0
 28 18  2  0
 26 21  1  0
  1 29  1  0
  1 30  1  0
  5 31  1  0
  8 32  1  0
  9 33  1  6
 10 34  1  0
 10 35  1  0
 11 36  1  0
 11 37  1  0
 12 38  1  0
 12 39  1  0
 13 40  1  0
 14 41  1  6
 15 42  1  0
 15 43  1  0
 16 44  1  0
 16 45  1  0
 17 46  1  0
 19 47  1  0
 22 48  1  0
 23 49  1  0
 24 50  1  0
 25 51  1  0
 26 52  1  0
M  END
$$$$
