@<TRIPOS>MOLECULE
*****
 52 55 0 0 0
SMALL
GASTEIGER

@<TRIPOS>ATOM
      1 N           2.2145   -5.3735    0.9232 N.am    1  UNL1       -0.3253
      2 C           2.7542   -4.0992    0.6160 C.2     1  UNL1        0.2441
      3 O           3.9807   -3.9697    0.5116 O.2     1  UNL1       -0.2703
      4 C           1.8087   -2.9905    0.4371 C.ar    1  UNL1        0.0689
      5 C           0.4370   -3.1848    0.5643 C.ar    1  UNL1        0.0429
      6 N          -0.3187   -2.1125    0.3815 N.ar    1  UNL1       -0.2391
      7 C           0.0707   -0.8823    0.0934 C.ar    1  UNL1        0.1273
      8 N          -0.8980    0.1416   -0.0657 N.pl3   1  UNL1       -0.3242
      9 C          -2.2982   -0.1917    0.0974 C.3     1  UNL1        0.0374
     10 C          -2.5592   -0.6934    1.4754 C.3     1  UNL1       -0.0319
     11 C          -3.3477    0.1806    2.3719 C.3     1  UNL1       -0.0387
     12 C          -3.4529    1.5939    1.8738 C.3     1  UNL1       -0.0037
     13 N          -3.8784    1.6682    0.5109 N.3     1  UNL1       -0.3114
     14 C          -3.1635    0.8788   -0.4143 C.3     1  UNL1        0.0280
     15 C          -4.1712    0.3417   -1.4403 C.3     1  UNL1       -0.0125
     16 C          -5.0602   -0.7031   -0.8477 C.3     1  UNL1        0.0457
     17 O          -5.7866   -0.1964    0.2208 O.3     1  UNL1       -0.3950
     18 C           1.4633   -0.6101   -0.0518 C.ar    1  UNL1        0.0302
     19 C           2.0307    0.5524   -0.3364 C.ar    1  UNL1       -0.0359
     20 C           3.4083    0.6637   -0.4462 C.ar    1  UNL1        0.0206
     21 C           4.3024    1.7219   -0.7288 C.ar    1  UNL1       -0.0113
     22 C           3.8073    2.9770   -0.9671 C.ar    1  UNL1       -0.0535
     23 C           4.6302    4.0542   -1.2493 C.ar    1  UNL1       -0.0612
     24 C           5.9803    3.8599   -1.2918 C.ar    1  UNL1       -0.0617
     25 C           6.5110    2.6137   -1.0576 C.ar    1  UNL1       -0.0612
     26 C           5.6698    1.5614   -0.7795 C.ar    1  UNL1       -0.0535
     27 S           3.9178   -1.0692   -0.1063 S.2     1  UNL1       -0.0873
     28 C           2.2609   -1.7283    0.1383 C.ar    1  UNL1        0.0367
     29 H           2.0127   -6.0630    0.1582 H       1  UNL1        0.1453
     30 H           2.0255   -5.6005    1.9360 H       1  UNL1        0.1453
     31 H           0.0996   -4.1745    0.7976 H       1  UNL1        0.0838
     32 H          -0.6151    1.1379   -0.3000 H       1  UNL1        0.1478
     33 H          -2.4331   -1.0897   -0.5849 H       1  UNL1        0.0513
     34 H          -3.0502   -1.7117    1.4845 H       1  UNL1        0.0284
     35 H          -1.5661   -0.8856    1.9797 H       1  UNL1        0.0284
     36 H          -4.3720   -0.2470    2.5753 H       1  UNL1        0.0278
     37 H          -2.8873    0.2451    3.3984 H       1  UNL1        0.0278
     38 H          -2.5103    2.1379    2.0644 H       1  UNL1        0.0424
     39 H          -4.2334    2.0975    2.4939 H       1  UNL1        0.0424
     40 H          -3.9374    2.6975    0.2630 H       1  UNL1        0.1223
     41 H          -2.5246    1.5860   -1.0273 H       1  UNL1        0.0479
     42 H          -3.6278   -0.1323   -2.3061 H       1  UNL1        0.0303
     43 H          -4.7915    1.1462   -1.8568 H       1  UNL1        0.0303
     44 H          -5.7967   -0.9884   -1.6266 H       1  UNL1        0.0557
     45 H          -4.5192   -1.6350   -0.5830 H       1  UNL1        0.0557
     46 H          -6.3290   -0.9476    0.5977 H       1  UNL1        0.2094
     47 H           1.4600    1.5280   -0.5101 H       1  UNL1        0.0636
     48 H           2.7426    3.1593   -0.9399 H       1  UNL1        0.0624
     49 H           4.2019    5.0327   -1.4325 H       1  UNL1        0.0618
     50 H           6.6471    4.6837   -1.5099 H       1  UNL1        0.0618
     51 H           7.5793    2.4306   -1.0848 H       1  UNL1        0.0618
     52 H           6.1116    0.5886   -0.5985 H       1  UNL1        0.0624
@<TRIPOS>BOND
     1     1     2   am
     2     2     3    2
     3     2     4    1
     4     4     5   ar
     5     5     6   ar
     6     6     7   ar
     7     7     8    1
     8     8     9    1
     9     9    10    1
    10    10    11    1
    11    11    12    1
    12    12    13    1
    13    13    14    1
    14    14    15    1
    15    15    16    1
    16    16    17    1
    17     7    18   ar
    18    18    19   ar
    19    19    20   ar
    20    20    21    1
    21    21    22   ar
    22    22    23   ar
    23    23    24   ar
    24    24    25   ar
    25    25    26   ar
    26    20    27   ar
    27    27    28   ar
    28    28     4   ar
    29    14     9    1
    30    28    18   ar
    31    26    21   ar
    32     1    29    1
    33     1    30    1
    34     5    31    1
    35     8    32    1
    36     9    33    1
    37    10    34    1
    38    10    35    1
    39    11    36    1
    40    11    37    1
    41    12    38    1
    42    12    39    1
    43    13    40    1
    44    14    41    1
    45    15    42    1
    46    15    43    1
    47    16    44    1
    48    16    45    1
    49    17    46    1
    50    19    47    1
    51    22    48    1
    52    23    49    1
    53    24    50    1
    54    25    51    1
    55    26    52    1
