
     RDKit          3D

 41 44  0  0  0  0  0  0  0  0999 V2000
   -4.5396   -0.2885   -1.6008 C   0  0  0  0  0  0  0  0  0  0  0  0
   -3.3415   -0.0929   -0.8782 O   0  0  0  0  0  0  0  0  0  0  0  0
   -3.3216    0.3040    0.4457 C   0  0  0  0  0  0  0  0  0  0  0  0
   -4.5597    0.5117    1.0585 C   0  0  0  0  0  0  0  0  0  0  0  0
   -4.6000    0.9081    2.3680 C   0  0  0  0  0  0  0  0  0  0  0  0
   -3.4572    1.1062    3.0929 C   0  0  0  0  0  0  0  0  0  0  0  0
   -2.2356    0.8878    2.4453 C   0  0  0  0  0  0  0  0  0  0  0  0
   -2.1611    0.4862    1.1208 C   0  0  0  0  0  0  0  0  0  0  0  0
   -0.9074    0.2401    0.4674 N   0  0  0  0  0  0  0  0  0  0  0  0
    0.2571    0.7748    1.1364 C   0  0  0  0  0  0  0  0  0  0  0  0
    1.2525    1.0908   -0.0232 C   0  0  0  0  0  0  0  0  0  0  0  0
    1.6267   -0.2399   -0.4459 N   0  0  0  0  0  0  0  0  0  0  0  0
    2.9416   -0.6817   -0.2718 C   0  0  0  0  0  0  0  0  0  0  0  0
    3.2145   -1.5964    0.7084 N   0  0  0  0  0  0  0  0  0  0  0  0
    4.4523   -2.0484    0.9634 C   0  0  0  0  0  0  0  0  0  0  0  0
    5.4791   -1.5961    0.2368 N   0  0  0  0  0  0  0  0  0  0  0  0
    5.3130   -0.6970   -0.7492 C   0  0  0  0  0  0  0  0  0  0  0  0
    6.1597   -0.0985   -1.6179 N   0  0  0  0  0  0  0  0  0  0  0  0
    5.4887    0.7135   -2.4103 N   0  0  0  0  0  0  0  0  0  0  0  0
    4.1701    0.6454   -2.0519 C   0  0  0  0  0  0  0  0  0  0  0  0
    2.7315    1.5881   -2.8696 Br  0  0  0  0  0  0  0  0  0  0  0  0
    4.0141   -0.2346   -1.0036 C   0  0  0  0  0  0  0  0  0  0  0  0
    0.5705   -1.0435   -1.0038 C   0  0  0  0  0  0  0  0  0  0  0  0
   -0.8094   -0.4980   -0.7544 C   0  0  0  0  0  0  0  0  0  0  0  0
   -4.3607   -0.4114   -2.6822 H   0  0  0  0  0  0  0  0  0  0  0  0
   -5.1690    0.6415   -1.5130 H   0  0  0  0  0  0  0  0  0  0  0  0
   -5.1030   -1.1695   -1.2274 H   0  0  0  0  0  0  0  0  0  0  0  0
   -5.4640    0.3542    0.4833 H   0  0  0  0  0  0  0  0  0  0  0  0
   -5.5809    1.0649    2.8277 H   0  0  0  0  0  0  0  0  0  0  0  0
   -3.4726    1.4193    4.1274 H   0  0  0  0  0  0  0  0  0  0  0  0
   -1.3065    1.0309    2.9905 H   0  0  0  0  0  0  0  0  0  0  0  0
    0.7762    0.0453    1.7740 H   0  0  0  0  0  0  0  0  0  0  0  0
    0.0771    1.6963    1.7095 H   0  0  0  0  0  0  0  0  0  0  0  0
    0.6106    1.6172   -0.7876 H   0  0  0  0  0  0  0  0  0  0  0  0
    2.0547    1.7239    0.3197 H   0  0  0  0  0  0  0  0  0  0  0  0
    4.5610   -2.7726    1.7620 H   0  0  0  0  0  0  0  0  0  0  0  0
    5.8476    1.3164   -3.1807 H   0  0  0  0  0  0  0  0  0  0  0  0
    0.6175   -2.0407   -0.4876 H   0  0  0  0  0  0  0  0  0  0  0  0
    0.7024   -1.2135   -2.0968 H   0  0  0  0  0  0  0  0  0  0  0  0
   -1.0248    0.1996   -1.6020 H   0  0  0  0  0  0  0  0  0  0  0  0
   -1.5039   -1.3768   -0.7798 H   0  0  0  0  0  0  0  0  0  0  0  0
  1  2  1  0
  2  3  1  0
  3  4  2  0
  4  5  1  0
  5  6  2  0
  6  7  1  0
  7  8  2  0
  8  9  1  0
  9 10  1  0
 10 11  1  0
 11 12  1  0
 12 13  1  0
 13 14  2  0
 14 15  1  0
 15 16  2  0
 16 17  1  0
 17 18  2  0
 18 19  1  0
 19 20  1  0
 20 21  1  0
 20 22  2  0
 12 23  1  0
 23 24  1  0
  8  3  1  0
 24  9  1  0
 22 13  1  0
 22 17  1  0
  1 25  1  0
  1 26  1  0
  1 27  1  0
  4 28  1  0
  5 29  1  0
  6 30  1  0
  7 31  1  0
 10 32  1  0
 10 33  1  0
 11 34  1  0
 11 35  1  0
 15 36  1  0
 19 37  1  0
 23 38  1  0
 23 39  1  0
 24 40  1  0
 24 41  1  0
M  END
$$$$
