@<TRIPOS>MOLECULE
*****
 41 44 0 0 0
SMALL
GASTEIGER

@<TRIPOS>ATOM
      1 C          -4.5396   -0.2885   -1.6008 C.3     1  UNL1        0.0789
      2 O          -3.3415   -0.0929   -0.8782 O.3     1  UNL1       -0.4933
      3 C          -3.3216    0.3040    0.4457 C.ar    1  UNL1        0.1410
      4 C          -4.5597    0.5117    1.0585 C.ar    1  UNL1       -0.0181
      5 C          -4.6000    0.9081    2.3680 C.ar    1  UNL1       -0.0582
      6 C          -3.4572    1.1062    3.0929 C.ar    1  UNL1       -0.0598
      7 C          -2.2356    0.8878    2.4453 C.ar    1  UNL1       -0.0371
      8 C          -2.1611    0.4862    1.1208 C.ar    1  UNL1        0.0720
      9 N          -0.9074    0.2401    0.4674 N.pl3   1  UNL1       -0.3241
     10 C           0.2571    0.7748    1.1364 C.3     1  UNL1        0.0281
     11 C           1.2525    1.0908   -0.0232 C.3     1  UNL1        0.0293
     12 N           1.6267   -0.2399   -0.4459 N.pl3   1  UNL1       -0.3115
     13 C           2.9416   -0.6817   -0.2718 C.ar    1  UNL1        0.1365
     14 N           3.2145   -1.5964    0.7084 N.ar    1  UNL1       -0.2199
     15 C           4.4523   -2.0484    0.9634 C.ar    1  UNL1        0.1205
     16 N           5.4791   -1.5961    0.2368 N.ar    1  UNL1       -0.2142
     17 C           5.3130   -0.6970   -0.7492 C.ar    1  UNL1        0.1869
     18 N           6.1597   -0.0985   -1.6179 N.ar    1  UNL1       -0.1526
     19 N           5.4887    0.7135   -2.4103 N.ar    1  UNL1       -0.2679
     20 C           4.1701    0.6454   -2.0519 C.ar    1  UNL1        0.1136
     21 BR          2.7315    1.5881   -2.8696 Br      1  UNL1       -0.0285
     22 C           4.0141   -0.2346   -1.0036 C.ar    1  UNL1        0.0923
     23 C           0.5705   -1.0435   -1.0038 C.3     1  UNL1        0.0293
     24 C          -0.8094   -0.4980   -0.7544 C.3     1  UNL1        0.0281
     25 H          -4.3607   -0.4114   -2.6822 H       1  UNL1        0.0660
     26 H          -5.1690    0.6415   -1.5130 H       1  UNL1        0.0660
     27 H          -5.1030   -1.1695   -1.2274 H       1  UNL1        0.0660
     28 H          -5.4640    0.3542    0.4833 H       1  UNL1        0.0655
     29 H          -5.5809    1.0649    2.8277 H       1  UNL1        0.0619
     30 H          -3.4726    1.4193    4.1274 H       1  UNL1        0.0618
     31 H          -1.3065    1.0309    2.9905 H       1  UNL1        0.0637
     32 H           0.7762    0.0453    1.7740 H       1  UNL1        0.0479
     33 H           0.0771    1.6963    1.7095 H       1  UNL1        0.0479
     34 H           0.6106    1.6172   -0.7876 H       1  UNL1        0.0480
     35 H           2.0547    1.7239    0.3197 H       1  UNL1        0.0480
     36 H           4.5610   -2.7726    1.7620 H       1  UNL1        0.1048
     37 H           5.8476    1.3164   -3.1807 H       1  UNL1        0.1896
     38 H           0.6175   -2.0407   -0.4876 H       1  UNL1        0.0480
     39 H           0.7024   -1.2135   -2.0968 H       1  UNL1        0.0480
     40 H          -1.0248    0.1996   -1.6020 H       1  UNL1        0.0479
     41 H          -1.5039   -1.3768   -0.7798 H       1  UNL1        0.0479
@<TRIPOS>BOND
     1     1     2    1
     2     2     3    1
     3     3     4   ar
     4     4     5   ar
     5     5     6   ar
     6     6     7   ar
     7     7     8   ar
     8     8     9    1
     9     9    10    1
    10    10    11    1
    11    11    12    1
    12    12    13    1
    13    13    14   ar
    14    14    15   ar
    15    15    16   ar
    16    16    17   ar
    17    17    18   ar
    18    18    19   ar
    19    19    20   ar
    20    20    21    1
    21    20    22   ar
    22    12    23    1
    23    23    24    1
    24     8     3   ar
    25    24     9    1
    26    22    13   ar
    27    22    17   ar
    28     1    25    1
    29     1    26    1
    30     1    27    1
    31     4    28    1
    32     5    29    1
    33     6    30    1
    34     7    31    1
    35    10    32    1
    36    10    33    1
    37    11    34    1
    38    11    35    1
    39    15    36    1
    40    19    37    1
    41    23    38    1
    42    23    39    1
    43    24    40    1
    44    24    41    1
