@<TRIPOS>MOLECULE
*****
 41 43 0 0 0
SMALL
GASTEIGER

@<TRIPOS>ATOM
      1 C          -2.0259   -0.5024   -0.1521 C.3     1  UNL1        0.2036
      2 O          -2.7342   -1.5723    0.4429 O.3     1  UNL1       -0.4472
      3 C          -3.6067   -2.4119   -0.2014 C.2     1  UNL1        0.3050
      4 C          -4.2808   -3.5034    0.5760 C.3     1  UNL1        0.0333
      5 O          -3.8970   -2.3354   -1.4409 O.2     1  UNL1       -0.2511
      6 C          -0.5759   -0.7310    0.0137 C.2     1  UNL1        0.2627
      7 O          -0.7113   -1.8124    0.6295 O.2     1  UNL1       -0.2710
      8 N           0.6302   -0.0892   -0.3245 N.am    1  UNL1       -0.2815
      9 C           1.9037   -0.5767   -0.0147 C.ar    1  UNL1        0.0453
     10 C           2.1019   -1.7477    0.6611 C.ar    1  UNL1       -0.0397
     11 C           3.3553   -2.2131    0.9577 C.ar    1  UNL1       -0.0593
     12 C           4.4745   -1.4990    0.5751 C.ar    1  UNL1       -0.0488
     13 C           4.2481   -0.3187   -0.1066 C.ar    1  UNL1        0.0498
     14 C           2.9822    0.1606   -0.4114 C.ar    1  UNL1        0.0602
     15 C           2.9466    1.4048   -1.1253 C.2     1  UNL1        0.2501
     16 O           1.8523    1.9110   -1.4415 O.2     1  UNL1       -0.2817
     17 C           4.1053    2.1842   -1.5443 C.2     1  UNL1        0.2909
     18 O           4.0324    3.2616   -2.1635 O.2     1  UNL1       -0.2662
     19 N           5.3668    1.6278   -1.1954 N.am    1  UNL1       -0.2456
     20 C           5.4450    0.3991   -0.4894 C.2     1  UNL1        0.2513
     21 O           6.6170   -0.0317   -0.2146 O.2     1  UNL1       -0.2697
     22 C          -2.4964    0.7843    0.4119 C.ar    1  UNL1        0.0031
     23 C          -2.7690    1.8844   -0.4073 C.ar    1  UNL1       -0.0545
     24 C          -3.2091    3.1146    0.0354 C.ar    1  UNL1       -0.0600
     25 C          -3.3977    3.2799    1.3947 C.ar    1  UNL1       -0.0434
     26 C          -3.1411    2.2206    2.2417 C.ar    1  UNL1        0.0414
     27 CL         -3.3643    2.3787    3.9710 Cl      1  UNL1       -0.0835
     28 C          -2.6995    0.9954    1.7686 C.ar    1  UNL1       -0.0362
     29 H          -2.3310   -0.5034   -1.2204 H       1  UNL1        0.0885
     30 H          -3.7151   -4.4585    0.4776 H       1  UNL1        0.0342
     31 H          -5.3232   -3.5780    0.1911 H       1  UNL1        0.0342
     32 H          -4.3183   -3.1911    1.6346 H       1  UNL1        0.0342
     33 H           0.1919    0.7133   -0.7944 H       1  UNL1        0.1549
     34 H           1.3431   -2.4134    1.0245 H       1  UNL1        0.0636
     35 H           3.5350   -3.1413    1.4938 H       1  UNL1        0.0618
     36 H           5.4777   -1.8612    0.8066 H       1  UNL1        0.0625
     37 H           6.2377    2.1199   -1.4567 H       1  UNL1        0.1582
     38 H          -2.6191    1.7520   -1.4834 H       1  UNL1        0.0622
     39 H          -3.3902    3.9011   -0.6886 H       1  UNL1        0.0618
     40 H          -3.7416    4.2283    1.7811 H       1  UNL1        0.0632
     41 H          -2.4993    0.1702    2.4250 H       1  UNL1        0.0636
@<TRIPOS>BOND
     1     1     2    1
     2     2     3    1
     3     3     4    1
     4     3     5    2
     5     1     6    1
     6     6     7    2
     7     6     8   am
     8     8     9    1
     9     9    10   ar
    10    10    11   ar
    11    11    12   ar
    12    12    13   ar
    13    13    14   ar
    14    14    15    1
    15    15    16    2
    16    15    17    1
    17    17    18    2
    18    17    19   am
    19    19    20   am
    20    20    21    2
    21     1    22    1
    22    22    23   ar
    23    23    24   ar
    24    24    25   ar
    25    25    26   ar
    26    26    27    1
    27    26    28   ar
    28    14     9   ar
    29    28    22   ar
    30    20    13    1
    31     1    29    1
    32     4    30    1
    33     4    31    1
    34     4    32    1
    35     8    33    1
    36    10    34    1
    37    11    35    1
    38    12    36    1
    39    19    37    1
    40    23    38    1
    41    24    39    1
    42    25    40    1
    43    28    41    1
