
     RDKit          3D

 23 22  0  0  0  0  0  0  0  0999 V2000
   -2.8715    1.1207    0.0958 N   0  0  0  0  0  0  0  0  0  0  0  0
   -2.5719   -0.1625    0.6768 C   0  0  0  0  0  0  0  0  0  0  0  0
   -1.9628   -1.0780   -0.3293 C   0  0  0  0  0  0  0  0  0  0  0  0
   -0.6833   -0.5995   -0.9286 C   0  0  0  0  0  0  0  0  0  0  0  0
    0.4135   -0.3834    0.1003 C   0  0  0  0  0  0  0  0  0  0  0  0
    1.5683    0.0769   -0.6663 N   0  0  0  0  0  0  0  0  0  0  0  0
    2.7468    0.3521    0.0957 C   0  0  0  0  0  0  0  0  0  0  0  0
    3.6746    1.3947   -0.2584 N   0  0  0  0  0  0  0  0  0  0  0  0
    3.0661   -0.3100    1.1529 N   0  0  0  0  0  0  0  0  0  0  0  0
   -2.0525    1.4664   -0.4471 H   0  0  0  0  0  0  0  0  0  0  0  0
   -3.2049    1.8141    0.7718 H   0  0  0  0  0  0  0  0  0  0  0  0
   -3.5496   -0.6170    0.9715 H   0  0  0  0  0  0  0  0  0  0  0  0
   -2.0075   -0.0466    1.5988 H   0  0  0  0  0  0  0  0  0  0  0  0
   -2.6745   -1.2222   -1.1597 H   0  0  0  0  0  0  0  0  0  0  0  0
   -1.7925   -2.0740    0.1247 H   0  0  0  0  0  0  0  0  0  0  0  0
   -0.7770    0.2857   -1.5658 H   0  0  0  0  0  0  0  0  0  0  0  0
   -0.3030   -1.4183   -1.5791 H   0  0  0  0  0  0  0  0  0  0  0  0
    0.1063    0.3566    0.8523 H   0  0  0  0  0  0  0  0  0  0  0  0
    0.5951   -1.3799    0.5583 H   0  0  0  0  0  0  0  0  0  0  0  0
    1.6691    0.2405   -1.7123 H   0  0  0  0  0  0  0  0  0  0  0  0
    4.1749    0.9182   -1.0628 H   0  0  0  0  0  0  0  0  0  0  0  0
    4.0141    2.3416   -0.0540 H   0  0  0  0  0  0  0  0  0  0  0  0
    2.4222   -1.0760    1.4476 H   0  0  0  0  0  0  0  0  0  0  0  0
  1  2  1  0
  2  3  1  0
  3  4  1  0
  4  5  1  0
  5  6  1  0
  6  7  1  0
  7  8  1  0
  7  9  2  3
  1 10  1  0
  1 11  1  0
  2 12  1  0
  2 13  1  0
  3 14  1  0
  3 15  1  0
  4 16  1  0
  4 17  1  0
  5 18  1  0
  5 19  1  0
  6 20  1  0
  8 21  1  0
  8 22  1  0
  9 23  1  0
M  END
$$$$
