
     RDKit          3D

 60 64  0  0  0  0  0  0  0  0999 V2000
    6.6833    3.7059   -1.4617 C   0  0  0  0  0  0  0  0  0  0  0  0
    6.6257    2.6376   -0.5102 N   0  0  0  0  0  0  0  0  0  0  0  0
    6.7733    2.8949    0.9084 C   0  0  0  0  0  0  0  0  0  0  0  0
    6.4256    1.3064   -0.9470 C   0  0  0  0  0  0  0  0  0  0  0  0
    6.3037    1.0644   -2.1741 O   0  0  0  0  0  0  0  0  0  0  0  0
    6.3492    0.1506   -0.0246 C   0  0  0  0  0  0  0  0  0  0  0  0
    4.9900   -0.1361    0.3612 N   0  0  0  0  0  0  0  0  0  0  0  0
    4.1909   -0.9811   -0.3293 C   0  0  0  0  0  0  0  0  0  0  0  0
    2.9626   -1.0460    0.2841 C   0  0  0  0  0  0  0  0  0  0  0  0
    1.7935   -1.8297   -0.1126 C   0  0  0  0  0  0  0  0  0  0  0  0
    0.6212   -1.8631    0.5110 N   0  0  0  0  0  0  0  0  0  0  0  0
   -0.1927   -2.6960   -0.1555 C   0  0  0  0  0  0  0  0  0  0  0  0
   -1.5941   -2.9725    0.2669 C   0  0  1  0  0  0  0  0  0  0  0  0
   -1.5460   -3.4116    1.7053 C   0  0  0  0  0  0  0  0  0  0  0  0
   -2.3253   -1.6897    0.1477 C   0  0  0  0  0  0  0  0  0  0  0  0
   -2.4126   -1.0241   -1.0446 C   0  0  0  0  0  0  0  0  0  0  0  0
   -3.1040    0.1618   -1.1068 C   0  0  0  0  0  0  0  0  0  0  0  0
   -3.7253    0.7271   -0.0143 C   0  0  0  0  0  0  0  0  0  0  0  0
   -4.4570    1.9808   -0.0776 C   0  0  0  0  0  0  0  0  0  0  0  0
   -5.5326    2.1693    0.7657 C   0  0  0  0  0  0  0  0  0  0  0  0
   -6.2618    3.2878    0.7762 N   0  0  0  0  0  0  0  0  0  0  0  0
   -5.9473    4.2869   -0.0677 C   0  0  0  0  0  0  0  0  0  0  0  0
   -6.7454    5.4518   -0.0224 N   0  0  0  0  0  0  0  0  0  0  0  0
   -4.9110    4.1186   -0.8877 N   0  0  0  0  0  0  0  0  0  0  0  0
   -4.1487    3.0108   -0.9335 C   0  0  0  0  0  0  0  0  0  0  0  0
   -3.6133    0.0241    1.1687 C   0  0  0  0  0  0  0  0  0  0  0  0
   -2.9274   -1.1662    1.2623 C   0  0  0  0  0  0  0  0  0  0  0  0
   -2.1595   -4.0848   -0.5471 C   0  0  0  0  0  0  0  0  0  0  0  0
   -3.5853   -4.5325   -0.2739 C   0  0  0  0  0  0  0  0  0  0  0  0
   -3.1336   -3.9426   -1.6151 C   0  0  0  0  0  0  0  0  0  0  0  0
    0.5027   -3.1670   -1.1917 N   0  0  0  0  0  0  0  0  0  0  0  0
    1.6873   -2.6390   -1.1506 O   0  0  0  0  0  0  0  0  0  0  0  0
    3.0483   -0.2103    1.3695 C   0  0  0  0  0  0  0  0  0  0  0  0
    4.2853    0.3178    1.3798 N   0  0  0  0  0  0  0  0  0  0  0  0
    5.7437    3.7463   -2.0493 H   0  0  0  0  0  0  0  0  0  0  0  0
    7.5907    3.6420   -2.1146 H   0  0  0  0  0  0  0  0  0  0  0  0
    6.7610    4.6668   -0.9217 H   0  0  0  0  0  0  0  0  0  0  0  0
    6.9284    3.9977    1.0594 H   0  0  0  0  0  0  0  0  0  0  0  0
    5.8882    2.5953    1.4758 H   0  0  0  0  0  0  0  0  0  0  0  0
    7.7122    2.3752    1.2394 H   0  0  0  0  0  0  0  0  0  0  0  0
    6.7795   -0.7656   -0.5177 H   0  0  0  0  0  0  0  0  0  0  0  0
    6.9865    0.3175    0.8899 H   0  0  0  0  0  0  0  0  0  0  0  0
    4.4607   -1.5227   -1.2181 H   0  0  0  0  0  0  0  0  0  0  0  0
   -2.5448   -3.7814    2.0580 H   0  0  0  0  0  0  0  0  0  0  0  0
   -0.8804   -4.3225    1.7289 H   0  0  0  0  0  0  0  0  0  0  0  0
   -1.0935   -2.6803    2.3741 H   0  0  0  0  0  0  0  0  0  0  0  0
   -1.9276   -1.4395   -1.9482 H   0  0  0  0  0  0  0  0  0  0  0  0
   -3.1850    0.7058   -2.0455 H   0  0  0  0  0  0  0  0  0  0  0  0
   -5.8177    1.3730    1.4682 H   0  0  0  0  0  0  0  0  0  0  0  0
   -7.7279    5.3995   -0.3415 H   0  0  0  0  0  0  0  0  0  0  0  0
   -6.3303    6.3312    0.3289 H   0  0  0  0  0  0  0  0  0  0  0  0
   -3.3190    2.8846   -1.5957 H   0  0  0  0  0  0  0  0  0  0  0  0
   -4.0801    0.4116    2.0744 H   0  0  0  0  0  0  0  0  0  0  0  0
   -2.8743   -1.6800    2.2386 H   0  0  0  0  0  0  0  0  0  0  0  0
   -1.4576   -4.9565   -0.6345 H   0  0  0  0  0  0  0  0  0  0  0  0
   -4.2122   -3.9192    0.3903 H   0  0  0  0  0  0  0  0  0  0  0  0
   -3.8364   -5.5996   -0.2980 H   0  0  0  0  0  0  0  0  0  0  0  0
   -3.0903   -4.6684   -2.4801 H   0  0  0  0  0  0  0  0  0  0  0  0
   -3.6962   -3.0440   -1.8773 H   0  0  0  0  0  0  0  0  0  0  0  0
    2.3030    0.0289    2.1196 H   0  0  0  0  0  0  0  0  0  0  0  0
  1  2  1  0
  2  3  1  0
  2  4  1  0
  4  5  2  0
  4  6  1  0
  6  7  1  0
  7  8  1  0
  8  9  2  0
  9 10  1  0
 10 11  2  0
 11 12  1  0
 12 13  1  0
 13 14  1  1
 13 15  1  0
 15 16  2  0
 16 17  1  0
 17 18  2  0
 18 19  1  0
 19 20  2  0
 20 21  1  0
 21 22  2  0
 22 23  1  0
 22 24  1  0
 24 25  2  0
 18 26  1  0
 26 27  2  0
 13 28  1  0
 28 29  1  0
 29 30  1  0
 12 31  2  0
 31 32  1  0
  9 33  1  0
 33 34  2  0
 34  7  1  0
 32 10  1  0
 27 15  1  0
 30 28  1  0
 25 19  1  0
  1 35  1  0
  1 36  1  0
  1 37  1  0
  3 38  1  0
  3 39  1  0
  3 40  1  0
  6 41  1  0
  6 42  1  0
  8 43  1  0
 14 44  1  0
 14 45  1  0
 14 46  1  0
 16 47  1  0
 17 48  1  0
 20 49  1  0
 23 50  1  0
 23 51  1  0
 25 52  1  0
 26 53  1  0
 27 54  1  0
 28 55  1  0
 29 56  1  0
 29 57  1  0
 30 58  1  0
 30 59  1  0
 33 60  1  0
M  END
$$$$
