@<TRIPOS>MOLECULE
*****
 60 64 0 0 0
SMALL
GASTEIGER

@<TRIPOS>ATOM
      1 C           6.6833    3.7059   -1.4617 C.3     1  UNL1        0.0029
      2 N           6.6257    2.6376   -0.5102 N.am    1  UNL1       -0.3061
      3 C           6.7733    2.8949    0.9084 C.3     1  UNL1        0.0029
      4 C           6.4256    1.3064   -0.9470 C.2     1  UNL1        0.2366
      5 O           6.3037    1.0644   -2.1741 O.2     1  UNL1       -0.2736
      6 C           6.3492    0.1506   -0.0246 C.3     1  UNL1        0.1178
      7 N           4.9900   -0.1361    0.3612 N.ar    1  UNL1       -0.2618
      8 C           4.1909   -0.9811   -0.3293 C.ar    1  UNL1        0.0384
      9 C           2.9626   -1.0460    0.2841 C.ar    1  UNL1        0.0768
     10 C           1.7935   -1.8297   -0.1126 C.ar    1  UNL1        0.2615
     11 N           0.6212   -1.8631    0.5110 N.ar    1  UNL1       -0.1908
     12 C          -0.1927   -2.6960   -0.1555 C.ar    1  UNL1        0.1825
     13 C          -1.5941   -2.9725    0.2669 C.3     1  UNL1        0.0586
     14 C          -1.5460   -3.4116    1.7053 C.3     1  UNL1       -0.0482
     15 C          -2.3253   -1.6897    0.1477 C.ar    1  UNL1       -0.0337
     16 C          -2.4126   -1.0241   -1.0446 C.ar    1  UNL1       -0.0570
     17 C          -3.1040    0.1618   -1.1068 C.ar    1  UNL1       -0.0537
     18 C          -3.7253    0.7271   -0.0143 C.ar    1  UNL1       -0.0150
     19 C          -4.4570    1.9808   -0.0776 C.ar    1  UNL1        0.0185
     20 C          -5.5326    2.1693    0.7657 C.ar    1  UNL1        0.0403
     21 N          -6.2618    3.2878    0.7762 N.ar    1  UNL1       -0.2225
     22 C          -5.9473    4.2869   -0.0677 C.ar    1  UNL1        0.2125
     23 N          -6.7454    5.4518   -0.0224 N.pl3   1  UNL1       -0.3275
     24 N          -4.9110    4.1186   -0.8877 N.ar    1  UNL1       -0.2225
     25 C          -4.1487    3.0108   -0.9335 C.ar    1  UNL1        0.0403
     26 C          -3.6133    0.0241    1.1687 C.ar    1  UNL1       -0.0537
     27 C          -2.9274   -1.1662    1.2623 C.ar    1  UNL1       -0.0570
     28 C          -2.1595   -4.0848   -0.5471 C.3     1  UNL1       -0.0246
     29 C          -3.5853   -4.5325   -0.2739 C.3     1  UNL1       -0.0487
     30 C          -3.1336   -3.9426   -1.6151 C.3     1  UNL1       -0.0487
     31 N           0.5027   -3.1670   -1.1917 N.ar    1  UNL1       -0.0600
     32 O           1.6873   -2.6390   -1.1506 O.2     1  UNL1       -0.3327
     33 C           3.0483   -0.2103    1.3695 C.ar    1  UNL1        0.0617
     34 N           4.2853    0.3178    1.3798 N.ar    1  UNL1       -0.1784
     35 H           5.7437    3.7463   -2.0493 H       1  UNL1        0.0428
     36 H           7.5907    3.6420   -2.1146 H       1  UNL1        0.0428
     37 H           6.7610    4.6668   -0.9217 H       1  UNL1        0.0428
     38 H           6.9284    3.9977    1.0594 H       1  UNL1        0.0428
     39 H           5.8882    2.5953    1.4758 H       1  UNL1        0.0428
     40 H           7.7122    2.3752    1.2394 H       1  UNL1        0.0428
     41 H           6.7795   -0.7656   -0.5177 H       1  UNL1        0.0605
     42 H           6.9865    0.3175    0.8899 H       1  UNL1        0.0605
     43 H           4.4607   -1.5227   -1.2181 H       1  UNL1        0.0834
     44 H          -2.5448   -3.7814    2.0580 H       1  UNL1        0.0242
     45 H          -0.8804   -4.3225    1.7289 H       1  UNL1        0.0242
     46 H          -1.0935   -2.6803    2.3741 H       1  UNL1        0.0242
     47 H          -1.9276   -1.4395   -1.9482 H       1  UNL1        0.0621
     48 H          -3.1850    0.7058   -2.0455 H       1  UNL1        0.0624
     49 H          -5.8177    1.3730    1.4682 H       1  UNL1        0.0837
     50 H          -7.7279    5.3995   -0.3415 H       1  UNL1        0.1452
     51 H          -6.3303    6.3312    0.3289 H       1  UNL1        0.1452
     52 H          -3.3190    2.8846   -1.5957 H       1  UNL1        0.0837
     53 H          -4.0801    0.4116    2.0744 H       1  UNL1        0.0624
     54 H          -2.8743   -1.6800    2.2386 H       1  UNL1        0.0621
     55 H          -1.4576   -4.9565   -0.6345 H       1  UNL1        0.0313
     56 H          -4.2122   -3.9192    0.3903 H       1  UNL1        0.0268
     57 H          -3.8364   -5.5996   -0.2980 H       1  UNL1        0.0268
     58 H          -3.0903   -4.6684   -2.4801 H       1  UNL1        0.0268
     59 H          -3.6962   -3.0440   -1.8773 H       1  UNL1        0.0268
     60 H           2.3030    0.0289    2.1196 H       1  UNL1        0.0855
@<TRIPOS>BOND
     1     1     2    1
     2     2     3    1
     3     2     4   am
     4     4     5    2
     5     4     6    1
     6     6     7    1
     7     7     8   ar
     8     8     9   ar
     9     9    10    1
    10    10    11   ar
    11    11    12   ar
    12    12    13    1
    13    13    14    1
    14    13    15    1
    15    15    16   ar
    16    16    17   ar
    17    17    18   ar
    18    18    19    1
    19    19    20   ar
    20    20    21   ar
    21    21    22   ar
    22    22    23    1
    23    22    24   ar
    24    24    25   ar
    25    18    26   ar
    26    26    27   ar
    27    13    28    1
    28    28    29    1
    29    29    30    1
    30    12    31   ar
    31    31    32   ar
    32     9    33   ar
    33    33    34   ar
    34    34     7   ar
    35    32    10   ar
    36    27    15   ar
    37    30    28    1
    38    25    19   ar
    39     1    35    1
    40     1    36    1
    41     1    37    1
    42     3    38    1
    43     3    39    1
    44     3    40    1
    45     6    41    1
    46     6    42    1
    47     8    43    1
    48    14    44    1
    49    14    45    1
    50    14    46    1
    51    16    47    1
    52    17    48    1
    53    20    49    1
    54    23    50    1
    55    23    51    1
    56    25    52    1
    57    26    53    1
    58    27    54    1
    59    28    55    1
    60    29    56    1
    61    29    57    1
    62    30    58    1
    63    30    59    1
    64    33    60    1
