
     RDKit          3D

 38 40  0  0  0  0  0  0  0  0999 V2000
    6.0867   -2.0418   -0.7382 O   0  0  0  0  0  0  0  0  0  0  0  0
    5.0631   -1.7777   -0.0952 C   0  0  0  0  0  0  0  0  0  0  0  0
    4.6776   -2.6107    0.9378 O   0  0  0  0  0  0  0  0  0  0  0  0
    4.2568   -0.5979   -0.4128 C   0  0  0  0  0  0  0  0  0  0  0  0
    4.6501    0.2355   -1.4527 C   0  0  0  0  0  0  0  0  0  0  0  0
    3.8534    1.3535   -1.7261 C   0  0  0  0  0  0  0  0  0  0  0  0
    2.7202    1.6169   -0.9896 C   0  0  0  0  0  0  0  0  0  0  0  0
    2.3327    0.7940    0.0365 C   0  0  0  0  0  0  0  0  0  0  0  0
    0.9141    1.1277    0.9551 S   0  0  0  0  0  6  0  0  0  0  0  0
    1.1399    0.5755    2.3573 O   0  0  0  0  0  0  0  0  0  0  0  0
    0.7470    2.6109    1.1220 O   0  0  0  0  0  0  0  0  0  0  0  0
   -0.5039    0.4433    0.3683 N   0  0  0  0  0  0  0  0  0  0  0  0
   -0.5618   -0.9622    0.2995 C   0  0  0  0  0  0  0  0  0  0  0  0
   -1.9943   -1.4138    0.4052 C   0  0  0  0  0  0  0  0  0  0  0  0
   -2.9545   -0.3962   -0.0781 C   0  0  0  0  0  0  0  0  0  0  0  0
   -4.2967   -0.7265    0.0191 C   0  0  0  0  0  0  0  0  0  0  0  0
   -4.6956   -1.9566    0.5470 O   0  0  0  0  0  0  0  0  0  0  0  0
   -5.2657    0.1577   -0.4058 C   0  0  0  0  0  0  0  0  0  0  0  0
   -4.8908    1.3772   -0.9299 C   0  0  0  0  0  0  0  0  0  0  0  0
   -3.5490    1.7114   -1.0288 C   0  0  0  0  0  0  0  0  0  0  0  0
   -2.6021    0.8179   -0.6007 C   0  0  0  0  0  0  0  0  0  0  0  0
   -1.1596    1.1395   -0.6904 C   0  0  0  0  0  0  0  0  0  0  0  0
    3.1145   -0.3130    0.3132 C   0  0  0  0  0  0  0  0  0  0  0  0
    5.3089   -3.2131    1.4391 H   0  0  0  0  0  0  0  0  0  0  0  0
    5.5437    0.0152   -2.0228 H   0  0  0  0  0  0  0  0  0  0  0  0
    4.1399    2.0142   -2.5291 H   0  0  0  0  0  0  0  0  0  0  0  0
    2.1069    2.4739   -1.1969 H   0  0  0  0  0  0  0  0  0  0  0  0
   -0.1857   -1.3066   -0.7048 H   0  0  0  0  0  0  0  0  0  0  0  0
    0.0752   -1.3929    1.1006 H   0  0  0  0  0  0  0  0  0  0  0  0
   -2.2064   -1.5714    1.4853 H   0  0  0  0  0  0  0  0  0  0  0  0
   -2.1903   -2.3727   -0.1210 H   0  0  0  0  0  0  0  0  0  0  0  0
   -5.5136   -2.4562    0.2176 H   0  0  0  0  0  0  0  0  0  0  0  0
   -6.3351   -0.0721   -0.3431 H   0  0  0  0  0  0  0  0  0  0  0  0
   -5.6042    2.1090   -1.2783 H   0  0  0  0  0  0  0  0  0  0  0  0
   -3.2867    2.6903   -1.4509 H   0  0  0  0  0  0  0  0  0  0  0  0
   -0.8105    0.7005   -1.6715 H   0  0  0  0  0  0  0  0  0  0  0  0
   -0.9687    2.2120   -0.6509 H   0  0  0  0  0  0  0  0  0  0  0  0
    2.8443   -0.9950    1.1204 H   0  0  0  0  0  0  0  0  0  0  0  0
  1  2  2  0
  2  3  1  0
  2  4  1  0
  4  5  2  0
  5  6  1  0
  6  7  2  0
  7  8  1  0
  8  9  1  0
  9 10  2  0
  9 11  2  0
  9 12  1  0
 12 13  1  0
 13 14  1  0
 14 15  1  0
 15 16  2  0
 16 17  1  0
 16 18  1  0
 18 19  2  0
 19 20  1  0
 20 21  2  0
 21 22  1  0
  8 23  2  0
 23  4  1  0
 22 12  1  0
 21 15  1  0
  3 24  1  0
  5 25  1  0
  6 26  1  0
  7 27  1  0
 13 28  1  0
 13 29  1  0
 14 30  1  0
 14 31  1  0
 17 32  1  0
 18 33  1  0
 19 34  1  0
 20 35  1  0
 22 36  1  0
 22 37  1  0
 23 38  1  0
M  END
$$$$
