@<TRIPOS>MOLECULE
*****
 38 40 0 0 0
SMALL
GASTEIGER

@<TRIPOS>ATOM
      1 O           6.0867   -2.0418   -0.7382 O.2     1  UNL1       -0.2451
      2 C           5.0631   -1.7777   -0.0952 C.2     1  UNL1        0.3369
      3 O           4.6776   -2.6107    0.9378 O.3     1  UNL1       -0.4771
      4 C           4.2568   -0.5979   -0.4128 C.ar    1  UNL1        0.0607
      5 C           4.6501    0.2355   -1.4527 C.ar    1  UNL1       -0.0477
      6 C           3.8534    1.3535   -1.7261 C.ar    1  UNL1       -0.0591
      7 C           2.7202    1.6169   -0.9896 C.ar    1  UNL1       -0.0353
      8 C           2.3327    0.7940    0.0365 C.ar    1  UNL1        0.1063
      9 S           0.9141    1.1277    0.9551 S.O2    1  UNL1        0.0612
     10 O           1.1399    0.5755    2.3573 O.2     1  UNL1       -0.1528
     11 O           0.7470    2.6109    1.1220 O.2     1  UNL1       -0.1528
     12 N          -0.5039    0.4433    0.3683 N.3     1  UNL1       -0.1720
     13 C          -0.5618   -0.9622    0.2995 C.3     1  UNL1        0.0250
     14 C          -1.9943   -1.4138    0.4052 C.3     1  UNL1       -0.0095
     15 C          -2.9545   -0.3962   -0.0781 C.ar    1  UNL1       -0.0002
     16 C          -4.2967   -0.7265    0.0191 C.ar    1  UNL1        0.1204
     17 O          -4.6956   -1.9566    0.5470 O.3     1  UNL1       -0.5065
     18 C          -5.2657    0.1577   -0.4058 C.ar    1  UNL1       -0.0199
     19 C          -4.8908    1.3772   -0.9299 C.ar    1  UNL1       -0.0580
     20 C          -3.5490    1.7114   -1.0288 C.ar    1  UNL1       -0.0568
     21 C          -2.6021    0.8179   -0.6007 C.ar    1  UNL1       -0.0250
     22 C          -1.1596    1.1395   -0.6904 C.3     1  UNL1        0.0459
     23 C           3.1145   -0.3130    0.3132 C.ar    1  UNL1       -0.0214
     24 H           5.3089   -3.2131    1.4391 H       1  UNL1        0.2954
     25 H           5.5437    0.0152   -2.0228 H       1  UNL1        0.0626
     26 H           4.1399    2.0142   -2.5291 H       1  UNL1        0.0618
     27 H           2.1069    2.4739   -1.1969 H       1  UNL1        0.0637
     28 H          -0.1857   -1.3066   -0.7048 H       1  UNL1        0.0447
     29 H           0.0752   -1.3929    1.1006 H       1  UNL1        0.0447
     30 H          -2.2064   -1.5714    1.4853 H       1  UNL1        0.0327
     31 H          -2.1903   -2.3727   -0.1210 H       1  UNL1        0.0327
     32 H          -5.5136   -2.4562    0.2176 H       1  UNL1        0.2921
     33 H          -6.3351   -0.0721   -0.3431 H       1  UNL1        0.0654
     34 H          -5.6042    2.1090   -1.2783 H       1  UNL1        0.0619
     35 H          -3.2867    2.6903   -1.4509 H       1  UNL1        0.0621
     36 H          -0.8105    0.7005   -1.6715 H       1  UNL1        0.0493
     37 H          -0.9687    2.2120   -0.6509 H       1  UNL1        0.0493
     38 H           2.8443   -0.9950    1.1204 H       1  UNL1        0.0645
@<TRIPOS>BOND
     1     1     2    2
     2     2     3    1
     3     2     4    1
     4     4     5   ar
     5     5     6   ar
     6     6     7   ar
     7     7     8   ar
     8     8     9    1
     9     9    10    2
    10     9    11    2
    11     9    12    1
    12    12    13    1
    13    13    14    1
    14    14    15    1
    15    15    16   ar
    16    16    17    1
    17    16    18   ar
    18    18    19   ar
    19    19    20   ar
    20    20    21   ar
    21    21    22    1
    22     8    23   ar
    23    23     4   ar
    24    22    12    1
    25    21    15   ar
    26     3    24    1
    27     5    25    1
    28     6    26    1
    29     7    27    1
    30    13    28    1
    31    13    29    1
    32    14    30    1
    33    14    31    1
    34    17    32    1
    35    18    33    1
    36    19    34    1
    37    20    35    1
    38    22    36    1
    39    22    37    1
    40    23    38    1
