@<TRIPOS>MOLECULE
*****
 71 74 0 0 0
SMALL
GASTEIGER

@<TRIPOS>ATOM
      1 C         -10.9144    2.7974    0.6164 C.3     1  UNL1       -0.0524
      2 C         -10.8681    1.4084    0.0746 C.3     1  UNL1       -0.0039
      3 N          -9.6432    0.7111    0.4136 N.3     1  UNL1       -0.3023
      4 C          -9.5302    0.4203    1.8127 C.3     1  UNL1        0.0022
      5 C          -8.0493    0.2694    2.1374 C.3     1  UNL1       -0.0029
      6 C          -7.4113   -0.5818    1.0279 C.3     1  UNL1        0.1026
      7 O          -6.7451    0.1789    0.1023 O.3     1  UNL1       -0.4872
      8 C          -5.4160    0.0381   -0.2184 C.ar    1  UNL1        0.1390
      9 C          -4.9309    0.9148   -1.1818 C.ar    1  UNL1       -0.0162
     10 C          -3.6282    0.8531   -1.5660 C.ar    1  UNL1       -0.0277
     11 C          -2.7837   -0.0722   -1.0078 C.ar    1  UNL1        0.1259
     12 C          -1.3541   -0.1876   -1.3878 C.2     1  UNL1        0.2666
     13 O          -0.8881    0.5874   -2.2488 O.2     1  UNL1       -0.2682
     14 N          -0.5266   -1.1554   -0.7909 N.am    1  UNL1       -0.2802
     15 C           0.8239   -1.3818   -1.0434 C.ar    1  UNL1        0.0338
     16 C           1.5684   -0.6606   -1.9349 C.ar    1  UNL1       -0.0387
     17 C           2.9306   -0.9272   -2.1572 C.ar    1  UNL1       -0.0387
     18 C           3.5723   -1.9303   -1.4829 C.ar    1  UNL1        0.0349
     19 N           4.9447   -2.2273   -1.6816 N.am    1  UNL1       -0.2692
     20 C           5.9194   -1.5594   -0.8619 C.2     1  UNL1        0.3093
     21 O           5.5038   -0.7379   -0.0043 O.2     1  UNL1       -0.2521
     22 N           7.3085   -1.7901   -0.9831 N.am    1  UNL1       -0.2512
     23 C           8.2839   -1.1461   -0.1866 C.ar    1  UNL1        0.1691
     24 C           8.9683    0.0273   -0.3882 C.ar    1  UNL1        0.0230
     25 C           9.7861    0.1839    0.6867 C.ar    1  UNL1        0.1445
     26 C          10.7476    1.2726    0.9950 C.3     1  UNL1        0.0230
     27 C          12.0929    0.9047    0.4151 C.3     1  UNL1       -0.0531
     28 C          10.7898    1.4511    2.4925 C.3     1  UNL1       -0.0531
     29 C          10.3317    2.5807    0.3602 C.3     1  UNL1       -0.0531
     30 O           9.5860   -0.8463    1.4716 O.2     1  UNL1       -0.3573
     31 N           8.7112   -1.6450    0.9884 N.ar    1  UNL1       -0.0627
     32 C           2.8476   -2.6700   -0.5817 C.ar    1  UNL1       -0.0387
     33 C           1.5158   -2.3973   -0.3750 C.ar    1  UNL1       -0.0387
     34 N          -3.2481   -0.9105   -0.0863 N.ar    1  UNL1       -0.2467
     35 C          -4.5508   -0.8833    0.3293 C.ar    1  UNL1        0.0701
     36 C          -8.5248   -1.4042    0.3860 C.3     1  UNL1       -0.0029
     37 C          -9.5042   -0.5228   -0.3297 C.3     1  UNL1        0.0022
     38 H         -11.3697    2.8806    1.6252 H       1  UNL1        0.0242
     39 H          -9.8855    3.2484    0.5898 H       1  UNL1        0.0242
     40 H         -11.5176    3.4216   -0.1026 H       1  UNL1        0.0242
     41 H         -11.7315    0.8002    0.3872 H       1  UNL1        0.0424
     42 H         -10.9055    1.4721   -1.0456 H       1  UNL1        0.0424
     43 H         -10.0504   -0.5346    2.0152 H       1  UNL1        0.0428
     44 H          -9.8934    1.2450    2.4612 H       1  UNL1        0.0428
     45 H          -7.8960   -0.2336    3.1174 H       1  UNL1        0.0313
     46 H          -7.5531    1.2591    2.2097 H       1  UNL1        0.0313
     47 H          -6.7477   -1.3182    1.5064 H       1  UNL1        0.0733
     48 H          -5.5835    1.6352   -1.6173 H       1  UNL1        0.0655
     49 H          -3.2147    1.5381   -2.3307 H       1  UNL1        0.0641
     50 H          -0.9817   -1.7954   -0.0558 H       1  UNL1        0.1552
     51 H           1.1862    0.1438   -2.5187 H       1  UNL1        0.0637
     52 H           3.5075   -0.3456   -2.8682 H       1  UNL1        0.0637
     53 H           5.2954   -2.9070   -2.3918 H       1  UNL1        0.1564
     54 H           7.6258   -2.4701   -1.6960 H       1  UNL1        0.1579
     55 H           8.8659    0.6744   -1.2272 H       1  UNL1        0.0688
     56 H          12.2291   -0.1764    0.2728 H       1  UNL1        0.0239
     57 H          12.8850    1.3011    1.0747 H       1  UNL1        0.0239
     58 H          12.2297    1.3853   -0.5684 H       1  UNL1        0.0239
     59 H           9.7682    1.2347    2.9216 H       1  UNL1        0.0239
     60 H          11.0125    2.5220    2.7612 H       1  UNL1        0.0239
     61 H          11.5441    0.7890    2.9316 H       1  UNL1        0.0239
     62 H          11.2760    3.1695    0.1782 H       1  UNL1        0.0239
     63 H           9.7905    2.4646   -0.5809 H       1  UNL1        0.0239
     64 H           9.7783    3.1831    1.1199 H       1  UNL1        0.0239
     65 H           3.3355   -3.4668   -0.0386 H       1  UNL1        0.0637
     66 H           0.9293   -2.9844    0.3432 H       1  UNL1        0.0637
     67 H          -4.8830   -1.5757    1.0734 H       1  UNL1        0.0867
     68 H          -8.9713   -2.0410    1.1635 H       1  UNL1        0.0313
     69 H          -8.0609   -2.0845   -0.3557 H       1  UNL1        0.0313
     70 H          -9.2366   -0.3272   -1.3804 H       1  UNL1        0.0428
     71 H         -10.4926   -1.0693   -0.3045 H       1  UNL1        0.0428
@<TRIPOS>BOND
     1     1     2    1
     2     2     3    1
     3     3     4    1
     4     4     5    1
     5     5     6    1
     6     6     7    1
     7     7     8    1
     8     8     9   ar
     9     9    10   ar
    10    10    11   ar
    11    11    12    1
    12    12    13    2
    13    12    14   am
    14    14    15    1
    15    15    16   ar
    16    16    17   ar
    17    17    18   ar
    18    18    19    1
    19    19    20   am
    20    20    21    2
    21    20    22   am
    22    22    23    1
    23    23    24   ar
    24    24    25   ar
    25    25    26    1
    26    26    27    1
    27    26    28    1
    28    26    29    1
    29    25    30   ar
    30    30    31   ar
    31    18    32   ar
    32    32    33   ar
    33    11    34   ar
    34    34    35   ar
    35     6    36    1
    36    36    37    1
    37    37     3    1
    38    35     8   ar
    39    33    15   ar
    40    31    23   ar
    41     1    38    1
    42     1    39    1
    43     1    40    1
    44     2    41    1
    45     2    42    1
    46     4    43    1
    47     4    44    1
    48     5    45    1
    49     5    46    1
    50     6    47    1
    51     9    48    1
    52    10    49    1
    53    14    50    1
    54    16    51    1
    55    17    52    1
    56    19    53    1
    57    22    54    1
    58    24    55    1
    59    27    56    1
    60    27    57    1
    61    27    58    1
    62    28    59    1
    63    28    60    1
    64    28    61    1
    65    29    62    1
    66    29    63    1
    67    29    64    1
    68    32    65    1
    69    33    66    1
    70    35    67    1
    71    36    68    1
    72    36    69    1
    73    37    70    1
    74    37    71    1
