
     RDKit          3D

 71 74  0  0  0  0  0  0  0  0999 V2000
  -10.9144    2.7974    0.6164 C   0  0  0  0  0  0  0  0  0  0  0  0
  -10.8681    1.4084    0.0746 C   0  0  0  0  0  0  0  0  0  0  0  0
   -9.6432    0.7111    0.4136 N   0  0  0  0  0  0  0  0  0  0  0  0
   -9.5302    0.4203    1.8127 C   0  0  0  0  0  0  0  0  0  0  0  0
   -8.0493    0.2694    2.1374 C   0  0  0  0  0  0  0  0  0  0  0  0
   -7.4113   -0.5818    1.0279 C   0  0  0  0  0  0  0  0  0  0  0  0
   -6.7451    0.1789    0.1023 O   0  0  0  0  0  0  0  0  0  0  0  0
   -5.4160    0.0381   -0.2184 C   0  0  0  0  0  0  0  0  0  0  0  0
   -4.9309    0.9148   -1.1818 C   0  0  0  0  0  0  0  0  0  0  0  0
   -3.6282    0.8531   -1.5660 C   0  0  0  0  0  0  0  0  0  0  0  0
   -2.7837   -0.0722   -1.0078 C   0  0  0  0  0  0  0  0  0  0  0  0
   -1.3541   -0.1876   -1.3878 C   0  0  0  0  0  0  0  0  0  0  0  0
   -0.8881    0.5874   -2.2488 O   0  0  0  0  0  0  0  0  0  0  0  0
   -0.5266   -1.1554   -0.7909 N   0  0  0  0  0  0  0  0  0  0  0  0
    0.8239   -1.3818   -1.0434 C   0  0  0  0  0  0  0  0  0  0  0  0
    1.5684   -0.6606   -1.9349 C   0  0  0  0  0  0  0  0  0  0  0  0
    2.9306   -0.9272   -2.1572 C   0  0  0  0  0  0  0  0  0  0  0  0
    3.5723   -1.9303   -1.4829 C   0  0  0  0  0  0  0  0  0  0  0  0
    4.9447   -2.2273   -1.6816 N   0  0  0  0  0  0  0  0  0  0  0  0
    5.9194   -1.5594   -0.8619 C   0  0  0  0  0  0  0  0  0  0  0  0
    5.5038   -0.7379   -0.0043 O   0  0  0  0  0  0  0  0  0  0  0  0
    7.3085   -1.7901   -0.9831 N   0  0  0  0  0  0  0  0  0  0  0  0
    8.2839   -1.1461   -0.1866 C   0  0  0  0  0  0  0  0  0  0  0  0
    8.9683    0.0273   -0.3882 C   0  0  0  0  0  0  0  0  0  0  0  0
    9.7861    0.1839    0.6867 C   0  0  0  0  0  0  0  0  0  0  0  0
   10.7476    1.2726    0.9950 C   0  0  0  0  0  0  0  0  0  0  0  0
   12.0929    0.9047    0.4151 C   0  0  0  0  0  0  0  0  0  0  0  0
   10.7898    1.4511    2.4925 C   0  0  0  0  0  0  0  0  0  0  0  0
   10.3317    2.5807    0.3602 C   0  0  0  0  0  0  0  0  0  0  0  0
    9.5860   -0.8463    1.4716 O   0  0  0  0  0  0  0  0  0  0  0  0
    8.7112   -1.6450    0.9884 N   0  0  0  0  0  0  0  0  0  0  0  0
    2.8476   -2.6700   -0.5817 C   0  0  0  0  0  0  0  0  0  0  0  0
    1.5158   -2.3973   -0.3750 C   0  0  0  0  0  0  0  0  0  0  0  0
   -3.2481   -0.9105   -0.0863 N   0  0  0  0  0  0  0  0  0  0  0  0
   -4.5508   -0.8833    0.3293 C   0  0  0  0  0  0  0  0  0  0  0  0
   -8.5248   -1.4042    0.3860 C   0  0  0  0  0  0  0  0  0  0  0  0
   -9.5042   -0.5228   -0.3297 C   0  0  0  0  0  0  0  0  0  0  0  0
  -11.3697    2.8806    1.6252 H   0  0  0  0  0  0  0  0  0  0  0  0
   -9.8855    3.2484    0.5898 H   0  0  0  0  0  0  0  0  0  0  0  0
  -11.5176    3.4216   -0.1026 H   0  0  0  0  0  0  0  0  0  0  0  0
  -11.7315    0.8002    0.3872 H   0  0  0  0  0  0  0  0  0  0  0  0
  -10.9055    1.4721   -1.0456 H   0  0  0  0  0  0  0  0  0  0  0  0
  -10.0504   -0.5346    2.0152 H   0  0  0  0  0  0  0  0  0  0  0  0
   -9.8934    1.2450    2.4612 H   0  0  0  0  0  0  0  0  0  0  0  0
   -7.8960   -0.2336    3.1174 H   0  0  0  0  0  0  0  0  0  0  0  0
   -7.5531    1.2591    2.2097 H   0  0  0  0  0  0  0  0  0  0  0  0
   -6.7477   -1.3182    1.5064 H   0  0  0  0  0  0  0  0  0  0  0  0
   -5.5835    1.6352   -1.6173 H   0  0  0  0  0  0  0  0  0  0  0  0
   -3.2147    1.5381   -2.3307 H   0  0  0  0  0  0  0  0  0  0  0  0
   -0.9817   -1.7954   -0.0558 H   0  0  0  0  0  0  0  0  0  0  0  0
    1.1862    0.1438   -2.5187 H   0  0  0  0  0  0  0  0  0  0  0  0
    3.5075   -0.3456   -2.8682 H   0  0  0  0  0  0  0  0  0  0  0  0
    5.2954   -2.9070   -2.3918 H   0  0  0  0  0  0  0  0  0  0  0  0
    7.6258   -2.4701   -1.6960 H   0  0  0  0  0  0  0  0  0  0  0  0
    8.8659    0.6744   -1.2272 H   0  0  0  0  0  0  0  0  0  0  0  0
   12.2291   -0.1764    0.2728 H   0  0  0  0  0  0  0  0  0  0  0  0
   12.8850    1.3011    1.0747 H   0  0  0  0  0  0  0  0  0  0  0  0
   12.2297    1.3853   -0.5684 H   0  0  0  0  0  0  0  0  0  0  0  0
    9.7682    1.2347    2.9216 H   0  0  0  0  0  0  0  0  0  0  0  0
   11.0125    2.5220    2.7612 H   0  0  0  0  0  0  0  0  0  0  0  0
   11.5441    0.7890    2.9316 H   0  0  0  0  0  0  0  0  0  0  0  0
   11.2760    3.1695    0.1782 H   0  0  0  0  0  0  0  0  0  0  0  0
    9.7905    2.4646   -0.5809 H   0  0  0  0  0  0  0  0  0  0  0  0
    9.7783    3.1831    1.1199 H   0  0  0  0  0  0  0  0  0  0  0  0
    3.3355   -3.4668   -0.0386 H   0  0  0  0  0  0  0  0  0  0  0  0
    0.9293   -2.9844    0.3432 H   0  0  0  0  0  0  0  0  0  0  0  0
   -4.8830   -1.5757    1.0734 H   0  0  0  0  0  0  0  0  0  0  0  0
   -8.9713   -2.0410    1.1635 H   0  0  0  0  0  0  0  0  0  0  0  0
   -8.0609   -2.0845   -0.3557 H   0  0  0  0  0  0  0  0  0  0  0  0
   -9.2366   -0.3272   -1.3804 H   0  0  0  0  0  0  0  0  0  0  0  0
  -10.4926   -1.0693   -0.3045 H   0  0  0  0  0  0  0  0  0  0  0  0
  1  2  1  0
  2  3  1  0
  3  4  1  0
  4  5  1  0
  5  6  1  0
  6  7  1  0
  7  8  1  0
  8  9  2  0
  9 10  1  0
 10 11  2  0
 11 12  1  0
 12 13  2  0
 12 14  1  0
 14 15  1  0
 15 16  2  0
 16 17  1  0
 17 18  2  0
 18 19  1  0
 19 20  1  0
 20 21  2  0
 20 22  1  0
 22 23  1  0
 23 24  1  0
 24 25  2  0
 25 26  1  0
 26 27  1  0
 26 28  1  0
 26 29  1  0
 25 30  1  0
 30 31  1  0
 18 32  1  0
 32 33  2  0
 11 34  1  0
 34 35  2  0
  6 36  1  0
 36 37  1  0
 37  3  1  0
 35  8  1  0
 33 15  1  0
 31 23  2  0
  1 38  1  0
  1 39  1  0
  1 40  1  0
  2 41  1  0
  2 42  1  0
  4 43  1  0
  4 44  1  0
  5 45  1  0
  5 46  1  0
  6 47  1  0
  9 48  1  0
 10 49  1  0
 14 50  1  0
 16 51  1  0
 17 52  1  0
 19 53  1  0
 22 54  1  0
 24 55  1  0
 27 56  1  0
 27 57  1  0
 27 58  1  0
 28 59  1  0
 28 60  1  0
 28 61  1  0
 29 62  1  0
 29 63  1  0
 29 64  1  0
 32 65  1  0
 33 66  1  0
 35 67  1  0
 36 68  1  0
 36 69  1  0
 37 70  1  0
 37 71  1  0
M  END
$$$$
