@<TRIPOS>MOLECULE
*****
 32 33 0 0 0
SMALL
GASTEIGER

@<TRIPOS>ATOM
      1 C          -2.8838    1.0184   -0.8781 C.3     1  UNL1        0.0529
      2 C          -2.1266    1.9703    0.0010 C.3     1  UNL1        0.0143
      3 S          -0.4264    1.6451   -0.5587 S.3     1  UNL1       -0.1536
      4 C          -0.7086   -0.0351   -1.2040 C.3     1  UNL1        0.0255
      5 C           0.1563   -0.9620   -0.3615 C.3     1  UNL1       -0.0394
      6 C           1.5992   -0.5267   -0.5292 C.3     1  UNL1       -0.0515
      7 C           2.5386   -1.3978    0.2781 C.3     1  UNL1       -0.0430
      8 C           3.9500   -0.8881    0.0473 C.3     1  UNL1        0.0448
      9 C           4.0709    0.5244    0.4842 C.2     1  UNL1        0.3047
     10 O           3.3664    1.5688    1.0326 O.3     1  UNL1       -0.4806
     11 O           5.2785    0.8754    0.2583 O.2     1  UNL1       -0.2510
     12 C          -2.1500   -0.2664   -0.9439 C.3     1  UNL1        0.0555
     13 N          -2.4659   -0.9235    0.2907 N.am    1  UNL1       -0.2937
     14 C          -3.8557   -0.5893    0.4876 C.2     1  UNL1        0.3002
     15 O          -4.8341   -1.1440    1.0955 O.2     1  UNL1       -0.2528
     16 N          -4.1067    0.6589   -0.1823 N.am    1  UNL1       -0.2940
     17 H          -3.0843    1.4880   -1.8552 H       1  UNL1        0.0525
     18 H          -2.4334    2.9974   -0.2307 H       1  UNL1        0.0395
     19 H          -2.1733    1.7181    1.0723 H       1  UNL1        0.0395
     20 H          -0.4711   -0.1050   -2.2790 H       1  UNL1        0.0431
     21 H          -0.1589   -0.7742    0.7039 H       1  UNL1        0.0276
     22 H          -0.0070   -2.0126   -0.6347 H       1  UNL1        0.0276
     23 H           1.8384   -0.6059   -1.6065 H       1  UNL1        0.0266
     24 H           1.6427    0.5111   -0.1396 H       1  UNL1        0.0266
     25 H           2.4689   -2.4550    0.0112 H       1  UNL1        0.0270
     26 H           2.3196   -1.2172    1.3538 H       1  UNL1        0.0270
     27 H           4.1287   -0.9202   -1.0544 H       1  UNL1        0.0377
     28 H           4.6889   -1.5171    0.5986 H       1  UNL1        0.0377
     29 H           3.4219    2.4753    0.5900 H       1  UNL1        0.2951
     30 H          -2.5883   -0.8469   -1.7978 H       1  UNL1        0.0528
     31 H          -2.0298   -1.5245    1.0342 H       1  UNL1        0.1506
     32 H          -4.9653    1.2604   -0.2188 H       1  UNL1        0.1506
@<TRIPOS>BOND
     1     1     2    1
     2     2     3    1
     3     3     4    1
     4     4     5    1
     5     5     6    1
     6     6     7    1
     7     7     8    1
     8     8     9    1
     9     9    10    1
    10     9    11    2
    11     4    12    1
    12    12    13    1
    13    13    14   am
    14    14    15    2
    15    14    16   am
    16    12     1    1
    17    16     1    1
    18     1    17    1
    19     2    18    1
    20     2    19    1
    21     4    20    1
    22     5    21    1
    23     5    22    1
    24     6    23    1
    25     6    24    1
    26     7    25    1
    27     7    26    1
    28     8    27    1
    29     8    28    1
    30    10    29    1
    31    12    30    1
    32    13    31    1
    33    16    32    1
