
     RDKit          3D

 32 33  0  0  0  0  0  0  0  0999 V2000
   -2.8838    1.0184   -0.8781 C   0  0  1  0  0  0  0  0  0  0  0  0
   -2.1266    1.9703    0.0010 C   0  0  0  0  0  0  0  0  0  0  0  0
   -0.4264    1.6451   -0.5587 S   0  0  0  0  0  0  0  0  0  0  0  0
   -0.7086   -0.0351   -1.2040 C   0  0  1  0  0  0  0  0  0  0  0  0
    0.1563   -0.9620   -0.3615 C   0  0  0  0  0  0  0  0  0  0  0  0
    1.5992   -0.5267   -0.5292 C   0  0  0  0  0  0  0  0  0  0  0  0
    2.5386   -1.3978    0.2781 C   0  0  0  0  0  0  0  0  0  0  0  0
    3.9500   -0.8881    0.0473 C   0  0  0  0  0  0  0  0  0  0  0  0
    4.0709    0.5244    0.4842 C   0  0  0  0  0  0  0  0  0  0  0  0
    3.3664    1.5688    1.0326 O   0  0  0  0  0  0  0  0  0  0  0  0
    5.2785    0.8754    0.2583 O   0  0  0  0  0  0  0  0  0  0  0  0
   -2.1500   -0.2664   -0.9439 C   0  0  1  0  0  0  0  0  0  0  0  0
   -2.4659   -0.9235    0.2907 N   0  0  0  0  0  0  0  0  0  0  0  0
   -3.8557   -0.5893    0.4876 C   0  0  0  0  0  0  0  0  0  0  0  0
   -4.8341   -1.1440    1.0955 O   0  0  0  0  0  0  0  0  0  0  0  0
   -4.1067    0.6589   -0.1823 N   0  0  0  0  0  0  0  0  0  0  0  0
   -3.0843    1.4880   -1.8552 H   0  0  0  0  0  0  0  0  0  0  0  0
   -2.4334    2.9974   -0.2307 H   0  0  0  0  0  0  0  0  0  0  0  0
   -2.1733    1.7181    1.0723 H   0  0  0  0  0  0  0  0  0  0  0  0
   -0.4711   -0.1050   -2.2790 H   0  0  0  0  0  0  0  0  0  0  0  0
   -0.1589   -0.7742    0.7039 H   0  0  0  0  0  0  0  0  0  0  0  0
   -0.0070   -2.0126   -0.6347 H   0  0  0  0  0  0  0  0  0  0  0  0
    1.8384   -0.6059   -1.6065 H   0  0  0  0  0  0  0  0  0  0  0  0
    1.6427    0.5111   -0.1396 H   0  0  0  0  0  0  0  0  0  0  0  0
    2.4689   -2.4550    0.0112 H   0  0  0  0  0  0  0  0  0  0  0  0
    2.3196   -1.2172    1.3538 H   0  0  0  0  0  0  0  0  0  0  0  0
    4.1287   -0.9202   -1.0544 H   0  0  0  0  0  0  0  0  0  0  0  0
    4.6889   -1.5171    0.5986 H   0  0  0  0  0  0  0  0  0  0  0  0
    3.4219    2.4753    0.5900 H   0  0  0  0  0  0  0  0  0  0  0  0
   -2.5883   -0.8469   -1.7978 H   0  0  0  0  0  0  0  0  0  0  0  0
   -2.0298   -1.5245    1.0342 H   0  0  0  0  0  0  0  0  0  0  0  0
   -4.9653    1.2604   -0.2188 H   0  0  0  0  0  0  0  0  0  0  0  0
  1  2  1  0
  2  3  1  0
  3  4  1  0
  4  5  1  0
  5  6  1  0
  6  7  1  0
  7  8  1  0
  8  9  1  0
  9 10  1  0
  9 11  2  0
  4 12  1  0
 12 13  1  0
 13 14  1  0
 14 15  2  0
 14 16  1  0
 12  1  1  0
 16  1  1  0
  1 17  1  6
  2 18  1  0
  2 19  1  0
  4 20  1  6
  5 21  1  0
  5 22  1  0
  6 23  1  0
  6 24  1  0
  7 25  1  0
  7 26  1  0
  8 27  1  0
  8 28  1  0
 10 29  1  0
 12 30  1  6
 13 31  1  0
 16 32  1  0
M  END
$$$$
