
     RDKit          3D

 61 65  0  0  0  0  0  0  0  0999 V2000
    7.1469   -0.9615   -2.6001 N   0  0  0  0  0  0  0  0  0  0  0  0
    8.1565   -0.8613   -1.5928 C   0  0  0  0  0  0  0  0  0  0  0  0
    9.4926   -0.8103   -1.8996 C   0  0  0  0  0  0  0  0  0  0  0  0
   10.4611   -0.7138   -0.9224 C   0  0  0  0  0  0  0  0  0  0  0  0
    9.9964   -0.6721    0.3811 C   0  0  0  0  0  0  0  0  0  0  0  0
    8.6713   -0.7214    0.7118 C   0  0  0  0  0  0  0  0  0  0  0  0
    7.7168   -0.8181   -0.2843 C   0  0  0  0  0  0  0  0  0  0  0  0
    6.3270   -0.8718    0.0229 N   0  0  0  0  0  0  0  0  0  0  0  0
    5.6131    0.3412    0.1055 C   0  0  0  0  0  0  0  0  0  0  0  0
    6.2274    1.4139   -0.0939 O   0  0  0  0  0  0  0  0  0  0  0  0
    4.1828    0.3998    0.4148 C   0  0  0  0  0  0  0  0  0  0  0  0
    3.4229   -0.7271    0.6484 C   0  0  0  0  0  0  0  0  0  0  0  0
    2.0580   -0.6481    0.9424 C   0  0  0  0  0  0  0  0  0  0  0  0
    1.4092    0.5664    1.0118 C   0  0  0  0  0  0  0  0  0  0  0  0
   -0.0230    0.6969    1.3177 C   0  0  0  0  0  0  0  0  0  0  0  0
   -0.8567    0.6703    0.1443 N   0  0  0  0  0  0  0  0  0  0  0  0
   -2.2768    0.7933    0.3403 C   0  0  0  0  0  0  0  0  0  0  0  0
   -2.8521    0.9295    1.4796 N   0  0  0  0  0  0  0  0  0  0  0  0
   -4.3239    1.0266    1.3093 C   0  0  2  0  0  0  0  0  0  0  0  0
   -4.9363   -0.2933    1.4359 C   0  0  0  0  0  0  0  0  0  0  0  0
   -6.0337   -0.4907    2.2444 C   0  0  0  0  0  0  0  0  0  0  0  0
   -6.6661   -1.7006    2.4206 C   0  0  0  0  0  0  0  0  0  0  0  0
   -6.1672   -2.7876    1.7421 C   0  0  0  0  0  0  0  0  0  0  0  0
   -5.0719   -2.6367    0.9230 C   0  0  0  0  0  0  0  0  0  0  0  0
   -4.4628   -1.3992    0.7725 C   0  0  0  0  0  0  0  0  0  0  0  0
   -4.3492    1.5906   -0.1128 C   0  0  2  0  0  0  0  0  0  0  0  0
   -5.6109    1.3637   -0.8174 C   0  0  0  0  0  0  0  0  0  0  0  0
   -5.6887    0.9842   -2.1375 C   0  0  0  0  0  0  0  0  0  0  0  0
   -6.9180    0.8211   -2.7208 C   0  0  0  0  0  0  0  0  0  0  0  0
   -8.0816    1.0275   -2.0194 C   0  0  0  0  0  0  0  0  0  0  0  0
   -8.0288    1.4081   -0.6972 C   0  0  0  0  0  0  0  0  0  0  0  0
   -6.7852    1.5683   -0.1253 C   0  0  0  0  0  0  0  0  0  0  0  0
   -3.2637    0.7885   -0.6327 O   0  0  0  0  0  0  0  0  0  0  0  0
    2.1725    1.6912    0.7775 C   0  0  0  0  0  0  0  0  0  0  0  0
    3.5189    1.6124    0.4876 C   0  0  0  0  0  0  0  0  0  0  0  0
    6.4282   -1.7115   -2.5205 H   0  0  0  0  0  0  0  0  0  0  0  0
    7.1718   -0.2766   -3.3764 H   0  0  0  0  0  0  0  0  0  0  0  0
    9.8082   -0.8464   -2.9409 H   0  0  0  0  0  0  0  0  0  0  0  0
   11.5237   -0.6718   -1.1389 H   0  0  0  0  0  0  0  0  0  0  0  0
   10.7349   -0.5958    1.1826 H   0  0  0  0  0  0  0  0  0  0  0  0
    8.3169   -0.6875    1.7497 H   0  0  0  0  0  0  0  0  0  0  0  0
    5.8903   -1.7944    0.1743 H   0  0  0  0  0  0  0  0  0  0  0  0
    3.9144   -1.7040    0.5992 H   0  0  0  0  0  0  0  0  0  0  0  0
    1.4830   -1.5600    1.1227 H   0  0  0  0  0  0  0  0  0  0  0  0
   -0.3877   -0.1216    1.9965 H   0  0  0  0  0  0  0  0  0  0  0  0
   -0.2613    1.6475    1.8658 H   0  0  0  0  0  0  0  0  0  0  0  0
   -0.4789    0.5668   -0.8297 H   0  0  0  0  0  0  0  0  0  0  0  0
   -4.6891    1.7344    2.0616 H   0  0  0  0  0  0  0  0  0  0  0  0
   -6.4655    0.3508    2.8054 H   0  0  0  0  0  0  0  0  0  0  0  0
   -7.5318   -1.8128    3.0699 H   0  0  0  0  0  0  0  0  0  0  0  0
   -6.6295   -3.7566    1.8485 H   0  0  0  0  0  0  0  0  0  0  0  0
   -4.6874   -3.5091    0.3909 H   0  0  0  0  0  0  0  0  0  0  0  0
   -3.6078   -1.3663    0.1136 H   0  0  0  0  0  0  0  0  0  0  0  0
   -4.0006    2.6241   -0.0567 H   0  0  0  0  0  0  0  0  0  0  0  0
   -4.7786    0.8202   -2.6950 H   0  0  0  0  0  0  0  0  0  0  0  0
   -6.9739    0.5211   -3.7641 H   0  0  0  0  0  0  0  0  0  0  0  0
   -9.0703    0.8991   -2.4778 H   0  0  0  0  0  0  0  0  0  0  0  0
   -8.9057    1.5861   -0.0908 H   0  0  0  0  0  0  0  0  0  0  0  0
   -6.7468    1.8917    0.9310 H   0  0  0  0  0  0  0  0  0  0  0  0
    1.6638    2.6653    0.8307 H   0  0  0  0  0  0  0  0  0  0  0  0
    4.1027    2.5276    0.3051 H   0  0  0  0  0  0  0  0  0  0  0  0
  1  2  1  0
  2  3  2  0
  3  4  1  0
  4  5  2  0
  5  6  1  0
  6  7  2  0
  7  8  1  0
  8  9  1  0
  9 10  2  0
  9 11  1  0
 11 12  2  0
 12 13  1  0
 13 14  2  0
 14 15  1  0
 15 16  1  0
 16 17  1  0
 17 18  2  0
 18 19  1  0
 19 20  1  0
 20 21  2  0
 21 22  1  0
 22 23  2  0
 23 24  1  0
 24 25  2  0
 19 26  1  0
 26 27  1  0
 27 28  2  0
 28 29  1  0
 29 30  2  0
 30 31  1  0
 31 32  2  0
 26 33  1  0
 14 34  1  0
 34 35  2  0
  7  2  1  0
 35 11  1  0
 33 17  1  0
 25 20  1  0
 32 27  1  0
  1 36  1  0
  1 37  1  0
  3 38  1  0
  4 39  1  0
  5 40  1  0
  6 41  1  0
  8 42  1  0
 12 43  1  0
 13 44  1  0
 15 45  1  0
 15 46  1  0
 16 47  1  0
 19 48  1  1
 21 49  1  0
 22 50  1  0
 23 51  1  0
 24 52  1  0
 25 53  1  0
 26 54  1  1
 28 55  1  0
 29 56  1  0
 30 57  1  0
 31 58  1  0
 32 59  1  0
 34 60  1  0
 35 61  1  0
M  END
$$$$
