@<TRIPOS>MOLECULE
*****
 61 65 0 0 0
SMALL
GASTEIGER

@<TRIPOS>ATOM
      1 N           7.1469   -0.9615   -2.6001 N.pl3   1  UNL1       -0.3565
      2 C           8.1565   -0.8613   -1.5928 C.ar    1  UNL1        0.0461
      3 C           9.4926   -0.8103   -1.8996 C.ar    1  UNL1       -0.0392
      4 C          10.4611   -0.7138   -0.9224 C.ar    1  UNL1       -0.0599
      5 C           9.9964   -0.6721    0.3811 C.ar    1  UNL1       -0.0599
      6 C           8.6713   -0.7214    0.7118 C.ar    1  UNL1       -0.0387
      7 C           7.7168   -0.8181   -0.2843 C.ar    1  UNL1        0.0545
      8 N           6.3270   -0.8718    0.0229 N.am    1  UNL1       -0.2800
      9 C           5.6131    0.3412    0.1055 C.2     1  UNL1        0.2483
     10 O           6.2274    1.4139   -0.0939 O.2     1  UNL1       -0.2699
     11 C           4.1828    0.3998    0.4148 C.ar    1  UNL1        0.0370
     12 C           3.4229   -0.7271    0.6484 C.ar    1  UNL1       -0.0493
     13 C           2.0580   -0.6481    0.9424 C.ar    1  UNL1       -0.0564
     14 C           1.4092    0.5664    1.0118 C.ar    1  UNL1       -0.0302
     15 C          -0.0230    0.6969    1.3177 C.3     1  UNL1        0.0384
     16 N          -0.8567    0.6703    0.1443 N.pl3   1  UNL1       -0.2953
     17 C          -2.2768    0.7933    0.3403 C.2     1  UNL1        0.2794
     18 N          -2.8521    0.9295    1.4796 N.2     1  UNL1       -0.2247
     19 C          -4.3239    1.0266    1.3093 C.3     1  UNL1        0.1217
     20 C          -4.9363   -0.2933    1.4359 C.ar    1  UNL1       -0.0191
     21 C          -6.0337   -0.4907    2.2444 C.ar    1  UNL1       -0.0564
     22 C          -6.6661   -1.7006    2.4206 C.ar    1  UNL1       -0.0614
     23 C          -6.1672   -2.7876    1.7421 C.ar    1  UNL1       -0.0617
     24 C          -5.0719   -2.6367    0.9230 C.ar    1  UNL1       -0.0614
     25 C          -4.4628   -1.3992    0.7725 C.ar    1  UNL1       -0.0564
     26 C          -4.3492    1.5906   -0.1128 C.3     1  UNL1        0.1543
     27 C          -5.6109    1.3637   -0.8174 C.ar    1  UNL1       -0.0049
     28 C          -5.6887    0.9842   -2.1375 C.ar    1  UNL1       -0.0550
     29 C          -6.9180    0.8211   -2.7208 C.ar    1  UNL1       -0.0614
     30 C          -8.0816    1.0275   -2.0194 C.ar    1  UNL1       -0.0617
     31 C          -8.0288    1.4081   -0.6972 C.ar    1  UNL1       -0.0614
     32 C          -6.7852    1.5683   -0.1253 C.ar    1  UNL1       -0.0550
     33 O          -3.2637    0.7885   -0.6327 O.2     1  UNL1       -0.4552
     34 C           2.1725    1.6912    0.7775 C.ar    1  UNL1       -0.0564
     35 C           3.5189    1.6124    0.4876 C.ar    1  UNL1       -0.0493
     36 H           6.4282   -1.7115   -2.5205 H       1  UNL1        0.1424
     37 H           7.1718   -0.2766   -3.3764 H       1  UNL1        0.1424
     38 H           9.8082   -0.8464   -2.9409 H       1  UNL1        0.0636
     39 H          11.5237   -0.6718   -1.1389 H       1  UNL1        0.0618
     40 H          10.7349   -0.5958    1.1826 H       1  UNL1        0.0618
     41 H           8.3169   -0.6875    1.7497 H       1  UNL1        0.0637
     42 H           5.8903   -1.7944    0.1743 H       1  UNL1        0.1552
     43 H           3.9144   -1.7040    0.5992 H       1  UNL1        0.0625
     44 H           1.4830   -1.5600    1.1227 H       1  UNL1        0.0621
     45 H          -0.3877   -0.1216    1.9965 H       1  UNL1        0.0512
     46 H          -0.2613    1.6475    1.8658 H       1  UNL1        0.0512
     47 H          -0.4789    0.5668   -0.8297 H       1  UNL1        0.1507
     48 H          -4.6891    1.7344    2.0616 H       1  UNL1        0.0636
     49 H          -6.4655    0.3508    2.8054 H       1  UNL1        0.0621
     50 H          -7.5318   -1.8128    3.0699 H       1  UNL1        0.0618
     51 H          -6.6295   -3.7566    1.8485 H       1  UNL1        0.0618
     52 H          -4.6874   -3.5091    0.3909 H       1  UNL1        0.0618
     53 H          -3.6078   -1.3663    0.1136 H       1  UNL1        0.0621
     54 H          -4.0006    2.6241   -0.0567 H       1  UNL1        0.0811
     55 H          -4.7786    0.8202   -2.6950 H       1  UNL1        0.0621
     56 H          -6.9739    0.5211   -3.7641 H       1  UNL1        0.0618
     57 H          -9.0703    0.8991   -2.4778 H       1  UNL1        0.0618
     58 H          -8.9057    1.5861   -0.0908 H       1  UNL1        0.0618
     59 H          -6.7468    1.8917    0.9310 H       1  UNL1        0.0621
     60 H           1.6638    2.6653    0.8307 H       1  UNL1        0.0621
     61 H           4.1027    2.5276    0.3051 H       1  UNL1        0.0625
@<TRIPOS>BOND
     1     1     2    1
     2     2     3   ar
     3     3     4   ar
     4     4     5   ar
     5     5     6   ar
     6     6     7   ar
     7     7     8    1
     8     8     9   am
     9     9    10    2
    10     9    11    1
    11    11    12   ar
    12    12    13   ar
    13    13    14   ar
    14    14    15    1
    15    15    16    1
    16    16    17    1
    17    17    18    2
    18    18    19    1
    19    19    20    1
    20    20    21   ar
    21    21    22   ar
    22    22    23   ar
    23    23    24   ar
    24    24    25   ar
    25    19    26    1
    26    26    27    1
    27    27    28   ar
    28    28    29   ar
    29    29    30   ar
    30    30    31   ar
    31    31    32   ar
    32    26    33    1
    33    14    34   ar
    34    34    35   ar
    35     7     2   ar
    36    35    11   ar
    37    33    17    1
    38    25    20   ar
    39    32    27   ar
    40     1    36    1
    41     1    37    1
    42     3    38    1
    43     4    39    1
    44     5    40    1
    45     6    41    1
    46     8    42    1
    47    12    43    1
    48    13    44    1
    49    15    45    1
    50    15    46    1
    51    16    47    1
    52    19    48    1
    53    21    49    1
    54    22    50    1
    55    23    51    1
    56    24    52    1
    57    25    53    1
    58    26    54    1
    59    28    55    1
    60    29    56    1
    61    30    57    1
    62    31    58    1
    63    32    59    1
    64    34    60    1
    65    35    61    1
