@<TRIPOS>MOLECULE
*****
 47 50 0 0 0
SMALL
GASTEIGER

@<TRIPOS>ATOM
      1 C           1.7477   -1.4374    0.3961 C.3     0  UNK0        0.0397
      2 C           3.2050   -1.3529    0.7660 C.3     0  UNK0       -0.0059
      3 C           3.9599   -0.3068    0.0838 C.ar    0  UNK0       -0.0200
      4 C           5.3013   -0.1046   -0.1519 C.ar    0  UNK0        0.0060
      5 N           5.4239    1.0584   -0.8515 N.ar    0  UNK0       -0.3604
      6 C           4.2247    1.6146   -1.0776 C.ar    0  UNK0        0.0473
      7 C           3.6481    2.7134   -1.6797 C.ar    0  UNK0       -0.0378
      8 C           2.2741    2.9181   -1.6829 C.ar    0  UNK0       -0.0592
      9 C           1.4104    2.0024   -1.0652 C.ar    0  UNK0       -0.0536
     10 C           1.9392    0.8866   -0.4484 C.ar    0  UNK0       -0.0112
     11 C           3.3117    0.7623   -0.4936 C.ar    0  UNK0        0.0103
     12 C           1.1156   -0.1163    0.2175 C.2     0  UNK0       -0.0254
     13 C          -0.0868    0.2981    0.5656 C.2     0  UNK0       -0.0658
     14 C          -0.9894   -0.6942    1.2528 C.3     0  UNK0        0.0669
     15 C          -0.4242   -2.0835    1.1317 C.3     0  UNK0        0.0138
     16 N           0.9762   -2.1626    1.3747 N.3     0  UNK0       -0.2971
     17 C           1.3542   -3.5712    1.2759 C.3     0  UNK0       -0.0121
     18 C          -2.3462   -0.6810    0.6550 C.2     0  UNK0        0.2214
     19 O          -2.8566   -1.7201    0.1227 O.2     0  UNK0       -0.2751
     20 N          -3.1210    0.5177    0.6644 N.am    1  ALA1       -0.3100
     21 CA         -4.4582    0.5065    0.0682 C.3     1  ALA1        0.0434
     22 CB         -5.4168    0.8539    1.1791 C.3     1  ALA1       -0.0445
     23 C          -4.5207    1.5758   -1.0198 C.3     1  ALA1        0.0623
     24 O          -5.7764    1.5761   -1.5912 O.3     1  ALA1       -0.3932
     25 H           1.6936   -1.9323   -0.6165 H       0  UNK0        0.0515
     26 H           3.2843   -1.1566    1.8712 H       0  UNK0        0.0332
     27 H           3.7282   -2.3142    0.6060 H       0  UNK0        0.0332
     28 H           6.1080   -0.7500    0.1610 H       0  UNK0        0.0810
     29 H           6.2910    1.5190   -1.1994 H       0  UNK0        0.1653
     30 H           4.3543    3.4085   -2.1529 H       0  UNK0        0.0638
     31 H           1.8636    3.8022   -2.1726 H       0  UNK0        0.0618
     32 H           0.3502    2.1990   -1.0944 H       0  UNK0        0.0624
     33 H          -0.5138    1.2525    0.4280 H       0  UNK0        0.0583
     34 H          -0.9715   -0.4161    2.3268 H       0  UNK0        0.0450
     35 H          -0.9261   -2.7479    1.8647 H       0  UNK0        0.0437
     36 H          -0.7222   -2.4880    0.1268 H       0  UNK0        0.0437
     37 H           2.2043   -3.8104    1.9748 H       0  UNK0        0.0391
     38 H           1.5409   -3.8740    0.2405 H       0  UNK0        0.0391
     39 H           0.5107   -4.2218    1.6470 H       0  UNK0        0.0391
     40 H          -2.7953    1.4014    1.0692 H       1  ALA1        0.1491
     41 HA         -4.7274   -0.4868   -0.3407 H       1  ALA1        0.0518
     42 HB1        -4.9100    1.3499    2.0524 H       1  ALA1        0.0248
     43 HB2        -6.1712    1.5932    0.8270 H       1  ALA1        0.0248
     44 HB3        -5.9552   -0.0326    1.5792 H       1  ALA1        0.0248
     45 H1         -4.3383    2.5599   -0.5107 H       1  ALA1        0.0575
     46 H2         -3.7246    1.4456   -1.7614 H       1  ALA1        0.0575
     47 H          -6.0692    0.6460   -1.7947 H       1  ALA1        0.2095
@<TRIPOS>BOND
     1     1     2    1
     2     2     3    1
     3     3     4   ar
     4     4     5   ar
     5     5     6   ar
     6     6     7   ar
     7     7     8   ar
     8     8     9   ar
     9     9    10   ar
    10    10    11   ar
    11    10    12    1
    12    12    13    2
    13    13    14    1
    14    14    15    1
    15    15    16    1
    16    16    17    1
    17    14    18    1
    18    18    19    2
    19    18    20   am
    20    20    21    1
    21    21    22    1
    22    21    23    1
    23    23    24    1
    24    12     1    1
    25    16     1    1
    26    11     3   ar
    27    11     6   ar
    28     1    25    1
    29     2    26    1
    30     2    27    1
    31     4    28    1
    32     5    29    1
    33     7    30    1
    34     8    31    1
    35     9    32    1
    36    13    33    1
    37    14    34    1
    38    15    35    1
    39    15    36    1
    40    17    37    1
    41    17    38    1
    42    17    39    1
    43    20    40    1
    44    21    41    1
    45    22    42    1
    46    22    43    1
    47    22    44    1
    48    23    45    1
    49    23    46    1
    50    24    47    1
