@<TRIPOS>MOLECULE
*****
 51 54 0 0 0
SMALL
GASTEIGER

@<TRIPOS>ATOM
      1 C          -0.1917   -2.6264    0.3692 C.3     1  UNL1       -0.0354
      2 C          -0.5612   -1.1953    0.2547 C.ar    1  UNL1        0.0077
      3 C          -1.8394   -0.6264    0.2163 C.ar    1  UNL1        0.0783
      4 N          -1.6779    0.7043    0.1066 N.ar    1  UNL1       -0.2297
      5 N          -0.3784    0.9497    0.0782 N.ar    1  UNL1       -0.1608
      6 C           0.3483   -0.1617    0.1644 C.ar    1  UNL1        0.1522
      7 C           1.8030   -0.2740    0.1642 C.2     1  UNL1        0.2781
      8 O           2.3544   -1.4007    0.2528 O.2     1  UNL1       -0.2671
      9 N           2.5847    0.9157    0.0620 N.am    1  UNL1       -0.2429
     10 N           3.9631    0.8689    0.0570 N.3     1  UNL1       -0.2268
     11 C           4.5000    0.7406   -1.2844 C.3     1  UNL1        0.0167
     12 C           5.9060    0.2080   -1.2312 C.3     1  UNL1       -0.0386
     13 C           6.6753    0.6658   -0.0324 C.3     1  UNL1       -0.0506
     14 C           5.9556    0.3229    1.2545 C.3     1  UNL1       -0.0386
     15 C           4.5487   -0.1505    0.8723 C.3     1  UNL1        0.0167
     16 C          -2.7079    1.6832    0.0332 C.ar    1  UNL1        0.0844
     17 C          -3.5192    1.9458   -1.0526 C.ar    1  UNL1        0.0677
     18 CL         -3.2512    0.9763   -2.4787 Cl      1  UNL1       -0.0813
     19 C          -4.4872    2.9444   -0.9627 C.ar    1  UNL1       -0.0230
     20 C          -4.6772    3.6965    0.1791 C.ar    1  UNL1        0.0425
     21 CL         -5.8971    4.9377    0.2576 Cl      1  UNL1       -0.0835
     22 C          -3.8465    3.3936    1.2222 C.ar    1  UNL1       -0.0413
     23 C          -2.8735    2.4249    1.2029 C.ar    1  UNL1       -0.0334
     24 C          -3.0852   -1.3815    0.2860 C.ar    1  UNL1        0.0008
     25 C          -3.2244   -2.5236   -0.4725 C.ar    1  UNL1       -0.0512
     26 C          -4.3400   -3.3296   -0.5042 C.ar    1  UNL1       -0.0428
     27 C          -5.4239   -2.9653    0.2965 C.ar    1  UNL1        0.0410
     28 CL         -6.9019   -3.8906    0.3578 Cl      1  UNL1       -0.0835
     29 C          -5.3237   -1.8259    1.0723 C.ar    1  UNL1       -0.0428
     30 C          -4.1896   -1.0561    1.0686 C.ar    1  UNL1       -0.0512
     31 H           0.1935   -3.0267   -0.5993 H       1  UNL1        0.0279
     32 H           0.6418   -2.7476    1.0996 H       1  UNL1        0.0279
     33 H          -1.0209   -3.2464    0.7931 H       1  UNL1        0.0279
     34 H           2.1390    1.8690   -0.0131 H       1  UNL1        0.1696
     35 H           3.8873   -0.0124   -1.7922 H       1  UNL1        0.0443
     36 H           4.4896    1.7258   -1.8223 H       1  UNL1        0.0443
     37 H           6.4972    0.5569   -2.1284 H       1  UNL1        0.0278
     38 H           5.9607   -0.9079   -1.2925 H       1  UNL1        0.0278
     39 H           7.6230    0.0626   -0.0238 H       1  UNL1        0.0266
     40 H           6.8826    1.7313   -0.1179 H       1  UNL1        0.0266
     41 H           6.4341   -0.4789    1.8362 H       1  UNL1        0.0278
     42 H           5.8161    1.2717    1.8139 H       1  UNL1        0.0278
     43 H           4.0191   -0.3083    1.8320 H       1  UNL1        0.0443
     44 H           4.6693   -1.0672    0.2786 H       1  UNL1        0.0443
     45 H          -5.1009    3.1213   -1.8282 H       1  UNL1        0.0647
     46 H          -3.9878    3.9863    2.1389 H       1  UNL1        0.0633
     47 H          -2.2818    2.2761    2.0811 H       1  UNL1        0.0640
     48 H          -2.4254   -2.8653   -1.1156 H       1  UNL1        0.0625
     49 H          -4.4089   -4.2181   -1.1137 H       1  UNL1        0.0632
     50 H          -6.1696   -1.5320    1.7040 H       1  UNL1        0.0632
     51 H          -4.0997   -0.1608    1.6727 H       1  UNL1        0.0625
@<TRIPOS>BOND
     1     1     2    1
     2     2     3   ar
     3     3     4   ar
     4     4     5   ar
     5     5     6   ar
     6     6     7    1
     7     7     8    2
     8     7     9   am
     9     9    10    1
    10    10    11    1
    11    11    12    1
    12    12    13    1
    13    13    14    1
    14    14    15    1
    15     4    16    1
    16    16    17   ar
    17    17    18    1
    18    17    19   ar
    19    19    20   ar
    20    20    21    1
    21    20    22   ar
    22    22    23   ar
    23     3    24    1
    24    24    25   ar
    25    25    26   ar
    26    26    27   ar
    27    27    28    1
    28    27    29   ar
    29    29    30   ar
    30     6     2   ar
    31    15    10    1
    32    23    16   ar
    33    30    24   ar
    34     1    31    1
    35     1    32    1
    36     1    33    1
    37     9    34    1
    38    11    35    1
    39    11    36    1
    40    12    37    1
    41    12    38    1
    42    13    39    1
    43    13    40    1
    44    14    41    1
    45    14    42    1
    46    15    43    1
    47    15    44    1
    48    19    45    1
    49    22    46    1
    50    23    47    1
    51    25    48    1
    52    26    49    1
    53    29    50    1
    54    30    51    1
