
     RDKit          3D

 51 54  0  0  0  0  0  0  0  0999 V2000
   -0.1917   -2.6264    0.3692 C   0  0  0  0  0  0  0  0  0  0  0  0
   -0.5612   -1.1953    0.2547 C   0  0  0  0  0  0  0  0  0  0  0  0
   -1.8394   -0.6264    0.2163 C   0  0  0  0  0  0  0  0  0  0  0  0
   -1.6779    0.7043    0.1066 N   0  0  0  0  0  0  0  0  0  0  0  0
   -0.3784    0.9497    0.0782 N   0  0  0  0  0  0  0  0  0  0  0  0
    0.3483   -0.1617    0.1644 C   0  0  0  0  0  0  0  0  0  0  0  0
    1.8030   -0.2740    0.1642 C   0  0  0  0  0  0  0  0  0  0  0  0
    2.3544   -1.4007    0.2528 O   0  0  0  0  0  0  0  0  0  0  0  0
    2.5847    0.9157    0.0620 N   0  0  0  0  0  0  0  0  0  0  0  0
    3.9631    0.8689    0.0570 N   0  0  0  0  0  0  0  0  0  0  0  0
    4.5000    0.7406   -1.2844 C   0  0  0  0  0  0  0  0  0  0  0  0
    5.9060    0.2080   -1.2312 C   0  0  0  0  0  0  0  0  0  0  0  0
    6.6753    0.6658   -0.0324 C   0  0  0  0  0  0  0  0  0  0  0  0
    5.9556    0.3229    1.2545 C   0  0  0  0  0  0  0  0  0  0  0  0
    4.5487   -0.1505    0.8723 C   0  0  0  0  0  0  0  0  0  0  0  0
   -2.7079    1.6832    0.0332 C   0  0  0  0  0  0  0  0  0  0  0  0
   -3.5192    1.9458   -1.0526 C   0  0  0  0  0  0  0  0  0  0  0  0
   -3.2512    0.9763   -2.4787 Cl  0  0  0  0  0  0  0  0  0  0  0  0
   -4.4872    2.9444   -0.9627 C   0  0  0  0  0  0  0  0  0  0  0  0
   -4.6772    3.6965    0.1791 C   0  0  0  0  0  0  0  0  0  0  0  0
   -5.8971    4.9377    0.2576 Cl  0  0  0  0  0  0  0  0  0  0  0  0
   -3.8465    3.3936    1.2222 C   0  0  0  0  0  0  0  0  0  0  0  0
   -2.8735    2.4249    1.2029 C   0  0  0  0  0  0  0  0  0  0  0  0
   -3.0852   -1.3815    0.2860 C   0  0  0  0  0  0  0  0  0  0  0  0
   -3.2244   -2.5236   -0.4725 C   0  0  0  0  0  0  0  0  0  0  0  0
   -4.3400   -3.3296   -0.5042 C   0  0  0  0  0  0  0  0  0  0  0  0
   -5.4239   -2.9653    0.2965 C   0  0  0  0  0  0  0  0  0  0  0  0
   -6.9019   -3.8906    0.3578 Cl  0  0  0  0  0  0  0  0  0  0  0  0
   -5.3237   -1.8259    1.0723 C   0  0  0  0  0  0  0  0  0  0  0  0
   -4.1896   -1.0561    1.0686 C   0  0  0  0  0  0  0  0  0  0  0  0
    0.1935   -3.0267   -0.5993 H   0  0  0  0  0  0  0  0  0  0  0  0
    0.6418   -2.7476    1.0996 H   0  0  0  0  0  0  0  0  0  0  0  0
   -1.0209   -3.2464    0.7931 H   0  0  0  0  0  0  0  0  0  0  0  0
    2.1390    1.8690   -0.0131 H   0  0  0  0  0  0  0  0  0  0  0  0
    3.8873   -0.0124   -1.7922 H   0  0  0  0  0  0  0  0  0  0  0  0
    4.4896    1.7258   -1.8223 H   0  0  0  0  0  0  0  0  0  0  0  0
    6.4972    0.5569   -2.1284 H   0  0  0  0  0  0  0  0  0  0  0  0
    5.9607   -0.9079   -1.2925 H   0  0  0  0  0  0  0  0  0  0  0  0
    7.6230    0.0626   -0.0238 H   0  0  0  0  0  0  0  0  0  0  0  0
    6.8826    1.7313   -0.1179 H   0  0  0  0  0  0  0  0  0  0  0  0
    6.4341   -0.4789    1.8362 H   0  0  0  0  0  0  0  0  0  0  0  0
    5.8161    1.2717    1.8139 H   0  0  0  0  0  0  0  0  0  0  0  0
    4.0191   -0.3083    1.8320 H   0  0  0  0  0  0  0  0  0  0  0  0
    4.6693   -1.0672    0.2786 H   0  0  0  0  0  0  0  0  0  0  0  0
   -5.1009    3.1213   -1.8282 H   0  0  0  0  0  0  0  0  0  0  0  0
   -3.9878    3.9863    2.1389 H   0  0  0  0  0  0  0  0  0  0  0  0
   -2.2818    2.2761    2.0811 H   0  0  0  0  0  0  0  0  0  0  0  0
   -2.4254   -2.8653   -1.1156 H   0  0  0  0  0  0  0  0  0  0  0  0
   -4.4089   -4.2181   -1.1137 H   0  0  0  0  0  0  0  0  0  0  0  0
   -6.1696   -1.5320    1.7040 H   0  0  0  0  0  0  0  0  0  0  0  0
   -4.0997   -0.1608    1.6727 H   0  0  0  0  0  0  0  0  0  0  0  0
  1  2  1  0
  2  3  2  0
  3  4  1  0
  4  5  1  0
  5  6  2  0
  6  7  1  0
  7  8  2  0
  7  9  1  0
  9 10  1  0
 10 11  1  0
 11 12  1  0
 12 13  1  0
 13 14  1  0
 14 15  1  0
  4 16  1  0
 16 17  2  0
 17 18  1  0
 17 19  1  0
 19 20  2  0
 20 21  1  0
 20 22  1  0
 22 23  2  0
  3 24  1  0
 24 25  2  0
 25 26  1  0
 26 27  2  0
 27 28  1  0
 27 29  1  0
 29 30  2  0
  6  2  1  0
 15 10  1  0
 23 16  1  0
 30 24  1  0
  1 31  1  0
  1 32  1  0
  1 33  1  0
  9 34  1  0
 11 35  1  0
 11 36  1  0
 12 37  1  0
 12 38  1  0
 13 39  1  0
 13 40  1  0
 14 41  1  0
 14 42  1  0
 15 43  1  0
 15 44  1  0
 19 45  1  0
 22 46  1  0
 23 47  1  0
 25 48  1  0
 26 49  1  0
 29 50  1  0
 30 51  1  0
M  END
$$$$
