@<TRIPOS>MOLECULE
*****
 52 55 0 0 0
SMALL
GASTEIGER

@<TRIPOS>ATOM
      1 C          -4.3292    1.3042   -2.0866 C.3     1  UNL1       -0.0234
      2 C          -3.7504    0.5323   -0.9127 C.3     1  UNL1        0.1253
      3 O          -3.4818    1.2986    0.2076 O.3     1  UNL1       -0.4810
      4 C          -2.2677    1.4679    0.8505 C.ar    1  UNL1        0.1613
      5 C          -1.0950    0.8770    0.4717 C.ar    1  UNL1       -0.0072
      6 C           0.0916    1.0851    1.1562 C.ar    1  UNL1        0.0068
      7 C           1.3216    0.4355    0.7195 C.ar    1  UNL1        0.0211
      8 C           1.5175   -0.7818    0.1123 C.ar    1  UNL1        0.0571
      9 N           2.8560   -0.9224   -0.0904 N.ar    1  UNL1       -0.1788
     10 N           3.5066    0.1266    0.3503 N.ar    1  UNL1       -0.2677
     11 C           4.9653    0.2837    0.2791 C.3     1  UNL1        0.0550
     12 C           5.4470    0.3717   -1.1298 C.3     1  UNL1       -0.0179
     13 C           6.1467   -0.8331   -1.6464 C.3     1  UNL1       -0.0022
     14 N           7.0360   -1.4448   -0.6747 N.3     1  UNL1       -0.3158
     15 C           6.1589   -1.9307    0.4024 C.3     1  UNL1       -0.0022
     16 C           5.6531   -0.7304    1.1273 C.3     1  UNL1       -0.0179
     17 C           2.5936    0.9769    0.8526 C.ar    1  UNL1        0.0336
     18 C           0.0423    1.9235    2.2500 C.ar    1  UNL1        0.0377
     19 N          -1.1049    2.5112    2.6334 N.ar    1  UNL1       -0.2364
     20 C          -2.2606    2.3042    1.9609 C.ar    1  UNL1        0.1583
     21 N          -3.4693    2.9513    2.3974 N.pl3   1  UNL1       -0.3402
     22 C          -4.7413   -0.5125   -0.5593 C.ar    1  UNL1        0.0318
     23 C          -4.6235   -1.7886   -1.0629 C.ar    1  UNL1        0.0492
     24 CL         -3.3079   -2.2503   -2.1332 Cl      1  UNL1       -0.0831
     25 C          -5.5392   -2.7754   -0.7501 C.ar    1  UNL1       -0.0402
     26 C          -6.5856   -2.4686    0.0812 C.ar    1  UNL1       -0.0236
     27 C          -6.7527   -1.2144    0.6119 C.ar    1  UNL1        0.1421
     28 F          -7.7996   -0.9259    1.4372 F       1  UNL1       -0.2039
     29 C          -5.8057   -0.2432    0.2720 C.ar    1  UNL1        0.0841
     30 CL         -6.0699    1.3428    0.9691 Cl      1  UNL1       -0.0801
     31 H          -3.5582    1.4956   -2.8634 H       1  UNL1        0.0269
     32 H          -4.7328    2.2798   -1.7882 H       1  UNL1        0.0269
     33 H          -5.1292    0.7215   -2.5892 H       1  UNL1        0.0269
     34 H          -2.8493    0.0121   -1.3214 H       1  UNL1        0.0782
     35 H          -1.0830    0.2240   -0.3893 H       1  UNL1        0.0662
     36 H           0.7229   -1.4681   -0.1388 H       1  UNL1        0.0854
     37 H           5.1779    1.2913    0.7477 H       1  UNL1        0.0545
     38 H           4.5569    0.5584   -1.7899 H       1  UNL1        0.0298
     39 H           6.1112    1.2613   -1.3117 H       1  UNL1        0.0298
     40 H           5.4202   -1.6178   -1.9582 H       1  UNL1        0.0425
     41 H           6.8004   -0.5263   -2.5069 H       1  UNL1        0.0425
     42 H           7.5431   -2.2119   -1.1327 H       1  UNL1        0.1219
     43 H           5.3124   -2.5076   -0.0123 H       1  UNL1        0.0425
     44 H           6.7582   -2.5328    1.1129 H       1  UNL1        0.0425
     45 H           6.4826   -0.2791    1.7326 H       1  UNL1        0.0298
     46 H           4.8996   -1.0919    1.8841 H       1  UNL1        0.0298
     47 H           2.8617    1.9273    1.2842 H       1  UNL1        0.0832
     48 H           0.9590    2.1018    2.8023 H       1  UNL1        0.0836
     49 H          -4.0331    2.5592    3.1882 H       1  UNL1        0.1438
     50 H          -3.7779    3.8219    1.9113 H       1  UNL1        0.1438
     51 H          -5.4689   -3.7693   -1.1274 H       1  UNL1        0.0633
     52 H          -7.3255   -3.2198    0.3493 H       1  UNL1        0.0647
@<TRIPOS>BOND
     1     1     2    1
     2     2     3    1
     3     3     4    1
     4     4     5   ar
     5     5     6   ar
     6     6     7    1
     7     7     8   ar
     8     8     9   ar
     9     9    10   ar
    10    10    11    1
    11    11    12    1
    12    12    13    1
    13    13    14    1
    14    14    15    1
    15    15    16    1
    16    10    17   ar
    17     6    18   ar
    18    18    19   ar
    19    19    20   ar
    20    20    21    1
    21     2    22    1
    22    22    23   ar
    23    23    24    1
    24    23    25   ar
    25    25    26   ar
    26    26    27   ar
    27    27    28    1
    28    27    29   ar
    29    29    30    1
    30    20     4   ar
    31    29    22   ar
    32    17     7   ar
    33    16    11    1
    34     1    31    1
    35     1    32    1
    36     1    33    1
    37     2    34    1
    38     5    35    1
    39     8    36    1
    40    11    37    1
    41    12    38    1
    42    12    39    1
    43    13    40    1
    44    13    41    1
    45    14    42    1
    46    15    43    1
    47    15    44    1
    48    16    45    1
    49    16    46    1
    50    17    47    1
    51    18    48    1
    52    21    49    1
    53    21    50    1
    54    25    51    1
    55    26    52    1
