
     RDKit          3D

 50 51  0  0  0  0  0  0  0  0999 V2000
   -3.8523   -3.8065   -1.4528 C   0  0  0  0  0  0  0  0  0  0  0  0
   -3.9556   -2.4355   -1.2945 O   0  0  0  0  0  0  0  0  0  0  0  0
   -3.1063   -1.5700   -0.6375 C   0  0  0  0  0  0  0  0  0  0  0  0
   -1.9456   -1.9549    0.0206 C   0  0  0  0  0  0  0  0  0  0  0  0
   -1.1047   -1.0844    0.6751 C   0  0  0  0  0  0  0  0  0  0  0  0
    0.1088   -1.5930    1.3180 C   0  0  0  0  0  0  0  0  0  0  0  0
    0.4451   -3.0070    1.0046 C   0  0  0  0  0  0  0  0  0  0  0  0
   -0.1309   -1.4708    2.8355 C   0  0  0  0  0  0  0  0  0  0  0  0
    1.1977   -0.6305    0.9522 C   0  0  0  0  0  0  0  0  0  0  0  0
    2.0607    0.1051    0.6655 C   0  0  0  0  0  0  0  0  0  0  0  0
    3.1140    1.0292    0.3136 C   0  0  0  0  0  0  0  0  0  0  0  0
    3.8296    0.8202   -0.8354 C   0  0  0  0  0  0  0  0  0  0  0  0
    3.4837   -0.3480   -1.6848 C   0  0  0  0  0  0  0  0  0  0  0  0
    4.8148    1.6783   -1.1485 N   0  0  0  0  0  0  0  0  0  0  0  0
    5.1192    2.7346   -0.3682 C   0  0  0  0  0  0  0  0  0  0  0  0
    6.1583    3.6615   -0.6586 N   0  0  0  0  0  0  0  0  0  0  0  0
    4.4013    2.9025    0.7380 N   0  0  0  0  0  0  0  0  0  0  0  0
    3.4020    2.1207    1.1524 C   0  0  0  0  0  0  0  0  0  0  0  0
    2.6649    2.3291    2.3328 N   0  0  0  0  0  0  0  0  0  0  0  0
   -1.4573    0.2483    0.6620 C   0  0  0  0  0  0  0  0  0  0  0  0
   -2.5924    0.6947    0.0273 C   0  0  0  0  0  0  0  0  0  0  0  0
   -2.9056    2.0485    0.0400 O   0  0  0  0  0  0  0  0  0  0  0  0
   -2.1646    3.0566    0.6592 C   0  0  0  0  0  0  0  0  0  0  0  0
   -3.4172   -0.2058   -0.6212 C   0  0  0  0  0  0  0  0  0  0  0  0
   -4.5646    0.2357   -1.2618 O   0  0  0  0  0  0  0  0  0  0  0  0
   -4.6935    0.5372   -2.6119 C   0  0  0  0  0  0  0  0  0  0  0  0
   -2.8287   -4.1511   -1.2516 H   0  0  0  0  0  0  0  0  0  0  0  0
   -4.5411   -4.2674   -0.6809 H   0  0  0  0  0  0  0  0  0  0  0  0
   -4.1982   -4.1564   -2.4693 H   0  0  0  0  0  0  0  0  0  0  0  0
   -1.7195   -3.0206   -0.0020 H   0  0  0  0  0  0  0  0  0  0  0  0
    1.5024   -3.2678    1.2184 H   0  0  0  0  0  0  0  0  0  0  0  0
    0.2944   -3.2662   -0.0640 H   0  0  0  0  0  0  0  0  0  0  0  0
   -0.1875   -3.6699    1.6196 H   0  0  0  0  0  0  0  0  0  0  0  0
    0.8810   -1.4197    3.2793 H   0  0  0  0  0  0  0  0  0  0  0  0
   -0.6040   -0.4783    2.9795 H   0  0  0  0  0  0  0  0  0  0  0  0
   -0.7300   -2.3027    3.1976 H   0  0  0  0  0  0  0  0  0  0  0  0
    3.0024   -1.1573   -1.1421 H   0  0  0  0  0  0  0  0  0  0  0  0
    2.8311   -0.0183   -2.5198 H   0  0  0  0  0  0  0  0  0  0  0  0
    4.4207   -0.6970   -2.1450 H   0  0  0  0  0  0  0  0  0  0  0  0
    7.0857    3.3331   -1.0028 H   0  0  0  0  0  0  0  0  0  0  0  0
    6.0387    4.6913   -0.5401 H   0  0  0  0  0  0  0  0  0  0  0  0
    1.8365    1.7276    2.5215 H   0  0  0  0  0  0  0  0  0  0  0  0
    2.9065    3.0584    3.0308 H   0  0  0  0  0  0  0  0  0  0  0  0
   -0.7910    0.9146    1.1786 H   0  0  0  0  0  0  0  0  0  0  0  0
   -2.2970    4.0324    0.1087 H   0  0  0  0  0  0  0  0  0  0  0  0
   -1.0734    2.8689    0.6877 H   0  0  0  0  0  0  0  0  0  0  0  0
   -2.4734    3.2209    1.7108 H   0  0  0  0  0  0  0  0  0  0  0  0
   -3.9677    1.3148   -2.9231 H   0  0  0  0  0  0  0  0  0  0  0  0
   -5.7060    0.9547   -2.7831 H   0  0  0  0  0  0  0  0  0  0  0  0
   -4.5915   -0.3397   -3.2811 H   0  0  0  0  0  0  0  0  0  0  0  0
  1  2  1  0
  2  3  1  0
  3  4  2  0
  4  5  1  0
  5  6  1  0
  6  7  1  0
  6  8  1  0
  6  9  1  0
  9 10  3  0
 10 11  1  0
 11 12  2  0
 12 13  1  0
 12 14  1  0
 14 15  2  0
 15 16  1  0
 15 17  1  0
 17 18  2  0
 18 19  1  0
  5 20  2  0
 20 21  1  0
 21 22  1  0
 22 23  1  0
 21 24  2  0
 24 25  1  0
 25 26  1  0
 24  3  1  0
 18 11  1  0
  1 27  1  0
  1 28  1  0
  1 29  1  0
  4 30  1  0
  7 31  1  0
  7 32  1  0
  7 33  1  0
  8 34  1  0
  8 35  1  0
  8 36  1  0
 13 37  1  0
 13 38  1  0
 13 39  1  0
 16 40  1  0
 16 41  1  0
 19 42  1  0
 19 43  1  0
 20 44  1  0
 23 45  1  0
 23 46  1  0
 23 47  1  0
 26 48  1  0
 26 49  1  0
 26 50  1  0
M  END
$$$$
