@<TRIPOS>MOLECULE
*****
 50 51 0 0 0
SMALL
GASTEIGER

@<TRIPOS>ATOM
      1 C          -3.8523   -3.8065   -1.4528 C.3     1  UNL1        0.0790
      2 O          -3.9556   -2.4355   -1.2945 O.3     1  UNL1       -0.4913
      3 C          -3.1063   -1.5700   -0.6375 C.ar    1  UNL1        0.1655
      4 C          -1.9456   -1.9549    0.0206 C.ar    1  UNL1       -0.0115
      5 C          -1.1047   -1.0844    0.6751 C.ar    1  UNL1       -0.0228
      6 C           0.1088   -1.5930    1.3180 C.3     1  UNL1        0.0517
      7 C           0.4451   -3.0070    1.0046 C.3     1  UNL1       -0.0448
      8 C          -0.1309   -1.4708    2.8355 C.3     1  UNL1       -0.0448
      9 C           1.1977   -0.6305    0.9522 C.1     1  UNL1       -0.0859
     10 C           2.0607    0.1051    0.6655 C.1     1  UNL1       -0.0602
     11 C           3.1140    1.0292    0.3136 C.ar    1  UNL1        0.0855
     12 C           3.8296    0.8202   -0.8354 C.ar    1  UNL1        0.0605
     13 C           3.4837   -0.3480   -1.6848 C.3     1  UNL1       -0.0209
     14 N           4.8148    1.6783   -1.1485 N.ar    1  UNL1       -0.2186
     15 C           5.1192    2.7346   -0.3682 C.ar    1  UNL1        0.2145
     16 N           6.1583    3.6615   -0.6586 N.pl3   1  UNL1       -0.3274
     17 N           4.4013    2.9025    0.7380 N.ar    1  UNL1       -0.1989
     18 C           3.4020    2.1207    1.1524 C.ar    1  UNL1        0.1370
     19 N           2.6649    2.3291    2.3328 N.pl3   1  UNL1       -0.3420
     20 C          -1.4573    0.2483    0.6620 C.ar    1  UNL1       -0.0115
     21 C          -2.5924    0.6947    0.0273 C.ar    1  UNL1        0.1655
     22 O          -2.9056    2.0485    0.0400 O.3     1  UNL1       -0.4913
     23 C          -2.1646    3.0566    0.6592 C.3     1  UNL1        0.0790
     24 C          -3.4172   -0.2058   -0.6212 C.ar    1  UNL1        0.2035
     25 O          -4.5646    0.2357   -1.2618 O.3     1  UNL1       -0.4885
     26 C          -4.6935    0.5372   -2.6119 C.3     1  UNL1        0.0791
     27 H          -2.8287   -4.1511   -1.2516 H       1  UNL1        0.0660
     28 H          -4.5411   -4.2674   -0.6809 H       1  UNL1        0.0660
     29 H          -4.1982   -4.1564   -2.4693 H       1  UNL1        0.0660
     30 H          -1.7195   -3.0206   -0.0020 H       1  UNL1        0.0658
     31 H           1.5024   -3.2678    1.2184 H       1  UNL1        0.0247
     32 H           0.2944   -3.2662   -0.0640 H       1  UNL1        0.0247
     33 H          -0.1875   -3.6699    1.6196 H       1  UNL1        0.0247
     34 H           0.8810   -1.4197    3.2793 H       1  UNL1        0.0247
     35 H          -0.6040   -0.4783    2.9795 H       1  UNL1        0.0247
     36 H          -0.7300   -2.3027    3.1976 H       1  UNL1        0.0247
     37 H           3.0024   -1.1573   -1.1421 H       1  UNL1        0.0293
     38 H           2.8311   -0.0183   -2.5198 H       1  UNL1        0.0293
     39 H           4.4207   -0.6970   -2.1450 H       1  UNL1        0.0293
     40 H           7.0857    3.3331   -1.0028 H       1  UNL1        0.1452
     41 H           6.0387    4.6913   -0.5401 H       1  UNL1        0.1452
     42 H           1.8365    1.7276    2.5215 H       1  UNL1        0.1437
     43 H           2.9065    3.0584    3.0308 H       1  UNL1        0.1437
     44 H          -0.7910    0.9146    1.1786 H       1  UNL1        0.0658
     45 H          -2.2970    4.0324    0.1087 H       1  UNL1        0.0660
     46 H          -1.0734    2.8689    0.6877 H       1  UNL1        0.0660
     47 H          -2.4734    3.2209    1.7108 H       1  UNL1        0.0660
     48 H          -3.9677    1.3148   -2.9231 H       1  UNL1        0.0660
     49 H          -5.7060    0.9547   -2.7831 H       1  UNL1        0.0660
     50 H          -4.5915   -0.3397   -3.2811 H       1  UNL1        0.0660
@<TRIPOS>BOND
     1     1     2    1
     2     2     3    1
     3     3     4   ar
     4     4     5   ar
     5     5     6    1
     6     6     7    1
     7     6     8    1
     8     6     9    1
     9     9    10    3
    10    10    11    1
    11    11    12   ar
    12    12    13    1
    13    12    14   ar
    14    14    15   ar
    15    15    16    1
    16    15    17   ar
    17    17    18   ar
    18    18    19    1
    19     5    20   ar
    20    20    21   ar
    21    21    22    1
    22    22    23    1
    23    21    24   ar
    24    24    25    1
    25    25    26    1
    26    24     3   ar
    27    18    11   ar
    28     1    27    1
    29     1    28    1
    30     1    29    1
    31     4    30    1
    32     7    31    1
    33     7    32    1
    34     7    33    1
    35     8    34    1
    36     8    35    1
    37     8    36    1
    38    13    37    1
    39    13    38    1
    40    13    39    1
    41    16    40    1
    42    16    41    1
    43    19    42    1
    44    19    43    1
    45    20    44    1
    46    23    45    1
    47    23    46    1
    48    23    47    1
    49    26    48    1
    50    26    49    1
    51    26    50    1
