@<TRIPOS>MOLECULE
*****
 48 50 0 0 0
SMALL
GASTEIGER

@<TRIPOS>ATOM
      1 N           7.8419   -1.4176    0.0491 N.pl3   1  UNL1       -0.1313
      2 C           7.3150   -0.2943    0.1729 C.2     1  UNL1        0.3751
      3 N           8.1392    0.8809    0.3121 N.pl3   1  UNL1       -0.2906
      4 N           5.9047   -0.0417    0.1915 N.am    1  UNL1       -0.1709
      5 C           4.9761   -1.0770    0.0674 C.2     1  UNL1        0.3066
      6 O           5.4027   -2.2771   -0.0658 O.2     1  UNL1       -0.2516
      7 C           3.5414   -0.8457    0.0835 C.ar    1  UNL1        0.0536
      8 C           2.7026   -1.9085   -0.0436 C.ar    1  UNL1       -0.0479
      9 C           1.3486   -1.7011   -0.0291 C.ar    1  UNL1       -0.0570
     10 C           0.7316   -0.4626    0.1082 C.ar    1  UNL1       -0.0325
     11 C          -0.7080   -0.3924    0.1282 C.3     1  UNL1       -0.0125
     12 C          -1.4770   -0.0178   -1.1023 C.3     1  UNL1       -0.0302
     13 C          -2.9465   -0.4817   -0.8387 C.3     1  UNL1        0.0152
     14 N          -3.3948    0.3931    0.2259 N.am    1  UNL1       -0.3012
     15 C          -4.7624    0.5222    0.5113 C.2     1  UNL1        0.2187
     16 O          -5.1402    1.2937    1.4369 O.2     1  UNL1       -0.2753
     17 C          -5.7579   -0.2419   -0.2677 C.3     1  UNL1        0.0358
     18 C          -7.0759   -0.5771    0.3328 C.3     1  UNL1       -0.0412
     19 C          -6.9752    0.5285   -0.6518 C.3     1  UNL1       -0.0412
     20 C          -2.3944    1.1416    1.0110 C.3     1  UNL1        0.0152
     21 C          -1.3583    0.0834    1.4061 C.3     1  UNL1       -0.0302
     22 C           1.6044    0.6183    0.2365 C.ar    1  UNL1        0.0590
     23 C           1.1394    1.9791    0.3636 C.3     1  UNL1        0.4177
     24 F           0.3767    2.4540   -0.7106 F       1  UNL1       -0.1659
     25 F           2.2629    2.8435    0.1922 F       1  UNL1       -0.1659
     26 F           0.7027    2.4128    1.5693 F       1  UNL1       -0.1659
     27 C           3.0003    0.3842    0.2198 C.ar    1  UNL1       -0.0363
     28 H           7.5499   -2.3540   -0.0593 H       1  UNL1        0.3060
     29 H           8.5176    1.3343   -0.5202 H       1  UNL1        0.2545
     30 H           8.3292    1.2394    1.2559 H       1  UNL1        0.2545
     31 H           5.5716    0.9628    0.3032 H       1  UNL1        0.2545
     32 H           3.1217   -2.9129   -0.1555 H       1  UNL1        0.0626
     33 H           0.7572   -2.6322   -0.1408 H       1  UNL1        0.0621
     34 H          -1.0338   -1.5119    0.1545 H       1  UNL1        0.0350
     35 H          -1.6684    1.0270   -1.2925 H       1  UNL1        0.0286
     36 H          -1.1656   -0.6231   -1.9493 H       1  UNL1        0.0286
     37 H          -2.9629   -1.5388   -0.5907 H       1  UNL1        0.0465
     38 H          -3.5290   -0.3168   -1.7692 H       1  UNL1        0.0465
     39 H          -5.3192   -0.8970   -1.0517 H       1  UNL1        0.0394
     40 H          -7.5216   -1.5232   -0.0096 H       1  UNL1        0.0273
     41 H          -7.2208   -0.3567    1.4115 H       1  UNL1        0.0273
     42 H          -7.1472    1.5478   -0.2135 H       1  UNL1        0.0273
     43 H          -7.3360    0.4065   -1.6724 H       1  UNL1        0.0273
     44 H          -1.9784    1.9883    0.4784 H       1  UNL1        0.0465
     45 H          -2.8968    1.4793    1.9408 H       1  UNL1        0.0465
     46 H          -2.0203   -0.7199    1.8824 H       1  UNL1        0.0286
     47 H          -0.7062    0.3591    2.2154 H       1  UNL1        0.0286
     48 H           3.6594    1.2432    0.3238 H       1  UNL1        0.0631
@<TRIPOS>BOND
     1     1     2    2
     2     2     3    1
     3     2     4    1
     4     4     5   am
     5     5     6    2
     6     5     7    1
     7     7     8   ar
     8     8     9   ar
     9     9    10   ar
    10    10    11    1
    11    11    12    1
    12    12    13    1
    13    13    14    1
    14    14    15   am
    15    15    16    2
    16    15    17    1
    17    17    18    1
    18    18    19    1
    19    14    20    1
    20    20    21    1
    21    10    22   ar
    22    22    23    1
    23    23    24    1
    24    23    25    1
    25    23    26    1
    26    22    27   ar
    27    27     7   ar
    28    21    11    1
    29    19    17    1
    30     1    28    1
    31     3    29    1
    32     3    30    1
    33     4    31    1
    34     8    32    1
    35     9    33    1
    36    11    34    1
    37    12    35    1
    38    12    36    1
    39    13    37    1
    40    13    38    1
    41    17    39    1
    42    18    40    1
    43    18    41    1
    44    19    42    1
    45    19    43    1
    46    20    44    1
    47    20    45    1
    48    21    46    1
    49    21    47    1
    50    27    48    1
