
     RDKit          3D

 48 50  0  0  0  0  0  0  0  0999 V2000
    7.8419   -1.4176    0.0491 N   0  0  0  0  0  0  0  0  0  0  0  0
    7.3150   -0.2943    0.1729 C   0  0  0  0  0  0  0  0  0  0  0  0
    8.1392    0.8809    0.3121 N   0  0  0  0  0  0  0  0  0  0  0  0
    5.9047   -0.0417    0.1915 N   0  0  0  0  0  0  0  0  0  0  0  0
    4.9761   -1.0770    0.0674 C   0  0  0  0  0  0  0  0  0  0  0  0
    5.4027   -2.2771   -0.0658 O   0  0  0  0  0  0  0  0  0  0  0  0
    3.5414   -0.8457    0.0835 C   0  0  0  0  0  0  0  0  0  0  0  0
    2.7026   -1.9085   -0.0436 C   0  0  0  0  0  0  0  0  0  0  0  0
    1.3486   -1.7011   -0.0291 C   0  0  0  0  0  0  0  0  0  0  0  0
    0.7316   -0.4626    0.1082 C   0  0  0  0  0  0  0  0  0  0  0  0
   -0.7080   -0.3924    0.1282 C   0  0  0  0  0  0  0  0  0  0  0  0
   -1.4770   -0.0178   -1.1023 C   0  0  0  0  0  0  0  0  0  0  0  0
   -2.9465   -0.4817   -0.8387 C   0  0  0  0  0  0  0  0  0  0  0  0
   -3.3948    0.3931    0.2259 N   0  0  0  0  0  0  0  0  0  0  0  0
   -4.7624    0.5222    0.5113 C   0  0  0  0  0  0  0  0  0  0  0  0
   -5.1402    1.2937    1.4369 O   0  0  0  0  0  0  0  0  0  0  0  0
   -5.7579   -0.2419   -0.2677 C   0  0  0  0  0  0  0  0  0  0  0  0
   -7.0759   -0.5771    0.3328 C   0  0  0  0  0  0  0  0  0  0  0  0
   -6.9752    0.5285   -0.6518 C   0  0  0  0  0  0  0  0  0  0  0  0
   -2.3944    1.1416    1.0110 C   0  0  0  0  0  0  0  0  0  0  0  0
   -1.3583    0.0834    1.4061 C   0  0  0  0  0  0  0  0  0  0  0  0
    1.6044    0.6183    0.2365 C   0  0  0  0  0  0  0  0  0  0  0  0
    1.1394    1.9791    0.3636 C   0  0  0  0  0  0  0  0  0  0  0  0
    0.3767    2.4540   -0.7106 F   0  0  0  0  0  0  0  0  0  0  0  0
    2.2629    2.8435    0.1922 F   0  0  0  0  0  0  0  0  0  0  0  0
    0.7027    2.4128    1.5693 F   0  0  0  0  0  0  0  0  0  0  0  0
    3.0003    0.3842    0.2198 C   0  0  0  0  0  0  0  0  0  0  0  0
    7.5499   -2.3540   -0.0593 H   0  0  0  0  0  0  0  0  0  0  0  0
    8.5176    1.3343   -0.5202 H   0  0  0  0  0  0  0  0  0  0  0  0
    8.3292    1.2394    1.2559 H   0  0  0  0  0  0  0  0  0  0  0  0
    5.5716    0.9628    0.3032 H   0  0  0  0  0  0  0  0  0  0  0  0
    3.1217   -2.9129   -0.1555 H   0  0  0  0  0  0  0  0  0  0  0  0
    0.7572   -2.6322   -0.1408 H   0  0  0  0  0  0  0  0  0  0  0  0
   -1.0338   -1.5119    0.1545 H   0  0  0  0  0  0  0  0  0  0  0  0
   -1.6684    1.0270   -1.2925 H   0  0  0  0  0  0  0  0  0  0  0  0
   -1.1656   -0.6231   -1.9493 H   0  0  0  0  0  0  0  0  0  0  0  0
   -2.9629   -1.5388   -0.5907 H   0  0  0  0  0  0  0  0  0  0  0  0
   -3.5290   -0.3168   -1.7692 H   0  0  0  0  0  0  0  0  0  0  0  0
   -5.3192   -0.8970   -1.0517 H   0  0  0  0  0  0  0  0  0  0  0  0
   -7.5216   -1.5232   -0.0096 H   0  0  0  0  0  0  0  0  0  0  0  0
   -7.2208   -0.3567    1.4115 H   0  0  0  0  0  0  0  0  0  0  0  0
   -7.1472    1.5478   -0.2135 H   0  0  0  0  0  0  0  0  0  0  0  0
   -7.3360    0.4065   -1.6724 H   0  0  0  0  0  0  0  0  0  0  0  0
   -1.9784    1.9883    0.4784 H   0  0  0  0  0  0  0  0  0  0  0  0
   -2.8968    1.4793    1.9408 H   0  0  0  0  0  0  0  0  0  0  0  0
   -2.0203   -0.7199    1.8824 H   0  0  0  0  0  0  0  0  0  0  0  0
   -0.7062    0.3591    2.2154 H   0  0  0  0  0  0  0  0  0  0  0  0
    3.6594    1.2432    0.3238 H   0  0  0  0  0  0  0  0  0  0  0  0
  1  2  2  3
  2  3  1  0
  2  4  1  0
  4  5  1  0
  5  6  2  0
  5  7  1  0
  7  8  2  0
  8  9  1  0
  9 10  2  0
 10 11  1  0
 11 12  1  0
 12 13  1  0
 13 14  1  0
 14 15  1  0
 15 16  2  0
 15 17  1  0
 17 18  1  0
 18 19  1  0
 14 20  1  0
 20 21  1  0
 10 22  1  0
 22 23  1  0
 23 24  1  0
 23 25  1  0
 23 26  1  0
 22 27  2  0
 27  7  1  0
 21 11  1  0
 19 17  1  0
  1 28  1  0
  3 29  1  0
  3 30  1  0
  4 31  1  0
  8 32  1  0
  9 33  1  0
 11 34  1  0
 12 35  1  0
 12 36  1  0
 13 37  1  0
 13 38  1  0
 17 39  1  0
 18 40  1  0
 18 41  1  0
 19 42  1  0
 19 43  1  0
 20 44  1  0
 20 45  1  0
 21 46  1  0
 21 47  1  0
 27 48  1  0
M  END
$$$$
