@<TRIPOS>MOLECULE
*****
 30 32 0 0 0
SMALL
GASTEIGER

@<TRIPOS>ATOM
      1 N           0.9756    3.1577    0.3102 N.am    1  UNL1       -0.3126
      2 C           0.0271    2.1406    0.2014 C.2     1  UNL1        0.3084
      3 O          -0.8000    3.0658    0.3991 O.2     1  UNL1       -0.2521
      4 N          -0.0340    0.7417   -0.0178 N.am    1  UNL1       -0.2235
      5 C          -1.3589    0.1794   -0.0373 C.ar    1  UNL1        0.0499
      6 C          -2.2695    1.0271   -0.6197 C.ar    1  UNL1       -0.0393
      7 C          -3.5780    0.6184   -0.6914 C.ar    1  UNL1       -0.0600
      8 C          -3.9142   -0.6300   -0.1730 C.ar    1  UNL1       -0.0611
      9 C          -2.9902   -1.4885    0.4161 C.ar    1  UNL1       -0.0528
     10 C          -1.6679   -1.0810    0.4915 C.ar    1  UNL1       -0.0032
     11 C          -0.8195   -2.1086    1.1341 C.2     1  UNL1       -0.0522
     12 C           0.5162   -2.1838    1.0677 C.2     1  UNL1       -0.0522
     13 C           1.3979   -1.2500    0.3367 C.ar    1  UNL1       -0.0032
     14 C           2.6534   -1.8006    0.1290 C.ar    1  UNL1       -0.0528
     15 C           3.6036   -1.0523   -0.5500 C.ar    1  UNL1       -0.0611
     16 C           3.3627    0.2342   -1.0395 C.ar    1  UNL1       -0.0600
     17 C           2.1186    0.7828   -0.8354 C.ar    1  UNL1       -0.0393
     18 C           1.1922    0.0409   -0.1669 C.ar    1  UNL1        0.0499
     19 H           1.5366    3.4559    1.1356 H       1  UNL1        0.1465
     20 H           1.4476    3.8973   -0.2511 H       1  UNL1        0.1465
     21 H          -1.9259    1.9554   -1.0040 H       1  UNL1        0.0636
     22 H          -4.3105    1.2615   -1.1409 H       1  UNL1        0.0618
     23 H          -4.9488   -0.9235   -0.2434 H       1  UNL1        0.0618
     24 H          -3.2782   -2.4526    0.8105 H       1  UNL1        0.0624
     25 H          -1.3311   -2.8653    1.7084 H       1  UNL1        0.0624
     26 H           0.9941   -2.9960    1.5927 H       1  UNL1        0.0624
     27 H           2.8705   -2.7940    0.4954 H       1  UNL1        0.0624
     28 H           4.5853   -1.4892   -0.7092 H       1  UNL1        0.0618
     29 H           4.1182    0.7988   -1.5658 H       1  UNL1        0.0618
     30 H           1.8271    1.7578   -1.1826 H       1  UNL1        0.0636
@<TRIPOS>BOND
     1     1     2   am
     2     2     3    2
     3     2     4   am
     4     4     5    1
     5     5     6   ar
     6     6     7   ar
     7     7     8   ar
     8     8     9   ar
     9     9    10   ar
    10    10    11    1
    11    11    12    2
    12    12    13    1
    13    13    14   ar
    14    14    15   ar
    15    15    16   ar
    16    16    17   ar
    17    17    18   ar
    18    18     4    1
    19    10     5   ar
    20    18    13   ar
    21     1    19    1
    22     1    20    1
    23     6    21    1
    24     7    22    1
    25     8    23    1
    26     9    24    1
    27    11    25    1
    28    12    26    1
    29    14    27    1
    30    15    28    1
    31    16    29    1
    32    17    30    1
