
     RDKit          3D

 54 58  0  0  0  0  0  0  0  0999 V2000
   -8.2779    1.2733   -0.5138 C   0  0  0  0  0  0  0  0  0  0  0  0
   -7.0359    1.5370    0.2797 C   0  0  0  0  0  0  0  0  0  0  0  0
   -7.3445    1.4601    1.7797 C   0  0  0  0  0  0  0  0  0  0  0  0
   -5.9134    0.6222   -0.0584 C   0  0  0  0  0  0  0  0  0  0  0  0
   -4.6669    0.9547   -0.4583 N   0  0  0  0  0  0  0  0  0  0  0  0
   -3.9423   -0.1609   -0.6678 C   0  0  0  0  0  0  0  0  0  0  0  0
   -2.5523   -0.1841   -1.1027 C   0  0  0  0  0  0  0  0  0  0  0  0
   -1.9369    0.6809   -1.9580 N   0  0  0  0  0  0  0  0  0  0  0  0
   -0.6648    0.3395   -2.1109 N   0  0  0  0  0  0  0  0  0  0  0  0
   -0.4621   -0.7292   -1.3653 C   0  0  0  0  0  0  0  0  0  0  0  0
   -1.6028   -1.0581   -0.7470 N   0  0  0  0  0  0  0  0  0  0  0  0
   -1.6431   -2.2191    0.1457 C   0  0  0  0  0  0  0  0  0  0  0  0
   -0.3992   -2.3508    0.9823 C   0  0  0  0  0  0  0  0  0  0  0  0
    0.7707   -1.6930    0.3513 N   0  0  0  0  0  0  0  0  0  0  0  0
    1.7725   -1.2230    1.1777 C   0  0  0  0  0  0  0  0  0  0  0  0
    1.5764   -1.4106    2.4495 O   0  0  0  0  0  0  0  0  0  0  0  0
    3.0114   -0.5494    0.8101 C   0  0  0  0  0  0  0  0  0  0  0  0
    4.1840   -1.3058    0.9569 C   0  0  0  0  0  0  0  0  0  0  0  0
    5.4076   -0.7527    0.6638 C   0  0  0  0  0  0  0  0  0  0  0  0
    5.4842    0.5361    0.2293 C   0  0  0  0  0  0  0  0  0  0  0  0
    6.7622    1.1457   -0.0880 C   0  0  0  0  0  0  0  0  0  0  0  0
    7.1053    2.3646   -0.5155 C   0  0  0  0  0  0  0  0  0  0  0  0
    8.3852    2.6867   -0.7366 C   0  0  0  0  0  0  0  0  0  0  0  0
    9.3261    1.6819   -0.4958 C   0  0  0  0  0  0  0  0  0  0  0  0
    8.3502    0.3192    0.0360 S   0  0  0  0  0  0  0  0  0  0  0  0
    4.3507    1.3022    0.0760 C   0  0  0  0  0  0  0  0  0  0  0  0
    3.1105    0.7433    0.3722 C   0  0  0  0  0  0  0  0  0  0  0  0
    0.7144   -1.6255   -1.0618 C   0  0  2  0  0  0  0  0  0  0  0  0
    1.8759   -1.1154   -1.8202 C   0  0  0  0  0  0  0  0  0  0  0  0
   -4.7924   -1.2021   -0.3810 C   0  0  0  0  0  0  0  0  0  0  0  0
   -5.9629   -0.6887   -0.0199 O   0  0  0  0  0  0  0  0  0  0  0  0
   -9.1244    1.0608    0.1639 H   0  0  0  0  0  0  0  0  0  0  0  0
   -8.1758    0.3825   -1.1710 H   0  0  0  0  0  0  0  0  0  0  0  0
   -8.5864    2.1131   -1.1684 H   0  0  0  0  0  0  0  0  0  0  0  0
   -6.7229    2.5882    0.1132 H   0  0  0  0  0  0  0  0  0  0  0  0
   -6.5583    2.0642    2.3058 H   0  0  0  0  0  0  0  0  0  0  0  0
   -8.3038    1.9732    1.9414 H   0  0  0  0  0  0  0  0  0  0  0  0
   -7.4121    0.4300    2.1332 H   0  0  0  0  0  0  0  0  0  0  0  0
   -2.4927   -2.1584    0.8229 H   0  0  0  0  0  0  0  0  0  0  0  0
   -1.7245   -3.1603   -0.4408 H   0  0  0  0  0  0  0  0  0  0  0  0
   -0.0878   -3.4074    1.1123 H   0  0  0  0  0  0  0  0  0  0  0  0
   -0.5569   -1.9543    1.9961 H   0  0  0  0  0  0  0  0  0  0  0  0
    4.1310   -2.3287    1.3011 H   0  0  0  0  0  0  0  0  0  0  0  0
    6.2825   -1.3631    0.7881 H   0  0  0  0  0  0  0  0  0  0  0  0
    6.2956    3.1313   -0.6912 H   0  0  0  0  0  0  0  0  0  0  0  0
    8.7155    3.7100   -1.0992 H   0  0  0  0  0  0  0  0  0  0  0  0
   10.4424    1.7476   -0.6203 H   0  0  0  0  0  0  0  0  0  0  0  0
    4.4412    2.3230   -0.2715 H   0  0  0  0  0  0  0  0  0  0  0  0
    2.2335    1.3335    0.2546 H   0  0  0  0  0  0  0  0  0  0  0  0
    0.3571   -2.6272   -1.4806 H   0  0  0  0  0  0  0  0  0  0  0  0
    2.8597   -1.4272   -1.4994 H   0  0  0  0  0  0  0  0  0  0  0  0
    1.7638   -1.5428   -2.8713 H   0  0  0  0  0  0  0  0  0  0  0  0
    1.7524   -0.0225   -1.9784 H   0  0  0  0  0  0  0  0  0  0  0  0
   -4.5189   -2.2446   -0.4494 H   0  0  0  0  0  0  0  0  0  0  0  0
  1  2  1  0
  2  3  1  0
  2  4  1  0
  4  5  2  0
  5  6  1  0
  6  7  1  0
  7  8  2  0
  8  9  1  0
  9 10  2  0
 10 11  1  0
 11 12  1  0
 12 13  1  0
 13 14  1  0
 14 15  1  0
 15 16  2  0
 15 17  1  0
 17 18  2  0
 18 19  1  0
 19 20  2  0
 20 21  1  0
 21 22  2  0
 22 23  1  0
 23 24  2  0
 24 25  1  0
 20 26  1  0
 26 27  2  0
 14 28  1  0
 28 29  1  0
  6 30  2  0
 30 31  1  0
 31  4  1  0
 11  7  1  0
 27 17  1  0
 28 10  1  0
 25 21  1  0
  1 32  1  0
  1 33  1  0
  1 34  1  0
  2 35  1  0
  3 36  1  0
  3 37  1  0
  3 38  1  0
 12 39  1  0
 12 40  1  0
 13 41  1  0
 13 42  1  0
 18 43  1  0
 19 44  1  0
 22 45  1  0
 23 46  1  0
 24 47  1  0
 26 48  1  0
 27 49  1  0
 28 50  1  6
 29 51  1  0
 29 52  1  0
 29 53  1  0
 30 54  1  0
M  END
$$$$
