@<TRIPOS>MOLECULE
*****
 54 58 0 0 0
SMALL
GASTEIGER

@<TRIPOS>ATOM
      1 C          -8.2779    1.2733   -0.5138 C.3     1  UNL1       -0.0542
      2 C          -7.0359    1.5370    0.2797 C.3     1  UNL1        0.0299
      3 C          -7.3445    1.4601    1.7797 C.3     1  UNL1       -0.0542
      4 C          -5.9134    0.6222   -0.0584 C.ar    1  UNL1        0.1985
      5 N          -4.6669    0.9547   -0.4583 N.ar    1  UNL1       -0.2099
      6 C          -3.9423   -0.1609   -0.6678 C.ar    1  UNL1        0.1462
      7 C          -2.5523   -0.1841   -1.1027 C.ar    1  UNL1        0.1858
      8 N          -1.9369    0.6809   -1.9580 N.ar    1  UNL1       -0.1274
      9 N          -0.6648    0.3395   -2.1109 N.ar    1  UNL1       -0.1320
     10 C          -0.4621   -0.7292   -1.3653 C.ar    1  UNL1        0.1542
     11 N          -1.6028   -1.0581   -0.7470 N.ar    1  UNL1       -0.3066
     12 C          -1.6431   -2.2191    0.1457 C.3     1  UNL1        0.0423
     13 C          -0.3992   -2.3508    0.9823 C.3     1  UNL1        0.0338
     14 N           0.7707   -1.6930    0.3513 N.am    1  UNL1       -0.2860
     15 C           1.7725   -1.2230    1.1777 C.2     1  UNL1        0.2472
     16 O           1.5764   -1.4106    2.4495 O.2     1  UNL1       -0.2700
     17 C           3.0114   -0.5494    0.8101 C.ar    1  UNL1        0.0370
     18 C           4.1840   -1.3058    0.9569 C.ar    1  UNL1       -0.0490
     19 C           5.4076   -0.7527    0.6638 C.ar    1  UNL1       -0.0528
     20 C           5.4842    0.5361    0.2293 C.ar    1  UNL1       -0.0113
     21 C           6.7622    1.1457   -0.0880 C.ar    1  UNL1        0.0193
     22 C           7.1053    2.3646   -0.5155 C.ar    1  UNL1       -0.0469
     23 C           8.3852    2.6867   -0.7366 C.ar    1  UNL1       -0.0541
     24 C           9.3261    1.6819   -0.4958 C.ar    1  UNL1       -0.0237
     25 S           8.3502    0.3192    0.0360 S.2     1  UNL1       -0.0967
     26 C           4.3507    1.3022    0.0760 C.ar    1  UNL1       -0.0528
     27 C           3.1105    0.7433    0.3722 C.ar    1  UNL1       -0.0490
     28 C           0.7144   -1.6255   -1.0618 C.3     1  UNL1        0.0834
     29 C           1.8759   -1.1154   -1.8202 C.3     1  UNL1       -0.0393
     30 C          -4.7924   -1.2021   -0.3810 C.ar    1  UNL1        0.1231
     31 O          -5.9629   -0.6887   -0.0199 O.2     1  UNL1       -0.4469
     32 H          -9.1244    1.0608    0.1639 H       1  UNL1        0.0237
     33 H          -8.1758    0.3825   -1.1710 H       1  UNL1        0.0237
     34 H          -8.5864    2.1131   -1.1684 H       1  UNL1        0.0237
     35 H          -6.7229    2.5882    0.1132 H       1  UNL1        0.0390
     36 H          -6.5583    2.0642    2.3058 H       1  UNL1        0.0237
     37 H          -8.3038    1.9732    1.9414 H       1  UNL1        0.0237
     38 H          -7.4121    0.4300    2.1332 H       1  UNL1        0.0237
     39 H          -2.4927   -2.1584    0.8229 H       1  UNL1        0.0508
     40 H          -1.7245   -3.1603   -0.4408 H       1  UNL1        0.0508
     41 H          -0.0878   -3.4074    1.1123 H       1  UNL1        0.0482
     42 H          -0.5569   -1.9543    1.9961 H       1  UNL1        0.0482
     43 H           4.1310   -2.3287    1.3011 H       1  UNL1        0.0625
     44 H           6.2825   -1.3631    0.7881 H       1  UNL1        0.0624
     45 H           6.2956    3.1313   -0.6912 H       1  UNL1        0.0629
     46 H           8.7155    3.7100   -1.0992 H       1  UNL1        0.0623
     47 H          10.4424    1.7476   -0.6203 H       1  UNL1        0.0693
     48 H           4.4412    2.3230   -0.2715 H       1  UNL1        0.0624
     49 H           2.2335    1.3335    0.2546 H       1  UNL1        0.0625
     50 H           0.3571   -2.6272   -1.4806 H       1  UNL1        0.0579
     51 H           2.8597   -1.4272   -1.4994 H       1  UNL1        0.0252
     52 H           1.7638   -1.5428   -2.8713 H       1  UNL1        0.0252
     53 H           1.7524   -0.0225   -1.9784 H       1  UNL1        0.0252
     54 H          -4.5189   -2.2446   -0.4494 H       1  UNL1        0.1053
@<TRIPOS>BOND
     1     1     2    1
     2     2     3    1
     3     2     4    1
     4     4     5   ar
     5     5     6   ar
     6     6     7    1
     7     7     8   ar
     8     8     9   ar
     9     9    10   ar
    10    10    11   ar
    11    11    12    1
    12    12    13    1
    13    13    14    1
    14    14    15   am
    15    15    16    2
    16    15    17    1
    17    17    18   ar
    18    18    19   ar
    19    19    20   ar
    20    20    21    1
    21    21    22   ar
    22    22    23   ar
    23    23    24   ar
    24    24    25   ar
    25    20    26   ar
    26    26    27   ar
    27    14    28    1
    28    28    29    1
    29     6    30   ar
    30    30    31   ar
    31    31     4   ar
    32    11     7   ar
    33    27    17   ar
    34    28    10    1
    35    25    21   ar
    36     1    32    1
    37     1    33    1
    38     1    34    1
    39     2    35    1
    40     3    36    1
    41     3    37    1
    42     3    38    1
    43    12    39    1
    44    12    40    1
    45    13    41    1
    46    13    42    1
    47    18    43    1
    48    19    44    1
    49    22    45    1
    50    23    46    1
    51    24    47    1
    52    26    48    1
    53    27    49    1
    54    28    50    1
    55    29    51    1
    56    29    52    1
    57    29    53    1
    58    30    54    1
