
     RDKit          3D

 56 59  0  0  0  0  0  0  0  0999 V2000
   -4.9543   -2.7007    0.8559 C   0  0  0  0  0  0  0  0  0  0  0  0
   -3.6228   -2.5732    0.2911 N   0  0  0  0  0  0  0  0  0  0  0  0
   -2.8495   -1.5396    0.6594 C   0  0  0  0  0  0  0  0  0  0  0  0
   -3.3098   -0.7187    1.4829 O   0  0  0  0  0  0  0  0  0  0  0  0
   -1.5691   -1.3920    0.1341 C   0  0  0  0  0  0  0  0  0  0  0  0
   -1.1727   -2.3526   -0.7592 C   0  0  0  0  0  0  0  0  0  0  0  0
    0.0866   -2.0145   -1.1353 C   0  0  0  0  0  0  0  0  0  0  0  0
    0.4332   -0.8608   -0.4686 C   0  0  0  0  0  0  0  0  0  0  0  0
    1.7318   -0.2588   -0.6330 N   0  0  0  0  0  0  0  0  0  0  0  0
    1.9116    0.6601   -1.7098 C   0  0  0  0  0  0  0  0  0  0  0  0
    3.1319    1.5065   -1.4496 C   0  0  0  0  0  0  0  0  0  0  0  0
    3.2058    1.8521    0.0458 C   0  0  0  0  0  0  0  0  0  0  0  0
    3.5235    0.5990    0.8162 C   0  0  1  0  0  0  0  0  0  0  0  0
    5.0495    0.3906    0.8424 C   0  0  0  0  0  0  0  0  0  0  0  0
    3.0573    0.7758    2.1938 N   0  0  0  0  0  0  0  0  0  0  0  0
    2.8305   -0.5794    0.2305 C   0  0  0  0  0  0  0  0  0  0  0  0
   -0.5865   -0.4915    0.3019 N   0  0  0  0  0  0  0  0  0  0  0  0
   -0.6780    0.6064    1.1673 C   0  0  0  0  0  0  0  0  0  0  0  0
   -1.1827    1.8908    0.7840 C   0  0  0  0  0  0  0  0  0  0  0  0
   -1.1464    2.8904    1.7773 C   0  0  0  0  0  0  0  0  0  0  0  0
   -1.6052    4.1605    1.5346 C   0  0  0  0  0  0  0  0  0  0  0  0
   -1.5760    5.1369    2.4878 F   0  0  0  0  0  0  0  0  0  0  0  0
   -2.1216    4.5186    0.3119 C   0  0  0  0  0  0  0  0  0  0  0  0
   -2.1628    3.5608   -0.6597 C   0  0  0  0  0  0  0  0  0  0  0  0
   -1.6947    2.2588   -0.4177 C   0  0  0  0  0  0  0  0  0  0  0  0
   -1.7683    1.3085   -1.4853 C   0  0  0  0  0  0  0  0  0  0  0  0
   -1.8436    0.5235   -2.3635 N   0  0  0  0  0  0  0  0  0  0  0  0
   -1.9454   -3.3953   -1.1345 N   0  0  0  0  0  0  0  0  0  0  0  0
   -1.4578   -4.3814   -2.0936 C   0  0  0  0  0  0  0  0  0  0  0  0
   -3.1754   -3.4959   -0.5998 C   0  0  0  0  0  0  0  0  0  0  0  0
   -3.9356   -4.4477   -0.9150 O   0  0  0  0  0  0  0  0  0  0  0  0
   -5.5214   -3.4481    0.2680 H   0  0  0  0  0  0  0  0  0  0  0  0
   -5.4543   -1.7156    0.8868 H   0  0  0  0  0  0  0  0  0  0  0  0
   -4.8162   -3.1321    1.8710 H   0  0  0  0  0  0  0  0  0  0  0  0
    0.7142   -2.5700   -1.8483 H   0  0  0  0  0  0  0  0  0  0  0  0
    1.0295    1.2823   -1.9604 H   0  0  0  0  0  0  0  0  0  0  0  0
    2.0731    0.0241   -2.6362 H   0  0  0  0  0  0  0  0  0  0  0  0
    4.0642    1.0650   -1.8176 H   0  0  0  0  0  0  0  0  0  0  0  0
    2.9718    2.4778   -1.9781 H   0  0  0  0  0  0  0  0  0  0  0  0
    2.2035    2.1904    0.3493 H   0  0  0  0  0  0  0  0  0  0  0  0
    3.9709    2.6239    0.1495 H   0  0  0  0  0  0  0  0  0  0  0  0
    5.4615    0.9604    1.7012 H   0  0  0  0  0  0  0  0  0  0  0  0
    5.2654   -0.6791    0.9219 H   0  0  0  0  0  0  0  0  0  0  0  0
    5.5259    0.8191   -0.0619 H   0  0  0  0  0  0  0  0  0  0  0  0
    3.1362    1.7666    2.5042 H   0  0  0  0  0  0  0  0  0  0  0  0
    3.4961    0.0944    2.8454 H   0  0  0  0  0  0  0  0  0  0  0  0
    3.5614   -1.2675   -0.2797 H   0  0  0  0  0  0  0  0  0  0  0  0
    2.4131   -1.2369    1.0552 H   0  0  0  0  0  0  0  0  0  0  0  0
    0.3548    0.8097    1.6285 H   0  0  0  0  0  0  0  0  0  0  0  0
   -1.2482    0.3267    2.1313 H   0  0  0  0  0  0  0  0  0  0  0  0
   -0.7518    2.6465    2.7387 H   0  0  0  0  0  0  0  0  0  0  0  0
   -2.4882    5.5328    0.1178 H   0  0  0  0  0  0  0  0  0  0  0  0
   -2.5604    3.7840   -1.6484 H   0  0  0  0  0  0  0  0  0  0  0  0
   -1.3973   -3.8982   -3.1086 H   0  0  0  0  0  0  0  0  0  0  0  0
   -0.4408   -4.6726   -1.7764 H   0  0  0  0  0  0  0  0  0  0  0  0
   -2.1663   -5.2205   -2.1455 H   0  0  0  0  0  0  0  0  0  0  0  0
  1  2  1  0
  2  3  1  0
  3  4  2  0
  3  5  1  0
  5  6  2  0
  6  7  1  0
  7  8  2  0
  8  9  1  0
  9 10  1  0
 10 11  1  0
 11 12  1  0
 12 13  1  0
 13 14  1  0
 13 15  1  1
 13 16  1  0
  8 17  1  0
 17 18  1  0
 18 19  1  0
 19 20  2  0
 20 21  1  0
 21 22  1  0
 21 23  2  0
 23 24  1  0
 24 25  2  0
 25 26  1  0
 26 27  3  0
  6 28  1  0
 28 29  1  0
 28 30  1  0
 30 31  2  0
 30  2  1  0
 17  5  1  0
 25 19  1  0
 16  9  1  0
  1 32  1  0
  1 33  1  0
  1 34  1  0
  7 35  1  0
 10 36  1  0
 10 37  1  0
 11 38  1  0
 11 39  1  0
 12 40  1  0
 12 41  1  0
 14 42  1  0
 14 43  1  0
 14 44  1  0
 15 45  1  0
 15 46  1  0
 16 47  1  0
 16 48  1  0
 18 49  1  0
 18 50  1  0
 20 51  1  0
 23 52  1  0
 24 53  1  0
 29 54  1  0
 29 55  1  0
 29 56  1  0
M  END
$$$$
