@<TRIPOS>MOLECULE
*****
 56 59 0 0 0
SMALL
GASTEIGER

@<TRIPOS>ATOM
      1 C          -4.9543   -2.7007    0.8559 C.3     1  UNL1        0.0196
      2 N          -3.6228   -2.5732    0.2911 N.ar    1  UNL1       -0.2623
      3 C          -2.8495   -1.5396    0.6594 C.ar    1  UNL1        0.2806
      4 O          -3.3098   -0.7187    1.4829 O.2     1  UNL1       -0.2652
      5 C          -1.5691   -1.3920    0.1341 C.ar    1  UNL1        0.1329
      6 C          -1.1727   -2.3526   -0.7592 C.ar    1  UNL1        0.0780
      7 C           0.0866   -2.0145   -1.1353 C.ar    1  UNL1        0.0025
      8 C           0.4332   -0.8608   -0.4686 C.ar    1  UNL1        0.1043
      9 N           1.7318   -0.2588   -0.6330 N.pl3   1  UNL1       -0.3147
     10 C           1.9116    0.6601   -1.7098 C.3     1  UNL1        0.0136
     11 C           3.1319    1.5065   -1.4496 C.3     1  UNL1       -0.0355
     12 C           3.2058    1.8521    0.0458 C.3     1  UNL1       -0.0322
     13 C           3.5235    0.5990    0.8162 C.3     1  UNL1        0.0296
     14 C           5.0495    0.3906    0.8424 C.3     1  UNL1       -0.0455
     15 N           3.0573    0.7758    2.1938 N.3     1  UNL1       -0.3236
     16 C           2.8305   -0.5794    0.2305 C.3     1  UNL1        0.0313
     17 N          -0.5865   -0.4915    0.3019 N.ar    1  UNL1       -0.3187
     18 C          -0.6780    0.6064    1.1673 C.3     1  UNL1        0.0515
     19 C          -1.1827    1.8908    0.7840 C.ar    1  UNL1       -0.0077
     20 C          -1.1464    2.8904    1.7773 C.ar    1  UNL1       -0.0203
     21 C          -1.6052    4.1605    1.5346 C.ar    1  UNL1        0.1238
     22 F          -1.5760    5.1369    2.4878 F       1  UNL1       -0.2055
     23 C          -2.1216    4.5186    0.3119 C.ar    1  UNL1       -0.0252
     24 C          -2.1628    3.5608   -0.6597 C.ar    1  UNL1       -0.0413
     25 C          -1.6947    2.2588   -0.4177 C.ar    1  UNL1        0.0568
     26 C          -1.7683    1.3085   -1.4853 C.1     1  UNL1        0.0995
     27 N          -1.8436    0.5235   -2.3635 N.1     1  UNL1       -0.1909
     28 N          -1.9454   -3.3953   -1.1345 N.ar    1  UNL1       -0.2947
     29 C          -1.4578   -4.3814   -2.0936 C.3     1  UNL1        0.0167
     30 C          -3.1754   -3.4959   -0.5998 C.ar    1  UNL1        0.3320
     31 O          -3.9356   -4.4477   -0.9150 O.2     1  UNL1       -0.2463
     32 H          -5.5214   -3.4481    0.2680 H       1  UNL1        0.0458
     33 H          -5.4543   -1.7156    0.8868 H       1  UNL1        0.0458
     34 H          -4.8162   -3.1321    1.8710 H       1  UNL1        0.0458
     35 H           0.7142   -2.5700   -1.8483 H       1  UNL1        0.0673
     36 H           1.0295    1.2823   -1.9604 H       1  UNL1        0.0464
     37 H           2.0731    0.0241   -2.6362 H       1  UNL1        0.0464
     38 H           4.0642    1.0650   -1.8176 H       1  UNL1        0.0281
     39 H           2.9718    2.4778   -1.9781 H       1  UNL1        0.0281
     40 H           2.2035    2.1904    0.3493 H       1  UNL1        0.0284
     41 H           3.9709    2.6239    0.1495 H       1  UNL1        0.0284
     42 H           5.4615    0.9604    1.7012 H       1  UNL1        0.0248
     43 H           5.2654   -0.6791    0.9219 H       1  UNL1        0.0248
     44 H           5.5259    0.8191   -0.0619 H       1  UNL1        0.0248
     45 H           3.1362    1.7666    2.5042 H       1  UNL1        0.1188
     46 H           3.4961    0.0944    2.8454 H       1  UNL1        0.1188
     47 H           3.5614   -1.2675   -0.2797 H       1  UNL1        0.0482
     48 H           2.4131   -1.2369    1.0552 H       1  UNL1        0.0482
     49 H           0.3548    0.8097    1.6285 H       1  UNL1        0.0542
     50 H          -1.2482    0.3267    2.1313 H       1  UNL1        0.0542
     51 H          -0.7518    2.6465    2.7387 H       1  UNL1        0.0650
     52 H          -2.4882    5.5328    0.1178 H       1  UNL1        0.0646
     53 H          -2.5604    3.7840   -1.6484 H       1  UNL1        0.0631
     54 H          -1.3973   -3.8982   -3.1086 H       1  UNL1        0.0457
     55 H          -0.4408   -4.6726   -1.7764 H       1  UNL1        0.0457
     56 H          -2.1663   -5.2205   -2.1455 H       1  UNL1        0.0457
@<TRIPOS>BOND
     1     1     2    1
     2     2     3   ar
     3     3     4    2
     4     3     5   ar
     5     5     6   ar
     6     6     7   ar
     7     7     8   ar
     8     8     9    1
     9     9    10    1
    10    10    11    1
    11    11    12    1
    12    12    13    1
    13    13    14    1
    14    13    15    1
    15    13    16    1
    16     8    17   ar
    17    17    18    1
    18    18    19    1
    19    19    20   ar
    20    20    21   ar
    21    21    22    1
    22    21    23   ar
    23    23    24   ar
    24    24    25   ar
    25    25    26    1
    26    26    27    3
    27     6    28   ar
    28    28    29    1
    29    28    30   ar
    30    30    31    2
    31    30     2   ar
    32    17     5   ar
    33    25    19   ar
    34    16     9    1
    35     1    32    1
    36     1    33    1
    37     1    34    1
    38     7    35    1
    39    10    36    1
    40    10    37    1
    41    11    38    1
    42    11    39    1
    43    12    40    1
    44    12    41    1
    45    14    42    1
    46    14    43    1
    47    14    44    1
    48    15    45    1
    49    15    46    1
    50    16    47    1
    51    16    48    1
    52    18    49    1
    53    18    50    1
    54    20    51    1
    55    23    52    1
    56    24    53    1
    57    29    54    1
    58    29    55    1
    59    29    56    1
