@<TRIPOS>MOLECULE
*****
 66 70 0 0 0
SMALL
GASTEIGER

@<TRIPOS>ATOM
      1 N           2.3851    0.5774   -2.2305 N.3     1  UNL1       -0.3173
      2 C           1.5900    0.4581   -1.0410 C.3     1  UNL1        0.0965
      3 C           0.1595    0.7192   -1.2716 C.2     1  UNL1        0.2336
      4 O          -0.1837    1.0060   -2.4621 O.2     1  UNL1       -0.2738
      5 N          -0.8388    0.6777   -0.3020 N.am    1  UNL1       -0.3069
      6 C          -2.2111    0.9503   -0.6493 C.3     1  UNL1        0.0496
      7 C          -3.0188   -0.3115   -0.3286 C.3     1  UNL1       -0.0175
      8 C          -4.4540   -0.0190   -0.6958 C.3     1  UNL1        0.0009
      9 N          -5.3476   -1.0917   -0.4680 N.3     1  UNL1       -0.3022
     10 C          -5.6057   -1.4719    0.8653 C.3     1  UNL1       -0.0011
     11 C          -4.9368   -2.8113    1.0398 C.3     1  UNL1       -0.0390
     12 C          -5.1375   -3.4480   -0.3245 C.3     1  UNL1       -0.0390
     13 C          -5.1340   -2.2399   -1.2446 C.3     1  UNL1       -0.0011
     14 C          -2.7635    2.1167    0.0647 C.ar    1  UNL1       -0.0271
     15 C          -3.5023    3.0743   -0.5926 C.ar    1  UNL1       -0.0554
     16 C          -4.0377    4.1772    0.0332 C.ar    1  UNL1       -0.0431
     17 C          -3.8230    4.3266    1.3759 C.ar    1  UNL1        0.0410
     18 CL         -4.5065    5.7351    2.1775 Cl      1  UNL1       -0.0835
     19 C          -3.0851    3.3843    2.0706 C.ar    1  UNL1       -0.0431
     20 C          -2.5516    2.2738    1.4160 C.ar    1  UNL1       -0.0554
     21 C           1.7357   -0.9383   -0.4881 C.3     1  UNL1       -0.0104
     22 C           3.0658   -1.1824    0.1640 C.3     1  UNL1        0.0156
     23 N           4.0104   -0.1368   -0.0032 N.pl3   1  UNL1       -0.3144
     24 C           5.3855   -0.2596   -0.2705 C.ar    1  UNL1        0.1337
     25 N           5.9636    0.2585   -1.3954 N.ar    1  UNL1       -0.2200
     26 C           7.2778    0.1263   -1.6297 C.ar    1  UNL1        0.1204
     27 N           8.1227   -0.5082   -0.8059 N.ar    1  UNL1       -0.2178
     28 C           7.6008   -1.0465    0.3351 C.ar    1  UNL1        0.1432
     29 N           8.1067   -1.7282    1.3639 N.ar    1  UNL1       -0.3457
     30 C           7.1582   -2.0385    2.2530 C.ar    1  UNL1        0.0042
     31 C           5.9705   -1.5428    1.7973 C.ar    1  UNL1       -0.0318
     32 C           6.2370   -0.9192    0.5958 C.ar    1  UNL1        0.0585
     33 C           3.5480    1.2316    0.1018 C.3     1  UNL1        0.0156
     34 C           2.0569    1.3645    0.0804 C.3     1  UNL1       -0.0104
     35 H           2.1530    1.3813   -2.8319 H       1  UNL1        0.1192
     36 H           2.2231   -0.3029   -2.7909 H       1  UNL1        0.1192
     37 H          -0.6094    0.4505    0.6822 H       1  UNL1        0.1493
     38 H          -2.2675    1.1716   -1.7395 H       1  UNL1        0.0549
     39 H          -2.8908   -0.5684    0.7442 H       1  UNL1        0.0299
     40 H          -2.6410   -1.1402   -0.9354 H       1  UNL1        0.0299
     41 H          -4.7944    0.9502   -0.2584 H       1  UNL1        0.0427
     42 H          -4.4386    0.1757   -1.8106 H       1  UNL1        0.0427
     43 H          -5.2545   -0.7346    1.6268 H       1  UNL1        0.0426
     44 H          -6.7039   -1.6085    1.0575 H       1  UNL1        0.0426
     45 H          -5.4211   -3.4167    1.8403 H       1  UNL1        0.0278
     46 H          -3.8573   -2.6863    1.2053 H       1  UNL1        0.0278
     47 H          -6.1603   -3.9198   -0.3858 H       1  UNL1        0.0278
     48 H          -4.3343   -4.1489   -0.5805 H       1  UNL1        0.0278
     49 H          -5.9689   -2.3521   -2.0006 H       1  UNL1        0.0426
     50 H          -4.1673   -2.1630   -1.7908 H       1  UNL1        0.0426
     51 H          -3.6712    2.9521   -1.6622 H       1  UNL1        0.0621
     52 H          -4.6245    4.9254   -0.5216 H       1  UNL1        0.0632
     53 H          -2.9473    3.5540    3.1321 H       1  UNL1        0.0632
     54 H          -1.9804    1.5675    2.0161 H       1  UNL1        0.0621
     55 H           0.8669   -1.0979    0.1846 H       1  UNL1        0.0303
     56 H           1.5756   -1.6270   -1.3443 H       1  UNL1        0.0303
     57 H           3.4567   -2.1113   -0.2453 H       1  UNL1        0.0465
     58 H           2.8220   -1.2426    1.2597 H       1  UNL1        0.0465
     59 H           7.6769    0.5530   -2.5289 H       1  UNL1        0.1048
     60 H           9.1191   -1.9828    1.4545 H       1  UNL1        0.1668
     61 H           7.2443   -2.5853    3.1925 H       1  UNL1        0.0807
     62 H           4.9791   -1.5867    2.2298 H       1  UNL1        0.0640
     63 H           4.0015    1.7988   -0.7295 H       1  UNL1        0.0465
     64 H           3.9059    1.6433    1.0803 H       1  UNL1        0.0465
     65 H           1.8145    2.4101   -0.1205 H       1  UNL1        0.0303
     66 H           1.6578    0.9775    1.0397 H       1  UNL1        0.0303
@<TRIPOS>BOND
     1     1     2    1
     2     2     3    1
     3     3     4    2
     4     3     5   am
     5     5     6    1
     6     6     7    1
     7     7     8    1
     8     8     9    1
     9     9    10    1
    10    10    11    1
    11    11    12    1
    12    12    13    1
    13     6    14    1
    14    14    15   ar
    15    15    16   ar
    16    16    17   ar
    17    17    18    1
    18    17    19   ar
    19    19    20   ar
    20     2    21    1
    21    21    22    1
    22    22    23    1
    23    23    24    1
    24    24    25   ar
    25    25    26   ar
    26    26    27   ar
    27    27    28   ar
    28    28    29   ar
    29    29    30   ar
    30    30    31   ar
    31    31    32   ar
    32    23    33    1
    33    33    34    1
    34    34     2    1
    35    13     9    1
    36    20    14   ar
    37    32    24   ar
    38    32    28   ar
    39     1    35    1
    40     1    36    1
    41     5    37    1
    42     6    38    1
    43     7    39    1
    44     7    40    1
    45     8    41    1
    46     8    42    1
    47    10    43    1
    48    10    44    1
    49    11    45    1
    50    11    46    1
    51    12    47    1
    52    12    48    1
    53    13    49    1
    54    13    50    1
    55    15    51    1
    56    16    52    1
    57    19    53    1
    58    20    54    1
    59    21    55    1
    60    21    56    1
    61    22    57    1
    62    22    58    1
    63    26    59    1
    64    29    60    1
    65    30    61    1
    66    31    62    1
    67    33    63    1
    68    33    64    1
    69    34    65    1
    70    34    66    1
