
     RDKit          3D

 72 72  0  0  0  0  0  0  0  0999 V2000
   -9.1293    0.6234   -1.3807 C   0  0  0  0  0  0  0  0  0  0  0  0
   -7.9094    0.0977   -2.1035 C   0  0  0  0  0  0  0  0  0  0  0  0
   -6.8141   -0.2797   -1.1139 C   0  0  0  0  0  0  0  0  0  0  0  0
   -6.4115    0.9293   -0.2813 C   0  0  0  0  0  0  0  0  0  0  0  0
   -5.3364    0.4656    0.6489 C   0  0  0  0  0  0  0  0  0  0  0  0
   -3.9993    0.5727    0.3476 C   0  0  0  0  0  0  0  0  0  0  0  0
   -2.9802    0.1415    1.2149 C   0  0  0  0  0  0  0  0  0  0  0  0
   -1.7274    0.3185    0.7808 O   0  0  0  0  0  0  0  0  0  0  0  0
   -0.4634    0.0967    1.2479 C   0  0  0  0  0  0  0  0  0  0  0  0
    0.2782    1.4234    1.5083 C   0  0  0  0  0  0  0  0  0  0  0  0
    0.9500    1.8517    0.2193 C   0  0  0  0  0  0  0  0  0  0  0  0
    2.1490    1.0264   -0.0109 N   0  0  0  0  0  0  0  0  0  0  0  0
    2.6107    1.2714   -1.3424 C   0  0  0  0  0  0  0  0  0  0  0  0
    4.0257    0.9290   -1.6026 C   0  0  0  0  0  0  0  0  0  0  0  0
    4.4910   -0.4641   -1.3954 C   0  0  0  0  0  0  0  0  0  0  0  0
    5.9997   -0.4961   -1.7556 C   0  0  0  0  0  0  0  0  0  0  0  0
    6.5319   -1.7905   -1.5453 N   0  0  0  0  0  0  0  0  0  0  0  0
    8.1726   -1.9173   -1.9347 S   0  0  0  0  0  6  0  0  0  0  0  0
    8.5836   -3.3763   -1.7283 O   0  0  0  0  0  0  0  0  0  0  0  0
    8.3717   -1.5602   -3.3999 O   0  0  0  0  0  0  0  0  0  0  0  0
    9.2637   -0.8973   -1.0077 C   0  0  0  0  0  0  0  0  0  0  0  0
    9.0349    0.5779   -1.1469 C   0  0  0  0  0  0  0  0  0  0  0  0
    1.7884   -0.3756    0.1769 C   0  0  0  0  0  0  0  0  0  0  0  0
    0.3213   -0.6562    0.1919 C   0  0  0  0  0  0  0  0  0  0  0  0
   -3.3772   -0.4112    2.4141 C   0  0  0  0  0  0  0  0  0  0  0  0
   -2.4545   -0.8473    3.2893 N   0  0  0  0  0  0  0  0  0  0  0  0
   -2.7666   -1.3978    4.4746 C   0  0  0  0  0  0  0  0  0  0  0  0
   -4.0847   -1.5561    4.8808 C   0  0  0  0  0  0  0  0  0  0  0  0
   -5.0419   -1.1137    3.9929 C   0  0  0  0  0  0  0  0  0  0  0  0
   -4.7124   -0.5478    2.7757 C   0  0  0  0  0  0  0  0  0  0  0  0
   -5.6592   -0.1036    1.8796 C   0  0  0  0  0  0  0  0  0  0  0  0
    0.6853    0.0000    0.0000 Cl  0  0  0  0  0  0  0  0  0  0  0  0
    0.6832    0.0000    0.0000 Cl  0  0  0  0  0  0  0  0  0  0  0  0
   -9.0424    0.5042   -0.2650 H   0  0  0  0  0  0  0  0  0  0  0  0
  -10.0714    0.1516   -1.6967 H   0  0  0  0  0  0  0  0  0  0  0  0
   -9.2301    1.7220   -1.5498 H   0  0  0  0  0  0  0  0  0  0  0  0
   -8.1865   -0.8171   -2.6524 H   0  0  0  0  0  0  0  0  0  0  0  0
   -7.5157    0.8753   -2.7526 H   0  0  0  0  0  0  0  0  0  0  0  0
   -7.2340   -1.0801   -0.4770 H   0  0  0  0  0  0  0  0  0  0  0  0
   -5.9371   -0.7054   -1.6211 H   0  0  0  0  0  0  0  0  0  0  0  0
   -7.2609    1.3867    0.2298 H   0  0  0  0  0  0  0  0  0  0  0  0
   -5.8991    1.6371   -0.9855 H   0  0  0  0  0  0  0  0  0  0  0  0
   -3.7500    1.0169   -0.6193 H   0  0  0  0  0  0  0  0  0  0  0  0
   -0.4463   -0.4630    2.1709 H   0  0  0  0  0  0  0  0  0  0  0  0
   -0.4564    2.1727    1.7818 H   0  0  0  0  0  0  0  0  0  0  0  0
    0.9753    1.2332    2.3354 H   0  0  0  0  0  0  0  0  0  0  0  0
    0.2616    1.7018   -0.6065 H   0  0  0  0  0  0  0  0  0  0  0  0
    1.2843    2.8832    0.3230 H   0  0  0  0  0  0  0  0  0  0  0  0
    1.9508    0.7300   -2.0805 H   0  0  0  0  0  0  0  0  0  0  0  0
    2.4309    2.3681   -1.5860 H   0  0  0  0  0  0  0  0  0  0  0  0
    4.3224    1.2767   -2.6551 H   0  0  0  0  0  0  0  0  0  0  0  0
    4.6921    1.5840   -0.9666 H   0  0  0  0  0  0  0  0  0  0  0  0
    4.4468   -0.8057   -0.3647 H   0  0  0  0  0  0  0  0  0  0  0  0
    4.0221   -1.2227   -2.0618 H   0  0  0  0  0  0  0  0  0  0  0  0
    6.0731   -0.1587   -2.7963 H   0  0  0  0  0  0  0  0  0  0  0  0
    6.4462    0.3021   -1.1084 H   0  0  0  0  0  0  0  0  0  0  0  0
    6.3152   -2.1639   -0.5782 H   0  0  0  0  0  0  0  0  0  0  0  0
   10.3208   -1.0927   -1.3448 H   0  0  0  0  0  0  0  0  0  0  0  0
    9.2626   -1.2051    0.0768 H   0  0  0  0  0  0  0  0  0  0  0  0
   10.0159    1.1286   -1.1823 H   0  0  0  0  0  0  0  0  0  0  0  0
    8.5105    0.7751   -2.1029 H   0  0  0  0  0  0  0  0  0  0  0  0
    8.5081    1.0130   -0.2765 H   0  0  0  0  0  0  0  0  0  0  0  0
    2.1587   -0.9022   -0.7554 H   0  0  0  0  0  0  0  0  0  0  0  0
    2.2837   -0.7692    1.0668 H   0  0  0  0  0  0  0  0  0  0  0  0
   -0.0639   -0.4221   -0.8404 H   0  0  0  0  0  0  0  0  0  0  0  0
    0.1893   -1.7535    0.2852 H   0  0  0  0  0  0  0  0  0  0  0  0
   -1.9722   -1.7336    5.1556 H   0  0  0  0  0  0  0  0  0  0  0  0
   -4.3066   -2.0004    5.8394 H   0  0  0  0  0  0  0  0  0  0  0  0
   -6.0870   -1.2036    4.2340 H   0  0  0  0  0  0  0  0  0  0  0  0
   -6.7160   -0.1980    2.1327 H   0  0  0  0  0  0  0  0  0  0  0  0
   -0.6853    0.0000    0.0000 H   0  0  0  0  0  0  0  0  0  0  0  0
   -0.6832    0.0000    0.0000 H   0  0  0  0  0  0  0  0  0  0  0  0
  1  2  1  0
  2  3  1  0
  3  4  1  0
  4  5  1  0
  5  6  2  0
  6  7  1  0
  7  8  1  0
  8  9  1  0
  9 10  1  0
 10 11  1  0
 11 12  1  0
 12 13  1  0
 13 14  1  0
 14 15  1  0
 15 16  1  0
 16 17  1  0
 17 18  1  0
 18 19  2  0
 18 20  2  0
 18 21  1  0
 21 22  1  0
 12 23  1  0
 23 24  1  0
  7 25  2  0
 25 26  1  0
 26 27  2  0
 27 28  1  0
 28 29  2  0
 29 30  1  0
 30 31  2  0
 31  5  1  0
 24  9  1  0
 30 25  1  0
  1 34  1  0
  1 35  1  0
  1 36  1  0
  2 37  1  0
  2 38  1  0
  3 39  1  0
  3 40  1  0
  4 41  1  0
  4 42  1  0
  6 43  1  0
  9 44  1  0
 10 45  1  0
 10 46  1  0
 11 47  1  0
 11 48  1  0
 13 49  1  0
 13 50  1  0
 14 51  1  0
 14 52  1  0
 15 53  1  0
 15 54  1  0
 16 55  1  0
 16 56  1  0
 17 57  1  0
 21 58  1  0
 21 59  1  0
 22 60  1  0
 22 61  1  0
 22 62  1  0
 23 63  1  0
 23 64  1  0
 24 65  1  0
 24 66  1  0
 27 67  1  0
 28 68  1  0
 29 69  1  0
 31 70  1  0
 32 71  1  0
 33 72  1  0
M  END
$$$$
