@<TRIPOS>MOLECULE
*****
 72 72 0 0 0
SMALL
GASTEIGER

@<TRIPOS>ATOM
      1 C          -9.1293    0.6234   -1.3807 C.3     1  UNL1       -0.0653
      2 C          -7.9094    0.0977   -2.1035 C.3     1  UNL1       -0.0556
      3 C          -6.8141   -0.2797   -1.1139 C.3     1  UNL1       -0.0493
      4 C          -6.4115    0.9293   -0.2813 C.3     1  UNL1       -0.0276
      5 C          -5.3364    0.4656    0.6489 C.ar    1  UNL1       -0.0432
      6 C          -3.9993    0.5727    0.3476 C.ar    1  UNL1       -0.0146
      7 C          -2.9802    0.1415    1.2149 C.ar    1  UNL1        0.1470
      8 O          -1.7274    0.3185    0.7808 O.3     1  UNL1       -0.4866
      9 C          -0.4634    0.0967    1.2479 C.3     1  UNL1        0.1026
     10 C           0.2782    1.4234    1.5083 C.3     1  UNL1       -0.0029
     11 C           0.9500    1.8517    0.2193 C.3     1  UNL1        0.0022
     12 N           2.1490    1.0264   -0.0109 N.3     1  UNL1       -0.3021
     13 C           2.6107    1.2714   -1.3424 C.3     1  UNL1       -0.0011
     14 C           4.0257    0.9290   -1.6026 C.3     1  UNL1       -0.0390
     15 C           4.4910   -0.4641   -1.3954 C.3     1  UNL1       -0.0377
     16 C           5.9997   -0.4961   -1.7556 C.3     1  UNL1        0.0171
     17 N           6.5319   -1.7905   -1.5453 N.3     1  UNL1       -0.1945
     18 S           8.1726   -1.9173   -1.9347 S.O2    1  UNL1        0.0291
     19 O           8.5836   -3.3763   -1.7283 O.2     1  UNL1       -0.1582
     20 O           8.3717   -1.5602   -3.3999 O.2     1  UNL1       -0.1582
     21 C           9.2637   -0.8973   -1.0077 C.3     1  UNL1        0.0789
     22 C           9.0349    0.5779   -1.1469 C.3     1  UNL1       -0.0443
     23 C           1.7884   -0.3756    0.1769 C.3     1  UNL1        0.0022
     24 C           0.3213   -0.6562    0.1919 C.3     1  UNL1       -0.0029
     25 C          -3.3772   -0.4112    2.4141 C.ar    1  UNL1        0.1125
     26 N          -2.4545   -0.8473    3.2893 N.ar    1  UNL1       -0.2513
     27 C          -2.7666   -1.3978    4.4746 C.ar    1  UNL1        0.0284
     28 C          -4.0847   -1.5561    4.8808 C.ar    1  UNL1       -0.0430
     29 C          -5.0419   -1.1137    3.9929 C.ar    1  UNL1       -0.0510
     30 C          -4.7124   -0.5478    2.7757 C.ar    1  UNL1        0.0042
     31 C          -5.6592   -0.1036    1.8796 C.ar    1  UNL1       -0.0491
     32 CL          0.6853    0.0000    0.0000 Cl      2  UNL2       -0.1454
     33 CL          0.6832    0.0000    0.0000 Cl      3  UNL3       -0.1454
     34 H          -9.0424    0.5042   -0.2650 H       1  UNL1        0.0230
     35 H         -10.0714    0.1516   -1.6967 H       1  UNL1        0.0230
     36 H          -9.2301    1.7220   -1.5498 H       1  UNL1        0.0230
     37 H          -8.1865   -0.8171   -2.6524 H       1  UNL1        0.0263
     38 H          -7.5157    0.8753   -2.7526 H       1  UNL1        0.0263
     39 H          -7.2340   -1.0801   -0.4770 H       1  UNL1        0.0268
     40 H          -5.9371   -0.7054   -1.6211 H       1  UNL1        0.0268
     41 H          -7.2609    1.3867    0.2298 H       1  UNL1        0.0313
     42 H          -5.8991    1.6371   -0.9855 H       1  UNL1        0.0313
     43 H          -3.7500    1.0169   -0.6193 H       1  UNL1        0.0657
     44 H          -0.4463   -0.4630    2.1709 H       1  UNL1        0.0733
     45 H          -0.4564    2.1727    1.7818 H       1  UNL1        0.0313
     46 H           0.9753    1.2332    2.3354 H       1  UNL1        0.0313
     47 H           0.2616    1.7018   -0.6065 H       1  UNL1        0.0428
     48 H           1.2843    2.8832    0.3230 H       1  UNL1        0.0428
     49 H           1.9508    0.7300   -2.0805 H       1  UNL1        0.0426
     50 H           2.4309    2.3681   -1.5860 H       1  UNL1        0.0426
     51 H           4.3224    1.2767   -2.6551 H       1  UNL1        0.0278
     52 H           4.6921    1.5840   -0.9666 H       1  UNL1        0.0278
     53 H           4.4468   -0.8057   -0.3647 H       1  UNL1        0.0278
     54 H           4.0221   -1.2227   -2.0618 H       1  UNL1        0.0278
     55 H           6.0731   -0.1587   -2.7963 H       1  UNL1        0.0441
     56 H           6.4462    0.3021   -1.1084 H       1  UNL1        0.0441
     57 H           6.3152   -2.1639   -0.5782 H       1  UNL1        0.1476
     58 H          10.3208   -1.0927   -1.3448 H       1  UNL1        0.0513
     59 H           9.2626   -1.2051    0.0768 H       1  UNL1        0.0513
     60 H          10.0159    1.1286   -1.1823 H       1  UNL1        0.0246
     61 H           8.5105    0.7751   -2.1029 H       1  UNL1        0.0246
     62 H           8.5081    1.0130   -0.2765 H       1  UNL1        0.0246
     63 H           2.1587   -0.9022   -0.7554 H       1  UNL1        0.0428
     64 H           2.2837   -0.7692    1.0668 H       1  UNL1        0.0428
     65 H          -0.0639   -0.4221   -0.8404 H       1  UNL1        0.0313
     66 H           0.1893   -1.7535    0.2852 H       1  UNL1        0.0313
     67 H          -1.9722   -1.7336    5.1556 H       1  UNL1        0.0830
     68 H          -4.3066   -2.0004    5.8394 H       1  UNL1        0.0633
     69 H          -6.0870   -1.2036    4.2340 H       1  UNL1        0.0625
     70 H          -6.7160   -0.1980    2.1327 H       1  UNL1        0.0627
     71 H          -0.6853    0.0000    0.0000 H       1  UNL1        0.1454
     72 H          -0.6832    0.0000    0.0000 H       2  UNL2        0.1454
@<TRIPOS>BOND
     1     1     2    1
     2     2     3    1
     3     3     4    1
     4     4     5    1
     5     5     6   ar
     6     6     7   ar
     7     7     8    1
     8     8     9    1
     9     9    10    1
    10    10    11    1
    11    11    12    1
    12    12    13    1
    13    13    14    1
    14    14    15    1
    15    15    16    1
    16    16    17    1
    17    17    18    1
    18    18    19    2
    19    18    20    2
    20    18    21    1
    21    21    22    1
    22    12    23    1
    23    23    24    1
    24     7    25   ar
    25    25    26   ar
    26    26    27   ar
    27    27    28   ar
    28    28    29   ar
    29    29    30   ar
    30    30    31   ar
    31    31     5   ar
    32    24     9    1
    33    30    25   ar
    34     1    34    1
    35     1    35    1
    36     1    36    1
    37     2    37    1
    38     2    38    1
    39     3    39    1
    40     3    40    1
    41     4    41    1
    42     4    42    1
    43     6    43    1
    44     9    44    1
    45    10    45    1
    46    10    46    1
    47    11    47    1
    48    11    48    1
    49    13    49    1
    50    13    50    1
    51    14    51    1
    52    14    52    1
    53    15    53    1
    54    15    54    1
    55    16    55    1
    56    16    56    1
    57    17    57    1
    58    21    58    1
    59    21    59    1
    60    22    60    1
    61    22    61    1
    62    22    62    1
    63    23    63    1
    64    23    64    1
    65    24    65    1
    66    24    66    1
    67    27    67    1
    68    28    68    1
    69    29    69    1
    70    31    70    1
    71    32    71    1
    72    33    72    1
