
     RDKit          3D

 61 65  0  0  0  0  0  0  0  0999 V2000
   10.3197   -2.0614   -1.2420 C   0  0  0  0  0  0  0  0  0  0  0  0
    9.1137   -2.1517   -1.7432 C   0  0  0  0  0  0  0  0  0  0  0  0
    8.0595   -1.3097   -1.2331 C   0  0  0  0  0  0  0  0  0  0  0  0
    8.2988   -0.4737   -0.2955 O   0  0  0  0  0  0  0  0  0  0  0  0
    6.7108   -1.3112   -1.6896 N   0  0  0  0  0  0  0  0  0  0  0  0
    5.7277   -0.4373   -1.1686 C   0  0  0  0  0  0  0  0  0  0  0  0
    4.9983   -0.7595   -0.0954 N   0  0  0  0  0  0  0  0  0  0  0  0
    4.0545    0.0880    0.4037 C   0  0  0  0  0  0  0  0  0  0  0  0
    3.8401    1.2903   -0.1952 C   0  0  0  0  0  0  0  0  0  0  0  0
    2.6598    2.4430    0.3692 S   0  0  0  0  0  6  0  0  0  0  0  0
    2.5378    2.3438    1.8749 O   0  0  0  0  0  0  0  0  0  0  0  0
    3.1076    3.8518   -0.0028 O   0  0  0  0  0  0  0  0  0  0  0  0
    1.1582    2.1778   -0.3610 N   0  0  0  0  0  0  0  0  0  0  0  0
    0.6024    0.9054   -0.0688 C   0  0  0  0  0  0  0  0  0  0  0  0
   -0.7109    1.0460    0.7259 C   0  0  0  0  0  0  0  0  0  0  0  0
   -1.6539    1.6823   -0.1449 N   0  0  0  0  0  0  0  0  0  0  0  0
   -2.9697    1.3030   -0.4255 C   0  0  0  0  0  0  0  0  0  0  0  0
   -3.6154    2.0583   -1.2511 O   0  0  0  0  0  0  0  0  0  0  0  0
   -3.7254    0.1614    0.0912 C   0  0  0  0  0  0  0  0  0  0  0  0
   -3.1607   -1.1384   -0.3550 C   0  0  0  0  0  0  0  0  0  0  0  0
   -3.8066   -2.3156    0.3841 C   0  0  0  0  0  0  0  0  0  0  0  0
   -3.7200   -2.0683    1.8511 C   0  0  0  0  0  0  0  0  0  0  0  0
   -4.5373   -0.8665    2.2268 C   0  0  0  0  0  0  0  0  0  0  0  0
   -5.9369   -0.8711    1.6957 C   0  0  0  0  0  0  0  0  0  0  0  0
   -5.8847   -1.0073    0.1799 C   0  0  0  0  0  0  0  0  0  0  0  0
   -5.2571   -2.3313   -0.1090 C   0  0  0  0  0  0  0  0  0  0  0  0
   -5.1812    0.1695   -0.4258 C   0  0  0  0  0  0  0  0  0  0  0  0
   -3.8501    0.3348    1.5836 C   0  0  0  0  0  0  0  0  0  0  0  0
   -1.1333    2.9044   -0.8110 C   0  0  0  0  0  0  0  0  0  0  0  0
    0.2313    3.2547   -0.2540 C   0  0  0  0  0  0  0  0  0  0  0  0
    4.5932    1.6246   -1.3049 C   0  0  0  0  0  0  0  0  0  0  0  0
    5.5082    0.7481   -1.7480 N   0  0  0  0  0  0  0  0  0  0  0  0
   10.5319   -1.3449   -0.4309 H   0  0  0  0  0  0  0  0  0  0  0  0
   11.1809   -2.6444   -1.5558 H   0  0  0  0  0  0  0  0  0  0  0  0
    8.9093   -2.8467   -2.5292 H   0  0  0  0  0  0  0  0  0  0  0  0
    6.4545   -1.9758   -2.4483 H   0  0  0  0  0  0  0  0  0  0  0  0
    3.5052   -0.2201    1.2633 H   0  0  0  0  0  0  0  0  0  0  0  0
    0.3220    0.3937   -1.0164 H   0  0  0  0  0  0  0  0  0  0  0  0
    1.2976    0.2406    0.4788 H   0  0  0  0  0  0  0  0  0  0  0  0
   -0.5110    1.6670    1.6416 H   0  0  0  0  0  0  0  0  0  0  0  0
   -0.9369    0.0547    1.0820 H   0  0  0  0  0  0  0  0  0  0  0  0
   -3.5372   -1.2795   -1.4253 H   0  0  0  0  0  0  0  0  0  0  0  0
   -2.0864   -1.2296   -0.4398 H   0  0  0  0  0  0  0  0  0  0  0  0
   -3.2830   -3.2391    0.1426 H   0  0  0  0  0  0  0  0  0  0  0  0
   -2.6463   -1.7702    2.0503 H   0  0  0  0  0  0  0  0  0  0  0  0
   -3.8900   -2.9528    2.4726 H   0  0  0  0  0  0  0  0  0  0  0  0
   -4.5270   -0.6989    3.3152 H   0  0  0  0  0  0  0  0  0  0  0  0
   -6.6022   -1.6175    2.1483 H   0  0  0  0  0  0  0  0  0  0  0  0
   -6.3647    0.1318    1.8936 H   0  0  0  0  0  0  0  0  0  0  0  0
   -6.9432   -1.0385   -0.1912 H   0  0  0  0  0  0  0  0  0  0  0  0
   -5.7834   -3.0887    0.5189 H   0  0  0  0  0  0  0  0  0  0  0  0
   -5.2239   -2.6058   -1.1779 H   0  0  0  0  0  0  0  0  0  0  0  0
   -5.1674    0.0510   -1.5242 H   0  0  0  0  0  0  0  0  0  0  0  0
   -5.6985    1.0813   -0.1331 H   0  0  0  0  0  0  0  0  0  0  0  0
   -2.9590    0.6645    2.1031 H   0  0  0  0  0  0  0  0  0  0  0  0
   -4.5996    1.1759    1.7178 H   0  0  0  0  0  0  0  0  0  0  0  0
   -1.1369    2.6861   -1.8781 H   0  0  0  0  0  0  0  0  0  0  0  0
   -1.8015    3.7601   -0.6105 H   0  0  0  0  0  0  0  0  0  0  0  0
    0.0906    3.6329    0.7752 H   0  0  0  0  0  0  0  0  0  0  0  0
    0.6143    4.0739   -0.9321 H   0  0  0  0  0  0  0  0  0  0  0  0
    4.4138    2.5812   -1.7716 H   0  0  0  0  0  0  0  0  0  0  0  0
  1  2  2  3
  2  3  1  0
  3  4  2  0
  3  5  1  0
  5  6  1  0
  6  7  2  0
  7  8  1  0
  8  9  2  0
  9 10  1  0
 10 11  2  0
 10 12  2  0
 10 13  1  0
 13 14  1  0
 14 15  1  0
 15 16  1  0
 16 17  1  0
 17 18  2  0
 17 19  1  0
 19 20  1  0
 20 21  1  0
 21 22  1  0
 22 23  1  0
 23 24  1  0
 24 25  1  0
 25 26  1  0
 25 27  1  0
 23 28  1  0
 16 29  1  0
 29 30  1  0
  9 31  1  0
 31 32  2  0
 32  6  1  0
 30 13  1  0
 27 19  1  0
 28 19  1  0
 26 21  1  0
  1 33  1  0
  1 34  1  0
  2 35  1  0
  5 36  1  0
  8 37  1  0
 14 38  1  0
 14 39  1  0
 15 40  1  0
 15 41  1  0
 20 42  1  0
 20 43  1  0
 21 44  1  0
 22 45  1  0
 22 46  1  0
 23 47  1  0
 24 48  1  0
 24 49  1  0
 25 50  1  0
 26 51  1  0
 26 52  1  0
 27 53  1  0
 27 54  1  0
 28 55  1  0
 28 56  1  0
 29 57  1  0
 29 58  1  0
 30 59  1  0
 30 60  1  0
 31 61  1  0
M  END
$$$$
