@<TRIPOS>MOLECULE
*****
 61 65 0 0 0
SMALL
GASTEIGER

@<TRIPOS>ATOM
      1 C          10.3197   -2.0614   -1.2420 C.2     1  UNL1       -0.0938
      2 C           9.1137   -2.1517   -1.7432 C.2     1  UNL1       -0.0065
      3 C           8.0595   -1.3097   -1.2331 C.2     1  UNL1        0.2427
      4 O           8.2988   -0.4737   -0.2955 O.2     1  UNL1       -0.2704
      5 N           6.7108   -1.3112   -1.6896 N.am    1  UNL1       -0.2510
      6 C           5.7277   -0.4373   -1.1686 C.ar    1  UNL1        0.2218
      7 N           4.9983   -0.7595   -0.0954 N.ar    1  UNL1       -0.2206
      8 C           4.0545    0.0880    0.4037 C.ar    1  UNL1        0.0590
      9 C           3.8401    1.2903   -0.1952 C.ar    1  UNL1        0.1416
     10 S           2.6598    2.4430    0.3692 S.O2    1  UNL1        0.0638
     11 O           2.5378    2.3438    1.8749 O.2     1  UNL1       -0.1528
     12 O           3.1076    3.8518   -0.0028 O.2     1  UNL1       -0.1528
     13 N           1.1582    2.1778   -0.3610 N.3     1  UNL1       -0.1735
     14 C           0.6024    0.9054   -0.0688 C.3     1  UNL1        0.0363
     15 C          -0.7109    1.0460    0.7259 C.3     1  UNL1        0.0291
     16 N          -1.6539    1.6823   -0.1449 N.am    1  UNL1       -0.2985
     17 C          -2.9697    1.3030   -0.4255 C.2     1  UNL1        0.2218
     18 O          -3.6154    2.0583   -1.2511 O.2     1  UNL1       -0.2750
     19 C          -3.7254    0.1614    0.0912 C.3     1  UNL1        0.0479
     20 C          -3.1607   -1.1384   -0.3550 C.3     1  UNL1       -0.0362
     21 C          -3.8066   -2.3156    0.3841 C.3     1  UNL1       -0.0396
     22 C          -3.7200   -2.0683    1.8511 C.3     1  UNL1       -0.0473
     23 C          -4.5373   -0.8665    2.2268 C.3     1  UNL1       -0.0396
     24 C          -5.9369   -0.8711    1.6957 C.3     1  UNL1       -0.0473
     25 C          -5.8847   -1.0073    0.1799 C.3     1  UNL1       -0.0396
     26 C          -5.2571   -2.3313   -0.1090 C.3     1  UNL1       -0.0473
     27 C          -5.1812    0.1695   -0.4258 C.3     1  UNL1       -0.0362
     28 C          -3.8501    0.3348    1.5836 C.3     1  UNL1       -0.0362
     29 C          -1.1333    2.9044   -0.8110 C.3     1  UNL1        0.0291
     30 C           0.2313    3.2547   -0.2540 C.3     1  UNL1        0.0363
     31 C           4.5932    1.6246   -1.3049 C.ar    1  UNL1        0.0590
     32 N           5.5082    0.7481   -1.7480 N.ar    1  UNL1       -0.2206
     33 H          10.5319   -1.3449   -0.4309 H       1  UNL1        0.0536
     34 H          11.1809   -2.6444   -1.5558 H       1  UNL1        0.0536
     35 H           8.9093   -2.8467   -2.5292 H       1  UNL1        0.0664
     36 H           6.4545   -1.9758   -2.4483 H       1  UNL1        0.1580
     37 H           3.5052   -0.2201    1.2633 H       1  UNL1        0.0851
     38 H           0.3220    0.3937   -1.0164 H       1  UNL1        0.0459
     39 H           1.2976    0.2406    0.4788 H       1  UNL1        0.0459
     40 H          -0.5110    1.6670    1.6416 H       1  UNL1        0.0478
     41 H          -0.9369    0.0547    1.0820 H       1  UNL1        0.0478
     42 H          -3.5372   -1.2795   -1.4253 H       1  UNL1        0.0278
     43 H          -2.0864   -1.2296   -0.4398 H       1  UNL1        0.0278
     44 H          -3.2830   -3.2391    0.1426 H       1  UNL1        0.0301
     45 H          -2.6463   -1.7702    2.0503 H       1  UNL1        0.0271
     46 H          -3.8900   -2.9528    2.4726 H       1  UNL1        0.0271
     47 H          -4.5270   -0.6989    3.3152 H       1  UNL1        0.0301
     48 H          -6.6022   -1.6175    2.1483 H       1  UNL1        0.0271
     49 H          -6.3647    0.1318    1.8936 H       1  UNL1        0.0271
     50 H          -6.9432   -1.0385   -0.1912 H       1  UNL1        0.0301
     51 H          -5.7834   -3.0887    0.5189 H       1  UNL1        0.0271
     52 H          -5.2239   -2.6058   -1.1779 H       1  UNL1        0.0271
     53 H          -5.1674    0.0510   -1.5242 H       1  UNL1        0.0278
     54 H          -5.6985    1.0813   -0.1331 H       1  UNL1        0.0278
     55 H          -2.9590    0.6645    2.1031 H       1  UNL1        0.0278
     56 H          -4.5996    1.1759    1.7178 H       1  UNL1        0.0278
     57 H          -1.1369    2.6861   -1.8781 H       1  UNL1        0.0478
     58 H          -1.8015    3.7601   -0.6105 H       1  UNL1        0.0478
     59 H           0.0906    3.6329    0.7752 H       1  UNL1        0.0459
     60 H           0.6143    4.0739   -0.9321 H       1  UNL1        0.0459
     61 H           4.4138    2.5812   -1.7716 H       1  UNL1        0.0851
@<TRIPOS>BOND
     1     1     2    2
     2     2     3    1
     3     3     4    2
     4     3     5   am
     5     5     6    1
     6     6     7   ar
     7     7     8   ar
     8     8     9   ar
     9     9    10    1
    10    10    11    2
    11    10    12    2
    12    10    13    1
    13    13    14    1
    14    14    15    1
    15    15    16    1
    16    16    17   am
    17    17    18    2
    18    17    19    1
    19    19    20    1
    20    20    21    1
    21    21    22    1
    22    22    23    1
    23    23    24    1
    24    24    25    1
    25    25    26    1
    26    25    27    1
    27    23    28    1
    28    16    29    1
    29    29    30    1
    30     9    31   ar
    31    31    32   ar
    32    32     6   ar
    33    30    13    1
    34    27    19    1
    35    28    19    1
    36    26    21    1
    37     1    33    1
    38     1    34    1
    39     2    35    1
    40     5    36    1
    41     8    37    1
    42    14    38    1
    43    14    39    1
    44    15    40    1
    45    15    41    1
    46    20    42    1
    47    20    43    1
    48    21    44    1
    49    22    45    1
    50    22    46    1
    51    23    47    1
    52    24    48    1
    53    24    49    1
    54    25    50    1
    55    26    51    1
    56    26    52    1
    57    27    53    1
    58    27    54    1
    59    28    55    1
    60    28    56    1
    61    29    57    1
    62    29    58    1
    63    30    59    1
    64    30    60    1
    65    31    61    1
