
     RDKit          3D

 72 77  0  0  0  0  0  0  0  0999 V2000
    4.9298    6.9237   -1.9082 C   0  0  0  0  0  0  0  0  0  0  0  0
    4.2938    5.6138   -1.8571 N   0  0  0  0  0  0  0  0  0  0  0  0
    4.5015    5.0981   -0.5280 C   0  0  1  0  0  0  0  0  0  0  0  0
    3.8919    6.0021    0.5160 C   0  0  0  0  0  0  0  0  0  0  0  0
    3.9278    3.7221   -0.3852 C   0  0  0  0  0  0  0  0  0  0  0  0
    4.0242    3.1270    0.7182 O   0  0  0  0  0  0  0  0  0  0  0  0
    3.2691    3.0551   -1.4669 N   0  0  0  0  0  0  0  0  0  0  0  0
    2.7351    1.7393   -1.2875 C   0  0  0  0  0  0  0  0  0  0  0  0
    3.4742    0.6026   -1.5310 C   0  0  0  0  0  0  0  0  0  0  0  0
    2.9339   -0.6531   -1.3487 C   0  0  0  0  0  0  0  0  0  0  0  0
    1.6294   -0.7524   -0.9143 C   0  0  0  0  0  0  0  0  0  0  0  0
    0.9732   -2.0355   -0.6883 C   0  0  0  0  0  0  0  0  0  0  0  0
    1.0091   -2.8066    0.4532 C   0  0  0  0  0  0  0  0  0  0  0  0
    1.7147   -2.5110    1.7144 C   0  0  0  0  0  0  0  0  0  0  0  0
    1.1091   -1.9876    2.8230 C   0  0  0  0  0  0  0  0  0  0  0  0
    2.0587   -1.8564    3.7758 N   0  0  0  0  0  0  0  0  0  0  0  0
    3.2438   -2.2803    3.3040 C   0  0  0  0  0  0  0  0  0  0  0  0
    3.0065   -2.6782    2.0337 N   0  0  0  0  0  0  0  0  0  0  0  0
    4.0027   -3.2167    1.1310 C   0  0  0  0  0  0  0  0  0  0  0  0
    0.2618   -3.8900    0.1770 N   0  0  0  0  0  0  0  0  0  0  0  0
   -0.2399   -3.8421   -1.0706 C   0  0  0  0  0  0  0  0  0  0  0  0
   -1.0528   -4.7011   -1.8129 C   0  0  0  0  0  0  0  0  0  0  0  0
   -1.4249   -4.4003   -3.1055 C   0  0  0  0  0  0  0  0  0  0  0  0
   -2.2904   -5.2963   -3.9242 C   0  0  0  0  0  0  0  0  0  0  0  0
   -0.9603   -3.2151   -3.6344 C   0  0  0  0  0  0  0  0  0  0  0  0
   -0.1617   -2.3978   -2.8692 C   0  0  0  0  0  0  0  0  0  0  0  0
    0.2089   -2.6893   -1.5928 N   0  0  0  0  0  0  0  0  0  0  0  0
    0.9001    0.3814   -0.6739 C   0  0  0  0  0  0  0  0  0  0  0  0
   -0.4755    0.2642   -0.2092 C   0  0  0  0  0  0  0  0  0  0  0  0
   -1.6006    0.1870    0.1730 C   0  0  0  0  0  0  0  0  0  0  0  0
   -2.9536    0.0796    0.6360 C   0  0  0  0  0  0  0  0  0  0  0  0
   -3.8085   -0.8034    0.0521 C   0  0  0  0  0  0  0  0  0  0  0  0
   -5.1289   -0.9157    0.4976 C   0  0  0  0  0  0  0  0  0  0  0  0
   -5.5643   -0.1196    1.5415 C   0  0  0  0  0  0  0  0  0  0  0  0
   -6.8597   -0.2214    1.9877 C   0  0  0  0  0  0  0  0  0  0  0  0
   -7.8046   -1.1910    1.3500 C   0  0  0  0  0  0  0  0  0  0  0  0
   -7.2915    0.5428    2.9962 N   0  0  0  0  0  0  0  0  0  0  0  0
   -6.4922    1.4217    3.5997 C   0  0  0  0  0  0  0  0  0  0  0  0
   -5.1785    1.5549    3.1792 C   0  0  0  0  0  0  0  0  0  0  0  0
   -4.7119    0.7791    2.1435 C   0  0  0  0  0  0  0  0  0  0  0  0
   -3.4331    0.8618    1.6839 C   0  0  0  0  0  0  0  0  0  0  0  0
    1.4685    1.5837   -0.8657 N   0  0  0  0  0  0  0  0  0  0  0  0
    6.0213    6.7322   -1.7042 H   0  0  0  0  0  0  0  0  0  0  0  0
    4.8809    7.3874   -2.8999 H   0  0  0  0  0  0  0  0  0  0  0  0
    4.5119    7.5849   -1.1227 H   0  0  0  0  0  0  0  0  0  0  0  0
    4.7928    4.9963   -2.5362 H   0  0  0  0  0  0  0  0  0  0  0  0
    5.6070    5.0826   -0.3322 H   0  0  0  0  0  0  0  0  0  0  0  0
    2.9600    6.4954    0.1369 H   0  0  0  0  0  0  0  0  0  0  0  0
    3.6291    5.3612    1.3946 H   0  0  0  0  0  0  0  0  0  0  0  0
    4.6288    6.7665    0.8058 H   0  0  0  0  0  0  0  0  0  0  0  0
    3.2078    3.5783   -2.3651 H   0  0  0  0  0  0  0  0  0  0  0  0
    4.4901    0.7268   -1.8686 H   0  0  0  0  0  0  0  0  0  0  0  0
    3.5146   -1.5542   -1.5420 H   0  0  0  0  0  0  0  0  0  0  0  0
    0.0839   -1.7183    2.9554 H   0  0  0  0  0  0  0  0  0  0  0  0
    4.2005   -2.3004    3.8320 H   0  0  0  0  0  0  0  0  0  0  0  0
    4.4475   -2.4718    0.4601 H   0  0  0  0  0  0  0  0  0  0  0  0
    3.4930   -3.9852    0.4959 H   0  0  0  0  0  0  0  0  0  0  0  0
    4.8114   -3.6667    1.7459 H   0  0  0  0  0  0  0  0  0  0  0  0
   -1.4026   -5.6240   -1.3727 H   0  0  0  0  0  0  0  0  0  0  0  0
   -1.5732   -5.8954   -4.5589 H   0  0  0  0  0  0  0  0  0  0  0  0
   -3.0073   -4.7467   -4.5554 H   0  0  0  0  0  0  0  0  0  0  0  0
   -2.7575   -6.0290   -3.2484 H   0  0  0  0  0  0  0  0  0  0  0  0
   -1.2499   -2.9708   -4.6532 H   0  0  0  0  0  0  0  0  0  0  0  0
    0.1884   -1.4726   -3.3142 H   0  0  0  0  0  0  0  0  0  0  0  0
   -3.4500   -1.4094   -0.7535 H   0  0  0  0  0  0  0  0  0  0  0  0
   -5.8280   -1.6002    0.0601 H   0  0  0  0  0  0  0  0  0  0  0  0
   -8.8286   -1.0170    1.7336 H   0  0  0  0  0  0  0  0  0  0  0  0
   -7.5372   -2.2361    1.5438 H   0  0  0  0  0  0  0  0  0  0  0  0
   -7.7944   -0.9427    0.2526 H   0  0  0  0  0  0  0  0  0  0  0  0
   -6.8778    2.0274    4.4176 H   0  0  0  0  0  0  0  0  0  0  0  0
   -4.5401    2.2712    3.6773 H   0  0  0  0  0  0  0  0  0  0  0  0
   -2.7574    1.5511    2.1361 H   0  0  0  0  0  0  0  0  0  0  0  0
  1  2  1  0
  2  3  1  0
  3  4  1  0
  3  5  1  0
  5  6  2  0
  5  7  1  0
  7  8  1  0
  8  9  2  0
  9 10  1  0
 10 11  2  0
 11 12  1  0
 12 13  2  0
 13 14  1  0
 14 15  2  0
 15 16  1  0
 16 17  2  0
 17 18  1  0
 18 19  1  0
 13 20  1  0
 20 21  2  0
 21 22  1  0
 22 23  2  0
 23 24  1  0
 23 25  1  0
 25 26  2  0
 26 27  1  0
 11 28  1  0
 28 29  1  0
 29 30  3  0
 30 31  1  0
 31 32  2  0
 32 33  1  0
 33 34  2  0
 34 35  1  0
 35 36  1  0
 35 37  2  0
 37 38  1  0
 38 39  2  0
 39 40  1  0
 40 41  2  0
 28 42  2  0
 42  8  1  0
 27 12  1  0
 41 31  1  0
 18 14  1  0
 27 21  1  0
 40 34  1  0
  1 43  1  0
  1 44  1  0
  1 45  1  0
  2 46  1  0
  3 47  1  1
  4 48  1  0
  4 49  1  0
  4 50  1  0
  7 51  1  0
  9 52  1  0
 10 53  1  0
 15 54  1  0
 17 55  1  0
 19 56  1  0
 19 57  1  0
 19 58  1  0
 22 59  1  0
 24 60  1  0
 24 61  1  0
 24 62  1  0
 25 63  1  0
 26 64  1  0
 32 65  1  0
 33 66  1  0
 36 67  1  0
 36 68  1  0
 36 69  1  0
 38 70  1  0
 39 71  1  0
 41 72  1  0
M  END
$$$$
