@<TRIPOS>MOLECULE
*****
 72 77 0 0 0
SMALL
GASTEIGER

@<TRIPOS>ATOM
      1 C           4.9298    6.9237   -1.9082 C.3     1  UNL1       -0.0151
      2 N           4.2938    5.6138   -1.8571 N.3     1  UNL1       -0.3089
      3 C           4.5015    5.0981   -0.5280 C.3     1  UNL1        0.0820
      4 C           3.8919    6.0021    0.5160 C.3     1  UNL1       -0.0411
      5 C           3.9278    3.7221   -0.3852 C.2     1  UNL1        0.2350
      6 O           4.0242    3.1270    0.7182 O.2     1  UNL1       -0.2737
      7 N           3.2691    3.0551   -1.4669 N.am    1  UNL1       -0.2691
      8 C           2.7351    1.7393   -1.2875 C.ar    1  UNL1        0.1263
      9 C           3.4742    0.6026   -1.5310 C.ar    1  UNL1       -0.0208
     10 C           2.9339   -0.6531   -1.3487 C.ar    1  UNL1       -0.0466
     11 C           1.6294   -0.7524   -0.9143 C.ar    1  UNL1        0.0350
     12 C           0.9732   -2.0355   -0.6883 C.ar    1  UNL1        0.0851
     13 C           1.0091   -2.8066    0.4532 C.ar    1  UNL1        0.1155
     14 C           1.7147   -2.5110    1.7144 C.ar    1  UNL1        0.0888
     15 C           1.1091   -1.9876    2.8230 C.ar    1  UNL1        0.0549
     16 N           2.0587   -1.8564    3.7758 N.ar    1  UNL1       -0.2434
     17 C           3.2438   -2.2803    3.3040 C.ar    1  UNL1        0.0961
     18 N           3.0065   -2.6782    2.0337 N.ar    1  UNL1       -0.3320
     19 C           4.0027   -3.2167    1.1310 C.3     1  UNL1        0.0133
     20 N           0.2618   -3.8900    0.1770 N.ar    1  UNL1       -0.2256
     21 C          -0.2399   -3.8421   -1.0706 C.ar    1  UNL1        0.1390
     22 C          -1.0528   -4.7011   -1.8129 C.ar    1  UNL1       -0.0158
     23 C          -1.4249   -4.4003   -3.1055 C.ar    1  UNL1       -0.0456
     24 C          -2.2904   -5.2963   -3.9242 C.3     1  UNL1       -0.0395
     25 C          -0.9603   -3.2151   -3.6344 C.ar    1  UNL1       -0.0421
     26 C          -0.1617   -2.3978   -2.8692 C.ar    1  UNL1        0.0120
     27 N           0.2089   -2.6893   -1.5928 N.ar    1  UNL1       -0.2986
     28 C           0.9001    0.3814   -0.6739 C.ar    1  UNL1        0.1250
     29 C          -0.4755    0.2642   -0.2092 C.1     1  UNL1       -0.0404
     30 C          -1.6006    0.1870    0.1730 C.1     1  UNL1       -0.0595
     31 C          -2.9536    0.0796    0.6360 C.ar    1  UNL1        0.0259
     32 C          -3.8085   -0.8034    0.0521 C.ar    1  UNL1       -0.0457
     33 C          -5.1289   -0.9157    0.4976 C.ar    1  UNL1       -0.0512
     34 C          -5.5643   -0.1196    1.5415 C.ar    1  UNL1        0.0032
     35 C          -6.8597   -0.2214    1.9877 C.ar    1  UNL1        0.0459
     36 C          -7.8046   -1.1910    1.3500 C.3     1  UNL1       -0.0218
     37 N          -7.2915    0.5428    2.9962 N.ar    1  UNL1       -0.2595
     38 C          -6.4922    1.4217    3.5997 C.ar    1  UNL1        0.0285
     39 C          -5.1785    1.5549    3.1792 C.ar    1  UNL1       -0.0358
     40 C          -4.7119    0.7791    2.1435 C.ar    1  UNL1       -0.0136
     41 C          -3.4331    0.8618    1.6839 C.ar    1  UNL1       -0.0385
     42 N           1.4685    1.5837   -0.8657 N.ar    1  UNL1       -0.2229
     43 H           6.0213    6.7322   -1.7042 H       1  UNL1        0.0388
     44 H           4.8809    7.3874   -2.8999 H       1  UNL1        0.0388
     45 H           4.5119    7.5849   -1.1227 H       1  UNL1        0.0388
     46 H           4.7928    4.9963   -2.5362 H       1  UNL1        0.1223
     47 H           5.6070    5.0826   -0.3322 H       1  UNL1        0.0554
     48 H           2.9600    6.4954    0.1369 H       1  UNL1        0.0249
     49 H           3.6291    5.3612    1.3946 H       1  UNL1        0.0249
     50 H           4.6288    6.7665    0.8058 H       1  UNL1        0.0249
     51 H           3.2078    3.5783   -2.3651 H       1  UNL1        0.1563
     52 H           4.4901    0.7268   -1.8686 H       1  UNL1        0.0652
     53 H           3.5146   -1.5542   -1.5420 H       1  UNL1        0.0626
     54 H           0.0839   -1.7183    2.9554 H       1  UNL1        0.0852
     55 H           4.2005   -2.3004    3.8320 H       1  UNL1        0.1029
     56 H           4.4475   -2.4718    0.4601 H       1  UNL1        0.0456
     57 H           3.4930   -3.9852    0.4959 H       1  UNL1        0.0456
     58 H           4.8114   -3.6667    1.7459 H       1  UNL1        0.0456
     59 H          -1.4026   -5.6240   -1.3727 H       1  UNL1        0.0657
     60 H          -1.5732   -5.8954   -4.5589 H       1  UNL1        0.0278
     61 H          -3.0073   -4.7467   -4.5554 H       1  UNL1        0.0278
     62 H          -2.7575   -6.0290   -3.2484 H       1  UNL1        0.0278
     63 H          -1.2499   -2.9708   -4.6532 H       1  UNL1        0.0635
     64 H           0.1884   -1.4726   -3.3142 H       1  UNL1        0.0813
     65 H          -3.4500   -1.4094   -0.7535 H       1  UNL1        0.0630
     66 H          -5.8280   -1.6002    0.0601 H       1  UNL1        0.0625
     67 H          -8.8286   -1.0170    1.7336 H       1  UNL1        0.0293
     68 H          -7.5372   -2.2361    1.5438 H       1  UNL1        0.0293
     69 H          -7.7944   -0.9427    0.2526 H       1  UNL1        0.0293
     70 H          -6.8778    2.0274    4.4176 H       1  UNL1        0.0830
     71 H          -4.5401    2.2712    3.6773 H       1  UNL1        0.0639
     72 H          -2.7574    1.5511    2.1361 H       1  UNL1        0.0636
@<TRIPOS>BOND
     1     1     2    1
     2     2     3    1
     3     3     4    1
     4     3     5    1
     5     5     6    2
     6     5     7   am
     7     7     8    1
     8     8     9   ar
     9     9    10   ar
    10    10    11   ar
    11    11    12    1
    12    12    13   ar
    13    13    14    1
    14    14    15   ar
    15    15    16   ar
    16    16    17   ar
    17    17    18   ar
    18    18    19    1
    19    13    20   ar
    20    20    21   ar
    21    21    22   ar
    22    22    23   ar
    23    23    24    1
    24    23    25   ar
    25    25    26   ar
    26    26    27   ar
    27    11    28   ar
    28    28    29    1
    29    29    30    3
    30    30    31    1
    31    31    32   ar
    32    32    33   ar
    33    33    34   ar
    34    34    35   ar
    35    35    36    1
    36    35    37   ar
    37    37    38   ar
    38    38    39   ar
    39    39    40   ar
    40    40    41   ar
    41    28    42   ar
    42    42     8   ar
    43    27    12   ar
    44    41    31   ar
    45    18    14   ar
    46    27    21   ar
    47    40    34   ar
    48     1    43    1
    49     1    44    1
    50     1    45    1
    51     2    46    1
    52     3    47    1
    53     4    48    1
    54     4    49    1
    55     4    50    1
    56     7    51    1
    57     9    52    1
    58    10    53    1
    59    15    54    1
    60    17    55    1
    61    19    56    1
    62    19    57    1
    63    19    58    1
    64    22    59    1
    65    24    60    1
    66    24    61    1
    67    24    62    1
    68    25    63    1
    69    26    64    1
    70    32    65    1
    71    33    66    1
    72    36    67    1
    73    36    68    1
    74    36    69    1
    75    38    70    1
    76    39    71    1
    77    41    72    1
