@<TRIPOS>MOLECULE
*****
 53 56 0 0 0
SMALL
GASTEIGER

@<TRIPOS>ATOM
      1 C          -5.6296   -2.2454   -0.1306 C.3     1  UNL1        0.0376
      2 O          -5.0026   -1.2683   -0.7830 O.3     1  UNL1       -0.3718
      3 C          -4.2583   -0.3172   -0.2141 C.3     1  UNL1        0.0984
      4 C          -3.0962   -0.7092    0.5961 C.ar    1  UNL1       -0.0096
      5 C          -3.2829   -1.4419    1.7694 C.ar    1  UNL1       -0.0203
      6 C          -2.2184   -1.8335    2.5285 C.ar    1  UNL1        0.1272
      7 F          -2.3970   -2.5544    3.6822 F       1  UNL1       -0.2054
      8 C          -0.9327   -1.5314    2.1832 C.ar    1  UNL1        0.0153
      9 C          -0.7058   -0.8146    1.0419 C.ar    1  UNL1        0.1241
     10 O           0.5706   -0.4924    0.6636 O.3     1  UNL1       -0.4873
     11 C           1.6600   -0.8955    1.4450 C.3     1  UNL1        0.1147
     12 C           2.9482   -0.4444    0.8581 C.ar    1  UNL1       -0.0097
     13 C           3.6483   -1.2430   -0.0537 C.ar    1  UNL1       -0.0534
     14 C           4.8395   -0.8164   -0.5910 C.ar    1  UNL1       -0.0372
     15 C           5.3735    0.4030   -0.2480 C.ar    1  UNL1        0.0517
     16 C           4.6987    1.2237    0.6597 C.ar    1  UNL1       -0.0009
     17 C           5.2121    2.4492    1.0201 C.ar    1  UNL1       -0.0475
     18 C           6.4161    2.9008    0.4889 C.ar    1  UNL1        0.0036
     19 C           7.0430    2.0634   -0.3969 C.ar    1  UNL1        0.2515
     20 O           8.1481    2.4450   -0.9032 O.2     1  UNL1       -0.2677
     21 N           6.5276    0.8603   -0.7433 N.ar    1  UNL1       -0.3112
     22 C           7.2607    0.0536   -1.6811 C.3     1  UNL1        0.0153
     23 C           3.4998    0.7657    1.1843 C.ar    1  UNL1       -0.0462
     24 C          -1.7780   -0.4199    0.2761 C.ar    1  UNL1       -0.0138
     25 C          -5.0164    0.8370    0.4465 C.3     1  UNL1        0.0040
     26 C          -6.0281    1.4061   -0.4884 C.3     1  UNL1        0.0506
     27 O          -5.3564    2.0136   -1.5578 O.3     1  UNL1       -0.3795
     28 C          -4.7898    0.9717   -2.2905 C.3     1  UNL1        0.0506
     29 C          -3.6283    0.4353   -1.4372 C.3     1  UNL1        0.0040
     30 H          -6.2064   -2.8531   -0.9112 H       1  UNL1        0.0524
     31 H          -6.4010   -1.9493    0.6033 H       1  UNL1        0.0524
     32 H          -4.9945   -3.0191    0.3530 H       1  UNL1        0.0524
     33 H          -4.2810   -1.6924    2.0964 H       1  UNL1        0.0650
     34 H          -0.0986   -1.8517    2.8000 H       1  UNL1        0.0683
     35 H           1.5169   -0.4978    2.4754 H       1  UNL1        0.0748
     36 H           1.7227   -2.0024    1.5619 H       1  UNL1        0.0748
     37 H           3.1937   -2.1900   -0.2939 H       1  UNL1        0.0622
     38 H           5.3485   -1.4560   -1.2869 H       1  UNL1        0.0638
     39 H           4.6860    3.0721    1.7182 H       1  UNL1        0.0626
     40 H           6.8373    3.8496    0.7525 H       1  UNL1        0.0672
     41 H           7.8692   -0.7268   -1.1557 H       1  UNL1        0.0457
     42 H           6.6214   -0.3990   -2.4708 H       1  UNL1        0.0457
     43 H           7.9840    0.6965   -2.2207 H       1  UNL1        0.0457
     44 H           2.9825    1.4197    1.8943 H       1  UNL1        0.0628
     45 H          -1.5728    0.1578   -0.6402 H       1  UNL1        0.0658
     46 H          -5.4114    0.5564    1.4350 H       1  UNL1        0.0319
     47 H          -4.2444    1.6224    0.6311 H       1  UNL1        0.0319
     48 H          -6.7066    0.6567   -0.9358 H       1  UNL1        0.0561
     49 H          -6.6408    2.1642   -0.0001 H       1  UNL1        0.0561
     50 H          -5.4778    0.1479   -2.4824 H       1  UNL1        0.0561
     51 H          -4.3066    1.3836   -3.2026 H       1  UNL1        0.0561
     52 H          -2.9842   -0.2229   -2.0112 H       1  UNL1        0.0319
     53 H          -3.1616    1.3326   -0.9958 H       1  UNL1        0.0319
@<TRIPOS>BOND
     1     1     2    1
     2     2     3    1
     3     3     4    1
     4     4     5   ar
     5     5     6   ar
     6     6     7    1
     7     6     8   ar
     8     8     9   ar
     9     9    10    1
    10    10    11    1
    11    11    12    1
    12    12    13   ar
    13    13    14   ar
    14    14    15   ar
    15    15    16   ar
    16    16    17   ar
    17    17    18   ar
    18    18    19   ar
    19    19    20    2
    20    19    21   ar
    21    21    22    1
    22    16    23   ar
    23     9    24   ar
    24     3    25    1
    25    25    26    1
    26    26    27    1
    27    27    28    1
    28    28    29    1
    29    29     3    1
    30    24     4   ar
    31    23    12   ar
    32    21    15   ar
    33     1    30    1
    34     1    31    1
    35     1    32    1
    36     5    33    1
    37     8    34    1
    38    11    35    1
    39    11    36    1
    40    13    37    1
    41    14    38    1
    42    17    39    1
    43    18    40    1
    44    22    41    1
    45    22    42    1
    46    22    43    1
    47    23    44    1
    48    24    45    1
    49    25    46    1
    50    25    47    1
    51    26    48    1
    52    26    49    1
    53    28    50    1
    54    28    51    1
    55    29    52    1
    56    29    53    1
