
     RDKit          3D

 41 40  0  0  0  0  0  0  0  0999 V2000
    3.7394    3.0828    0.4412 N   0  0  0  0  0  0  0  0  0  0  0  0
    4.2343    1.7408    0.5204 C   0  0  0  0  0  0  0  0  0  0  0  0
    3.2870    0.6940   -0.0092 C   0  0  0  0  0  0  0  0  0  0  0  0
    2.0027    0.7078    0.7499 C   0  0  0  0  0  0  0  0  0  0  0  0
    1.0443   -0.2961    0.2731 C   0  0  0  0  0  0  0  0  0  0  0  0
    1.7827   -0.7596   -0.6341 O   0  0  0  0  0  0  0  0  0  0  0  0
   -0.2495   -0.5806    0.7333 N   0  0  0  0  0  0  0  0  0  0  0  0
   -1.0555   -1.6581    0.0932 C   0  0  0  0  0  0  0  0  0  0  0  0
   -1.3218   -2.7262    1.0820 C   0  0  0  0  0  0  0  0  0  0  0  0
   -2.1815   -4.1970    0.6858 S   0  0  0  0  0  0  0  0  0  0  0  0
   -3.8794   -4.2281    0.2877 C   0  0  0  0  0  0  0  0  0  0  0  0
   -4.1917   -3.6944   -0.9509 O   0  0  0  0  0  0  0  0  0  0  0  0
   -2.2194   -1.0408   -0.5823 C   0  0  0  0  0  0  0  0  0  0  0  0
   -3.3013   -0.9846   -1.2845 O   0  0  0  0  0  0  0  0  0  0  0  0
   -2.3119    0.4155   -0.4352 N   0  0  0  0  0  0  0  0  0  0  0  0
   -3.4076    1.1852   -1.0433 C   0  0  0  0  0  0  0  0  0  0  0  0
   -3.2389    2.6214   -0.7329 C   0  0  0  0  0  0  0  0  0  0  0  0
   -2.2712    3.3291   -0.0030 O   0  0  0  0  0  0  0  0  0  0  0  0
   -4.1873    3.2519   -1.2633 O   0  0  0  0  0  0  0  0  0  0  0  0
    5.5416    1.6922   -0.1899 C   0  0  0  0  0  0  0  0  0  0  0  0
    6.1139    0.4229   -0.1722 O   0  0  0  0  0  0  0  0  0  0  0  0
    6.1733    2.5967   -0.7773 O   0  0  0  0  0  0  0  0  0  0  0  0
    3.9113    3.6621    1.2914 H   0  0  0  0  0  0  0  0  0  0  0  0
    2.8229    3.2109    0.0024 H   0  0  0  0  0  0  0  0  0  0  0  0
    4.3845    1.5120    1.5961 H   0  0  0  0  0  0  0  0  0  0  0  0
    3.0308    0.8828   -1.0831 H   0  0  0  0  0  0  0  0  0  0  0  0
    3.8211   -0.2739    0.0243 H   0  0  0  0  0  0  0  0  0  0  0  0
    2.1950    0.5176    1.8250 H   0  0  0  0  0  0  0  0  0  0  0  0
    1.5350    1.7095    0.5584 H   0  0  0  0  0  0  0  0  0  0  0  0
   -0.5479    0.0230    1.5311 H   0  0  0  0  0  0  0  0  0  0  0  0
   -0.3918   -2.0576   -0.6942 H   0  0  0  0  0  0  0  0  0  0  0  0
   -0.3327   -3.0662    1.5688 H   0  0  0  0  0  0  0  0  0  0  0  0
   -1.8845   -2.2028    1.9530 H   0  0  0  0  0  0  0  0  0  0  0  0
   -4.5436   -3.6610    1.0108 H   0  0  0  0  0  0  0  0  0  0  0  0
   -4.2696   -5.2985    0.2289 H   0  0  0  0  0  0  0  0  0  0  0  0
   -5.1458   -3.9225   -1.1199 H   0  0  0  0  0  0  0  0  0  0  0  0
   -1.6100    1.0068    0.1083 H   0  0  0  0  0  0  0  0  0  0  0  0
   -3.4748    1.0245   -2.1325 H   0  0  0  0  0  0  0  0  0  0  0  0
   -4.3480    0.7855   -0.5653 H   0  0  0  0  0  0  0  0  0  0  0  0
   -2.2699    4.3447   -0.1631 H   0  0  0  0  0  0  0  0  0  0  0  0
    7.0155    0.2283   -0.5981 H   0  0  0  0  0  0  0  0  0  0  0  0
  1  2  1  0
  2  3  1  0
  3  4  1  0
  4  5  1  0
  5  6  2  0
  5  7  1  0
  7  8  1  0
  8  9  1  0
  9 10  1  0
 10 11  1  0
 11 12  1  0
  8 13  1  0
 13 14  2  0
 13 15  1  0
 15 16  1  0
 16 17  1  0
 17 18  1  0
 17 19  2  0
  2 20  1  0
 20 21  1  0
 20 22  2  0
  1 23  1  0
  1 24  1  0
  2 25  1  0
  3 26  1  0
  3 27  1  0
  4 28  1  0
  4 29  1  0
  7 30  1  0
  8 31  1  0
  9 32  1  0
  9 33  1  0
 11 34  1  0
 11 35  1  0
 12 36  1  0
 15 37  1  0
 16 38  1  0
 16 39  1  0
 18 40  1  0
 21 41  1  0
M  END
$$$$
