@<TRIPOS>MOLECULE
*****
 41 40 0 0 0
SMALL
GASTEIGER

@<TRIPOS>ATOM
      1 N           3.7394    3.0828    0.4412 N.3     1  UNK1       -0.3184
      2 C           4.2343    1.7408    0.5204 C.3     1  UNK1        0.1037
      3 C           3.2870    0.6940   -0.0092 C.3     1  UNK1       -0.0191
      4 C           2.0027    0.7078    0.7499 C.3     1  UNK1        0.0259
      5 C           1.0443   -0.2961    0.2731 C.2     1  UNK1        0.2137
      6 O           1.7827   -0.7596   -0.6341 O.2     1  UNK1       -0.2758
      7 N          -0.2495   -0.5806    0.7333 N.am    1  UNK1       -0.3033
      8 C          -1.0555   -1.6581    0.0932 C.3     1  UNK1        0.1084
      9 C          -1.3218   -2.7262    1.0820 C.3     1  UNK1        0.0228
     10 S          -2.1815   -4.1970    0.6858 S.3     1  UNK1       -0.1308
     11 C          -3.8794   -4.2281    0.2877 C.3     1  UNK1        0.0899
     12 O          -4.1917   -3.6944   -0.9509 O.3     1  UNK1       -0.3845
     13 C          -2.2194   -1.0408   -0.5823 C.2     1  UNK1        0.2346
     14 O          -3.3013   -0.9846   -1.2845 O.2     1  UNK1       -0.2737
     15 N          -2.3119    0.4155   -0.4352 N.am    2  GLY2       -0.3033
     16 CA         -3.4076    1.1852   -1.0433 C.3     2  GLY2        0.1089
     17 C          -3.2389    2.6214   -0.7329 C.2     2  GLY2        0.3221
     18 O          -2.2712    3.3291   -0.0030 O.3     2  GLY2       -0.4795
     19 OXT        -4.1873    3.2519   -1.2633 O.2     2  GLY2       -0.2492
     20 C           5.5416    1.6922   -0.1899 C.2     1  UNK1        0.3217
     21 O           6.1139    0.4229   -0.1722 O.3     1  UNK1       -0.4795
     22 O           6.1733    2.5967   -0.7773 O.2     1  UNK1       -0.2493
     23 H           3.9113    3.6621    1.2914 H       1  UNK1        0.1190
     24 H           2.8229    3.2109    0.0024 H       1  UNK1        0.1190
     25 H           4.3845    1.5120    1.5961 H       1  UNK1        0.0574
     26 H           3.0308    0.8828   -1.0831 H       1  UNK1        0.0290
     27 H           3.8211   -0.2739    0.0243 H       1  UNK1        0.0290
     28 H           2.1950    0.5176    1.8250 H       1  UNK1        0.0359
     29 H           1.5350    1.7095    0.5584 H       1  UNK1        0.0359
     30 H          -0.5479    0.0230    1.5311 H       1  UNK1        0.1495
     31 H          -0.3918   -2.0576   -0.6942 H       1  UNK1        0.0603
     32 H          -0.3327   -3.0662    1.5688 H       1  UNK1        0.0400
     33 H          -1.8845   -2.2028    1.9530 H       1  UNK1        0.0400
     34 H          -4.5436   -3.6610    1.0108 H       1  UNK1        0.0673
     35 H          -4.2696   -5.2985    0.2289 H       1  UNK1        0.0673
     36 H          -5.1458   -3.9225   -1.1199 H       1  UNK1        0.2105
     37 H          -1.6100    1.0068    0.1083 H       2  GLY2        0.1493
     38 HA1        -3.4748    1.0245   -2.1325 H       2  GLY2        0.0577
     39 HA2        -4.3480    0.7855   -0.5653 H       2  GLY2        0.0577
     40 H          -2.2699    4.3447   -0.1631 H       2  GLY2        0.2951
     41 H           7.0155    0.2283   -0.5981 H       1  UNK1        0.2951
@<TRIPOS>BOND
     1     1     2    1
     2     2     3    1
     3     3     4    1
     4     4     5    1
     5     5     6    2
     6     5     7   am
     7     7     8    1
     8     8     9    1
     9     9    10    1
    10    10    11    1
    11    11    12    1
    12     8    13    1
    13    13    14    2
    14    13    15   am
    15    15    16    1
    16    16    17    1
    17    17    18    1
    18    17    19    2
    19     2    20    1
    20    20    21    1
    21    20    22    2
    22     1    23    1
    23     1    24    1
    24     2    25    1
    25     3    26    1
    26     3    27    1
    27     4    28    1
    28     4    29    1
    29     7    30    1
    30     8    31    1
    31     9    32    1
    32     9    33    1
    33    11    34    1
    34    11    35    1
    35    12    36    1
    36    15    37    1
    37    16    38    1
    38    16    39    1
    39    18    40    1
    40    21    41    1
