
     RDKit          3D

 45 47  0  0  0  0  0  0  0  0999 V2000
   -7.5478   -2.0325    0.4409 C   0  0  0  0  0  0  0  0  0  0  0  0
   -6.6091   -0.9579    0.0837 N   0  0  0  0  0  0  0  0  0  0  0  0
   -5.2245   -1.0662    0.3576 C   0  0  0  0  0  0  0  0  0  0  0  0
   -4.8441   -2.1288    0.9217 O   0  0  0  0  0  0  0  0  0  0  0  0
   -4.2511   -0.0329    0.0250 C   0  0  0  0  0  0  0  0  0  0  0  0
   -4.6168    1.1339   -0.5953 C   0  0  0  0  0  0  0  0  0  0  0  0
   -3.6595    2.0809   -0.8925 C   0  0  0  0  0  0  0  0  0  0  0  0
   -2.3229    1.8751   -0.5742 C   0  0  0  0  0  0  0  0  0  0  0  0
   -1.3903    2.9520   -0.9402 C   0  0  0  0  0  0  0  0  0  0  0  0
   -1.9480    0.7088    0.0475 C   0  0  0  0  0  0  0  0  0  0  0  0
   -0.5770    0.4876    0.3765 N   0  0  0  0  0  0  0  0  0  0  0  0
    0.0975   -0.5273   -0.1203 N   0  0  0  0  0  0  0  0  0  0  0  0
    1.4014   -0.7466    0.1764 C   0  0  0  0  0  0  0  0  0  0  0  0
    2.1315    0.0747    1.0227 C   0  0  0  0  0  0  0  0  0  0  0  0
    3.3960   -0.0465    1.3733 O   0  0  0  0  0  0  0  0  0  0  0  0
    4.5458   -0.6776    1.3189 C   0  0  0  0  0  0  0  0  0  0  0  0
    5.2289   -0.8492   -0.0102 C   0  0  0  0  0  0  0  0  0  0  0  0
    6.1534    0.1148   -0.4089 C   0  0  0  0  0  0  0  0  0  0  0  0
    6.7692    0.0324   -1.6317 C   0  0  0  0  0  0  0  0  0  0  0  0
    6.5142   -0.9873   -2.5168 C   0  0  0  0  0  0  0  0  0  0  0  0
    7.1074   -1.0953   -3.7341 F   0  0  0  0  0  0  0  0  0  0  0  0
    5.6035   -1.9362   -2.1211 C   0  0  0  0  0  0  0  0  0  0  0  0
    4.9632   -1.8691   -0.8728 C   0  0  0  0  0  0  0  0  0  0  0  0
    4.1027   -2.8479   -0.5008 F   0  0  0  0  0  0  0  0  0  0  0  0
    1.3969    1.1622    1.5516 C   0  0  0  0  0  0  0  0  0  0  0  0
    2.2282    2.3986    2.7336 Br  0  0  0  0  0  0  0  0  0  0  0  0
    0.0888    1.3163    1.2068 C   0  0  0  0  0  0  0  0  0  0  0  0
   -0.5589    2.3099    1.6993 O   0  0  0  0  0  0  0  0  0  0  0  0
   -2.9152   -0.2234    0.3361 C   0  0  0  0  0  0  0  0  0  0  0  0
   -7.0679   -3.0258    0.3241 H   0  0  0  0  0  0  0  0  0  0  0  0
   -7.7897   -1.8821    1.5126 H   0  0  0  0  0  0  0  0  0  0  0  0
   -8.4864   -1.9354   -0.1473 H   0  0  0  0  0  0  0  0  0  0  0  0
   -6.9810   -0.1205   -0.3717 H   0  0  0  0  0  0  0  0  0  0  0  0
   -5.6519    1.3284   -0.8592 H   0  0  0  0  0  0  0  0  0  0  0  0
   -3.9805    2.9837   -1.3781 H   0  0  0  0  0  0  0  0  0  0  0  0
   -1.6819    3.2841   -1.9751 H   0  0  0  0  0  0  0  0  0  0  0  0
   -0.3496    2.6296   -1.0208 H   0  0  0  0  0  0  0  0  0  0  0  0
   -1.5494    3.8679   -0.3183 H   0  0  0  0  0  0  0  0  0  0  0  0
    1.9099   -1.5819   -0.2464 H   0  0  0  0  0  0  0  0  0  0  0  0
    5.3089   -0.1952    2.0199 H   0  0  0  0  0  0  0  0  0  0  0  0
    4.5281   -1.7475    1.7243 H   0  0  0  0  0  0  0  0  0  0  0  0
    6.3593    0.9209    0.2816 H   0  0  0  0  0  0  0  0  0  0  0  0
    7.4920    0.7934   -1.9366 H   0  0  0  0  0  0  0  0  0  0  0  0
    5.3423   -2.7673   -2.7462 H   0  0  0  0  0  0  0  0  0  0  0  0
   -2.6659   -1.1746    0.8346 H   0  0  0  0  0  0  0  0  0  0  0  0
  1  2  1  0
  2  3  1  0
  3  4  2  0
  3  5  1  0
  5  6  2  0
  6  7  1  0
  7  8  2  0
  8  9  1  0
  8 10  1  0
 10 11  1  0
 11 12  1  0
 12 13  2  0
 13 14  1  0
 14 15  1  0
 15 16  1  0
 16 17  1  0
 17 18  2  0
 18 19  1  0
 19 20  2  0
 20 21  1  0
 20 22  1  0
 22 23  2  0
 23 24  1  0
 14 25  2  0
 25 26  1  0
 25 27  1  0
 27 28  2  0
 10 29  2  0
 29  5  1  0
 27 11  1  0
 23 17  1  0
  1 30  1  0
  1 31  1  0
  1 32  1  0
  2 33  1  0
  6 34  1  0
  7 35  1  0
  9 36  1  0
  9 37  1  0
  9 38  1  0
 13 39  1  0
 16 40  1  0
 16 41  1  0
 18 42  1  0
 19 43  1  0
 22 44  1  0
 29 45  1  0
M  END
$$$$
