@<TRIPOS>MOLECULE
*****
 45 47 0 0 0
SMALL
GASTEIGER

@<TRIPOS>ATOM
      1 C          -7.5478   -2.0325    0.4409 C.3     1  UNL1        0.0004
      2 N          -6.6091   -0.9579    0.0837 N.am    1  UNL1       -0.3144
      3 C          -5.2245   -1.0662    0.3576 C.2     1  UNL1        0.2439
      4 O          -4.8441   -2.1288    0.9217 O.2     1  UNL1       -0.2702
      5 C          -4.2511   -0.0329    0.0250 C.ar    1  UNL1        0.0387
      6 C          -4.6168    1.1339   -0.5953 C.ar    1  UNL1       -0.0493
      7 C          -3.6595    2.0809   -0.8925 C.ar    1  UNL1       -0.0561
      8 C          -2.3229    1.8751   -0.5742 C.ar    1  UNL1       -0.0249
      9 C          -1.3903    2.9520   -0.9402 C.3     1  UNL1       -0.0377
     10 C          -1.9480    0.7088    0.0475 C.ar    1  UNL1        0.0729
     11 N          -0.5770    0.4876    0.3765 N.ar    1  UNL1       -0.1954
     12 N           0.0975   -0.5273   -0.1203 N.ar    1  UNL1       -0.1680
     13 C           1.4014   -0.7466    0.1764 C.ar    1  UNL1        0.0913
     14 C           2.1315    0.0747    1.0227 C.ar    1  UNL1        0.1599
     15 O           3.3960   -0.0465    1.3733 O.3     1  UNL1       -0.4844
     16 C           4.5458   -0.6776    1.3189 C.3     1  UNL1        0.1174
     17 C           5.2289   -0.8492   -0.0102 C.ar    1  UNL1        0.0250
     18 C           6.1534    0.1148   -0.4089 C.ar    1  UNL1       -0.0499
     19 C           6.7692    0.0324   -1.6317 C.ar    1  UNL1       -0.0259
     20 C           6.5142   -0.9873   -2.5168 C.ar    1  UNL1        0.1261
     21 F           7.1074   -1.0953   -3.7341 F       1  UNL1       -0.2054
     22 C           5.6035   -1.9362   -2.1211 C.ar    1  UNL1        0.0092
     23 C           4.9632   -1.8691   -0.8728 C.ar    1  UNL1        0.1325
     24 F           4.1027   -2.8479   -0.5008 F       1  UNL1       -0.2050
     25 C           1.3969    1.1622    1.5516 C.ar    1  UNL1        0.1270
     26 BR          2.2282    2.3986    2.7336 Br      1  UNL1       -0.0408
     27 C           0.0888    1.3163    1.2068 C.ar    1  UNL1        0.2895
     28 O          -0.5589    2.3099    1.6993 O.2     1  UNL1       -0.2645
     29 C          -2.9152   -0.2234    0.3361 C.ar    1  UNL1       -0.0238
     30 H          -7.0679   -3.0258    0.3241 H       1  UNL1        0.0426
     31 H          -7.7897   -1.8821    1.5126 H       1  UNL1        0.0426
     32 H          -8.4864   -1.9354   -0.1473 H       1  UNL1        0.0426
     33 H          -6.9810   -0.1205   -0.3717 H       1  UNL1        0.1487
     34 H          -5.6519    1.3284   -0.8592 H       1  UNL1        0.0625
     35 H          -3.9805    2.9837   -1.3781 H       1  UNL1        0.0621
     36 H          -1.6819    3.2841   -1.9751 H       1  UNL1        0.0278
     37 H          -0.3496    2.6296   -1.0208 H       1  UNL1        0.0278
     38 H          -1.5494    3.8679   -0.3183 H       1  UNL1        0.0278
     39 H           1.9099   -1.5819   -0.2464 H       1  UNL1        0.0885
     40 H           5.3089   -0.1952    2.0199 H       1  UNL1        0.0749
     41 H           4.5281   -1.7475    1.7243 H       1  UNL1        0.0749
     42 H           6.3593    0.9209    0.2816 H       1  UNL1        0.0623
     43 H           7.4920    0.7934   -1.9366 H       1  UNL1        0.0646
     44 H           5.3423   -2.7673   -2.7462 H       1  UNL1        0.0675
     45 H          -2.6659   -1.1746    0.8346 H       1  UNL1        0.0646
@<TRIPOS>BOND
     1     1     2    1
     2     2     3   am
     3     3     4    2
     4     3     5    1
     5     5     6   ar
     6     6     7   ar
     7     7     8   ar
     8     8     9    1
     9     8    10   ar
    10    10    11    1
    11    11    12   ar
    12    12    13   ar
    13    13    14   ar
    14    14    15    1
    15    15    16    1
    16    16    17    1
    17    17    18   ar
    18    18    19   ar
    19    19    20   ar
    20    20    21    1
    21    20    22   ar
    22    22    23   ar
    23    23    24    1
    24    14    25   ar
    25    25    26    1
    26    25    27   ar
    27    27    28    2
    28    10    29   ar
    29    29     5   ar
    30    27    11   ar
    31    23    17   ar
    32     1    30    1
    33     1    31    1
    34     1    32    1
    35     2    33    1
    36     6    34    1
    37     7    35    1
    38     9    36    1
    39     9    37    1
    40     9    38    1
    41    13    39    1
    42    16    40    1
    43    16    41    1
    44    18    42    1
    45    19    43    1
    46    22    44    1
    47    29    45    1
