
     RDKit          3D

 30 30  0  0  0  0  0  0  0  0999 V2000
    5.6998   -0.9876   -0.5145 O   0  0  0  0  0  0  0  0  0  0  0  0
    4.4303   -0.6675   -0.0275 C   0  0  0  0  0  0  0  0  0  0  0  0
    3.7397   -1.5814    0.4899 O   0  0  0  0  0  0  0  0  0  0  0  0
    4.0281    0.7498   -0.1785 C   0  0  0  0  0  0  0  0  0  0  0  0
    2.6948    0.9896    0.3553 N   0  0  0  0  0  0  0  0  0  0  0  0
    1.6511    0.2408   -0.2514 C   0  0  0  0  0  0  0  0  0  0  0  0
    1.8278   -0.5811   -1.1867 O   0  0  0  0  0  0  0  0  0  0  0  0
    0.3359    0.4663    0.2630 N   0  0  0  0  0  0  0  0  0  0  0  0
   -0.9556   -0.0876   -0.0801 C   0  0  0  0  0  0  0  0  0  0  0  0
   -1.9459    0.9723   -0.4973 C   0  0  0  0  0  0  0  0  0  0  0  0
   -3.0884    0.2626   -1.2050 C   0  0  0  0  0  0  0  0  0  0  0  0
   -3.5016   -0.9248   -0.3925 C   0  0  0  0  0  0  0  0  0  0  0  0
   -3.0140   -0.8669    1.0221 C   0  0  0  0  0  0  0  0  0  0  0  0
   -1.5285   -0.7818    1.1389 C   0  0  0  0  0  0  0  0  0  0  0  0
    6.0917   -1.8901   -0.2178 H   0  0  0  0  0  0  0  0  0  0  0  0
    4.1683    1.1215   -1.2042 H   0  0  0  0  0  0  0  0  0  0  0  0
    4.7246    1.3662    0.4616 H   0  0  0  0  0  0  0  0  0  0  0  0
    2.4948    1.6609    1.1305 H   0  0  0  0  0  0  0  0  0  0  0  0
    0.1719    1.1358    1.0289 H   0  0  0  0  0  0  0  0  0  0  0  0
   -0.8674   -0.8121   -0.8906 H   0  0  0  0  0  0  0  0  0  0  0  0
   -2.3045    1.4585    0.4389 H   0  0  0  0  0  0  0  0  0  0  0  0
   -1.5025    1.7737   -1.1243 H   0  0  0  0  0  0  0  0  0  0  0  0
   -3.9071    0.9481   -1.4670 H   0  0  0  0  0  0  0  0  0  0  0  0
   -2.6677   -0.0904   -2.1876 H   0  0  0  0  0  0  0  0  0  0  0  0
   -4.6038   -0.9580   -0.3549 H   0  0  0  0  0  0  0  0  0  0  0  0
   -3.0962   -1.8741   -0.8424 H   0  0  0  0  0  0  0  0  0  0  0  0
   -3.4872   -0.0122    1.5517 H   0  0  0  0  0  0  0  0  0  0  0  0
   -3.3548   -1.8026    1.5231 H   0  0  0  0  0  0  0  0  0  0  0  0
   -1.1854   -0.1551    2.0115 H   0  0  0  0  0  0  0  0  0  0  0  0
   -1.0480   -1.7870    1.2068 H   0  0  0  0  0  0  0  0  0  0  0  0
  1  2  1  0
  2  3  2  0
  2  4  1  0
  4  5  1  0
  5  6  1  0
  6  7  2  0
  6  8  1  0
  8  9  1  0
  9 10  1  0
 10 11  1  0
 11 12  1  0
 12 13  1  0
 13 14  1  0
 14  9  1  0
  1 15  1  0
  4 16  1  0
  4 17  1  0
  5 18  1  0
  8 19  1  0
  9 20  1  0
 10 21  1  0
 10 22  1  0
 11 23  1  0
 11 24  1  0
 12 25  1  0
 12 26  1  0
 13 27  1  0
 13 28  1  0
 14 29  1  0
 14 30  1  0
M  END
$$$$
