@<TRIPOS>MOLECULE
*****
 30 30 0 0 0
SMALL
GASTEIGER

@<TRIPOS>ATOM
      1 O           5.6998   -0.9876   -0.5145 O.3     1  UNL1       -0.4795
      2 C           4.4303   -0.6675   -0.0275 C.2     1  UNL1        0.3221
      3 O           3.7397   -1.5814    0.4899 O.2     1  UNL1       -0.2492
      4 C           4.0281    0.7498   -0.1785 C.3     1  UNL1        0.1102
      5 N           2.6948    0.9896    0.3553 N.am    1  UNL1       -0.2889
      6 C           1.6511    0.2408   -0.2514 C.2     1  UNL1        0.3003
      7 O           1.8278   -0.5811   -1.1867 O.2     1  UNL1       -0.2528
      8 N           0.3359    0.4663    0.2630 N.am    1  UNL1       -0.2966
      9 C          -0.9556   -0.0876   -0.0801 C.3     1  UNL1        0.0246
     10 C          -1.9459    0.9723   -0.4973 C.3     1  UNL1       -0.0345
     11 C          -3.0884    0.2626   -1.2050 C.3     1  UNL1       -0.0514
     12 C          -3.5016   -0.9248   -0.3925 C.3     1  UNL1       -0.0529
     13 C          -3.0140   -0.8669    1.0221 C.3     1  UNL1       -0.0514
     14 C          -1.5285   -0.7818    1.1389 C.3     1  UNL1       -0.0345
     15 H           6.0917   -1.8901   -0.2178 H       1  UNL1        0.2951
     16 H           4.1683    1.1215   -1.2042 H       1  UNL1        0.0578
     17 H           4.7246    1.3662    0.4616 H       1  UNL1        0.0578
     18 H           2.4948    1.6609    1.1305 H       1  UNL1        0.1508
     19 H           0.1719    1.1358    1.0289 H       1  UNL1        0.1505
     20 H          -0.8674   -0.8121   -0.8906 H       1  UNL1        0.0499
     21 H          -2.3045    1.4585    0.4389 H       1  UNL1        0.0283
     22 H          -1.5025    1.7737   -1.1243 H       1  UNL1        0.0283
     23 H          -3.9071    0.9481   -1.4670 H       1  UNL1        0.0266
     24 H          -2.6677   -0.0904   -2.1876 H       1  UNL1        0.0266
     25 H          -4.6038   -0.9580   -0.3549 H       1  UNL1        0.0265
     26 H          -3.0962   -1.8741   -0.8424 H       1  UNL1        0.0265
     27 H          -3.4872   -0.0122    1.5517 H       1  UNL1        0.0266
     28 H          -3.3548   -1.8026    1.5231 H       1  UNL1        0.0266
     29 H          -1.1854   -0.1551    2.0115 H       1  UNL1        0.0283
     30 H          -1.0480   -1.7870    1.2068 H       1  UNL1        0.0283
@<TRIPOS>BOND
     1     1     2    1
     2     2     3    2
     3     2     4    1
     4     4     5    1
     5     5     6   am
     6     6     7    2
     7     6     8   am
     8     8     9    1
     9     9    10    1
    10    10    11    1
    11    11    12    1
    12    12    13    1
    13    13    14    1
    14    14     9    1
    15     1    15    1
    16     4    16    1
    17     4    17    1
    18     5    18    1
    19     8    19    1
    20     9    20    1
    21    10    21    1
    22    10    22    1
    23    11    23    1
    24    11    24    1
    25    12    25    1
    26    12    26    1
    27    13    27    1
    28    13    28    1
    29    14    29    1
    30    14    30    1
