
     RDKit          3D

 55 58  0  0  0  0  0  0  0  0999 V2000
    8.7085   -1.0292    0.9463 O   0  0  0  0  0  0  0  0  0  0  0  0
    8.1710   -0.6507   -0.1363 C   0  0  0  0  0  0  0  0  0  0  0  0
    8.3242   -1.4359   -1.2856 O   0  0  0  0  0  0  0  0  0  0  0  0
    7.4104    0.6166   -0.0965 C   0  0  0  0  0  0  0  0  0  0  0  0
    6.3841    0.5730    1.0385 C   0  0  1  0  0  0  0  0  0  0  0  0
    5.5956    1.8335    1.1274 C   0  0  0  0  0  0  0  0  0  0  0  0
    4.1079    1.5539    1.0776 C   0  0  0  0  0  0  0  0  0  0  0  0
    3.7177    0.8846   -0.2547 C   0  0  2  0  0  0  0  0  0  0  0  0
    2.2859    0.5356   -0.1437 C   0  0  0  0  0  0  0  0  0  0  0  0
    1.8330   -0.5153    0.5887 C   0  0  0  0  0  0  0  0  0  0  0  0
    0.4965   -0.7898    0.6396 C   0  0  0  0  0  0  0  0  0  0  0  0
   -0.4497   -0.0370   -0.0314 C   0  0  0  0  0  0  0  0  0  0  0  0
   -1.8197   -0.3573    0.0187 N   0  0  0  0  0  0  0  0  0  0  0  0
   -2.3781   -1.2093   -0.9939 C   0  0  0  0  0  0  0  0  0  0  0  0
   -1.5759   -1.6046   -1.8748 O   0  0  0  0  0  0  0  0  0  0  0  0
   -3.7879   -1.5796   -0.9823 C   0  0  0  0  0  0  0  0  0  0  0  0
   -4.3534   -2.2958   -1.9837 N   0  0  0  0  0  0  0  0  0  0  0  0
   -5.6236   -2.4623   -1.6776 N   0  0  0  0  0  0  0  0  0  0  0  0
   -5.8633   -1.8527   -0.4834 C   0  0  0  0  0  0  0  0  0  0  0  0
   -7.1429   -1.8439    0.1396 N   0  0  0  0  0  0  0  0  0  0  0  0
   -7.9905   -0.7232    0.1713 C   0  0  0  0  0  0  0  0  0  0  0  0
   -9.3019   -0.8275    0.5506 C   0  0  0  0  0  0  0  0  0  0  0  0
  -10.1238    0.3021    0.5977 C   0  0  0  0  0  0  0  0  0  0  0  0
   -9.5715    1.5363    0.2469 C   0  0  0  0  0  0  0  0  0  0  0  0
  -10.3620    2.6338    0.2961 F   0  0  0  0  0  0  0  0  0  0  0  0
   -8.2578    1.6562   -0.1361 C   0  0  0  0  0  0  0  0  0  0  0  0
   -7.7753    2.8667   -0.4626 F   0  0  0  0  0  0  0  0  0  0  0  0
   -7.4846    0.5244   -0.1685 C   0  0  0  0  0  0  0  0  0  0  0  0
   -4.7146   -1.3399   -0.1183 O   0  0  0  0  0  0  0  0  0  0  0  0
    0.0140    1.0223   -0.7687 C   0  0  0  0  0  0  0  0  0  0  0  0
    1.3698    1.3339   -0.8467 C   0  0  0  0  0  0  0  0  0  0  0  0
    4.5955   -0.3087   -0.4052 C   0  0  0  0  0  0  0  0  0  0  0  0
    5.4810   -0.6083    0.7595 C   0  0  0  0  0  0  0  0  0  0  0  0
    8.4532   -2.4460   -1.2219 H   0  0  0  0  0  0  0  0  0  0  0  0
    6.9379    0.8571   -1.0590 H   0  0  0  0  0  0  0  0  0  0  0  0
    8.0802    1.4773    0.1762 H   0  0  0  0  0  0  0  0  0  0  0  0
    6.9086    0.3319    1.9948 H   0  0  0  0  0  0  0  0  0  0  0  0
    5.8300    2.5179    0.3174 H   0  0  0  0  0  0  0  0  0  0  0  0
    5.7646    2.3091    2.1231 H   0  0  0  0  0  0  0  0  0  0  0  0
    3.8481    0.8124    1.8630 H   0  0  0  0  0  0  0  0  0  0  0  0
    3.5842    2.5061    1.2352 H   0  0  0  0  0  0  0  0  0  0  0  0
    3.8707    1.6411   -1.0550 H   0  0  0  0  0  0  0  0  0  0  0  0
    2.5875   -1.1153    1.1216 H   0  0  0  0  0  0  0  0  0  0  0  0
    0.1742   -1.6307    1.2286 H   0  0  0  0  0  0  0  0  0  0  0  0
   -2.4415   -0.0005    0.7516 H   0  0  0  0  0  0  0  0  0  0  0  0
   -7.4609   -2.7260    0.5919 H   0  0  0  0  0  0  0  0  0  0  0  0
   -9.7177   -1.7861    0.8203 H   0  0  0  0  0  0  0  0  0  0  0  0
  -11.1583    0.2391    0.8984 H   0  0  0  0  0  0  0  0  0  0  0  0
   -6.4366    0.6364   -0.4717 H   0  0  0  0  0  0  0  0  0  0  0  0
   -0.6852    1.6452   -1.3054 H   0  0  0  0  0  0  0  0  0  0  0  0
    1.6734    2.1810   -1.4438 H   0  0  0  0  0  0  0  0  0  0  0  0
    4.0292   -1.2478   -0.6267 H   0  0  0  0  0  0  0  0  0  0  0  0
    5.2318   -0.1672   -1.3253 H   0  0  0  0  0  0  0  0  0  0  0  0
    6.0988   -1.5117    0.4712 H   0  0  0  0  0  0  0  0  0  0  0  0
    4.9096   -0.9252    1.6359 H   0  0  0  0  0  0  0  0  0  0  0  0
  1  2  2  0
  2  3  1  0
  2  4  1  0
  4  5  1  0
  5  6  1  0
  6  7  1  0
  7  8  1  0
  8  9  1  0
  9 10  2  0
 10 11  1  0
 11 12  2  0
 12 13  1  0
 13 14  1  0
 14 15  2  0
 14 16  1  0
 16 17  2  0
 17 18  1  0
 18 19  2  0
 19 20  1  0
 20 21  1  0
 21 22  2  0
 22 23  1  0
 23 24  2  0
 24 25  1  0
 24 26  1  0
 26 27  1  0
 26 28  2  0
 19 29  1  0
 12 30  1  0
 30 31  2  0
  8 32  1  0
 32 33  1  0
 33  5  1  0
 31  9  1  0
 29 16  1  0
 28 21  1  0
  3 34  1  0
  4 35  1  0
  4 36  1  0
  5 37  1  1
  6 38  1  0
  6 39  1  0
  7 40  1  0
  7 41  1  0
  8 42  1  6
 10 43  1  0
 11 44  1  0
 13 45  1  0
 20 46  1  0
 22 47  1  0
 23 48  1  0
 28 49  1  0
 30 50  1  0
 31 51  1  0
 32 52  1  0
 32 53  1  0
 33 54  1  0
 33 55  1  0
M  END
$$$$
