@<TRIPOS>MOLECULE
*****
 55 58 0 0 0
SMALL
GASTEIGER

@<TRIPOS>ATOM
      1 O           8.7085   -1.0292    0.9463 O.2     1  UNL1       -0.2510
      2 C           8.1710   -0.6507   -0.1363 C.2     1  UNL1        0.3050
      3 O           8.3242   -1.4359   -1.2856 O.3     1  UNL1       -0.4806
      4 C           7.4104    0.6166   -0.0965 C.3     1  UNL1        0.0476
      5 C           6.3841    0.5730    1.0385 C.3     1  UNL1       -0.0310
      6 C           5.5956    1.8335    1.1274 C.3     1  UNL1       -0.0492
      7 C           4.1079    1.5539    1.0776 C.3     1  UNL1       -0.0459
      8 C           3.7177    0.8846   -0.2547 C.3     1  UNL1       -0.0158
      9 C           2.2859    0.5356   -0.1437 C.ar    1  UNL1       -0.0442
     10 C           1.8330   -0.5153    0.5887 C.ar    1  UNL1       -0.0566
     11 C           0.4965   -0.7898    0.6396 C.ar    1  UNL1       -0.0402
     12 C          -0.4497   -0.0370   -0.0314 C.ar    1  UNL1        0.0338
     13 N          -1.8197   -0.3573    0.0187 N.am    1  UNL1       -0.2776
     14 C          -2.3781   -1.2093   -0.9939 C.2     1  UNL1        0.3050
     15 O          -1.5759   -1.6046   -1.8748 O.2     1  UNL1       -0.2646
     16 C          -3.7879   -1.5796   -0.9823 C.ar    1  UNL1        0.3052
     17 N          -4.3534   -2.2958   -1.9837 N.ar    1  UNL1       -0.1010
     18 N          -5.6236   -2.4623   -1.6776 N.ar    1  UNL1       -0.0919
     19 C          -5.8633   -1.8527   -0.4834 C.ar    1  UNL1        0.3125
     20 N          -7.1429   -1.8439    0.1396 N.pl3   1  UNL1       -0.2675
     21 C          -7.9905   -0.7232    0.1713 C.ar    1  UNL1        0.0378
     22 C          -9.3019   -0.8275    0.5506 C.ar    1  UNL1       -0.0375
     23 C         -10.1238    0.3021    0.5977 C.ar    1  UNL1       -0.0218
     24 C          -9.5715    1.5363    0.2469 C.ar    1  UNL1        0.1585
     25 F         -10.3620    2.6338    0.2961 F       1  UNL1       -0.2025
     26 C          -8.2578    1.6562   -0.1361 C.ar    1  UNL1        0.1601
     27 F          -7.7753    2.8667   -0.4626 F       1  UNL1       -0.2024
     28 C          -7.4846    0.5244   -0.1685 C.ar    1  UNL1       -0.0023
     29 O          -4.7146   -1.3399   -0.1183 O.2     1  UNL1       -0.4006
     30 C           0.0140    1.0223   -0.7687 C.ar    1  UNL1       -0.0402
     31 C           1.3698    1.3339   -0.8467 C.ar    1  UNL1       -0.0566
     32 C           4.5955   -0.3087   -0.4052 C.3     1  UNL1       -0.0459
     33 C           5.4810   -0.6083    0.7595 C.3     1  UNL1       -0.0492
     34 H           8.4532   -2.4460   -1.2219 H       1  UNL1        0.2951
     35 H           6.9379    0.8571   -1.0590 H       1  UNL1        0.0380
     36 H           8.0802    1.4773    0.1762 H       1  UNL1        0.0380
     37 H           6.9086    0.3319    1.9948 H       1  UNL1        0.0306
     38 H           5.8300    2.5179    0.3174 H       1  UNL1        0.0268
     39 H           5.7646    2.3091    2.1231 H       1  UNL1        0.0268
     40 H           3.8481    0.8124    1.8630 H       1  UNL1        0.0271
     41 H           3.5842    2.5061    1.2352 H       1  UNL1        0.0271
     42 H           3.8707    1.6411   -1.0550 H       1  UNL1        0.0349
     43 H           2.5875   -1.1153    1.1216 H       1  UNL1        0.0621
     44 H           0.1742   -1.6307    1.2286 H       1  UNL1        0.0636
     45 H          -2.4415   -0.0005    0.7516 H       1  UNL1        0.1553
     46 H          -7.4609   -2.7260    0.5919 H       1  UNL1        0.1566
     47 H          -9.7177   -1.7861    0.8203 H       1  UNL1        0.0637
     48 H         -11.1583    0.2391    0.8984 H       1  UNL1        0.0648
     49 H          -6.4366    0.6364   -0.4717 H       1  UNL1        0.0666
     50 H          -0.6852    1.6452   -1.3054 H       1  UNL1        0.0636
     51 H           1.6734    2.1810   -1.4438 H       1  UNL1        0.0621
     52 H           4.0292   -1.2478   -0.6267 H       1  UNL1        0.0271
     53 H           5.2318   -0.1672   -1.3253 H       1  UNL1        0.0271
     54 H           6.0988   -1.5117    0.4712 H       1  UNL1        0.0268
     55 H           4.9096   -0.9252    1.6359 H       1  UNL1        0.0268
@<TRIPOS>BOND
     1     1     2    2
     2     2     3    1
     3     2     4    1
     4     4     5    1
     5     5     6    1
     6     6     7    1
     7     7     8    1
     8     8     9    1
     9     9    10   ar
    10    10    11   ar
    11    11    12   ar
    12    12    13    1
    13    13    14   am
    14    14    15    2
    15    14    16    1
    16    16    17   ar
    17    17    18   ar
    18    18    19   ar
    19    19    20    1
    20    20    21    1
    21    21    22   ar
    22    22    23   ar
    23    23    24   ar
    24    24    25    1
    25    24    26   ar
    26    26    27    1
    27    26    28   ar
    28    19    29   ar
    29    12    30   ar
    30    30    31   ar
    31     8    32    1
    32    32    33    1
    33    33     5    1
    34    31     9   ar
    35    29    16   ar
    36    28    21   ar
    37     3    34    1
    38     4    35    1
    39     4    36    1
    40     5    37    1
    41     6    38    1
    42     6    39    1
    43     7    40    1
    44     7    41    1
    45     8    42    1
    46    10    43    1
    47    11    44    1
    48    13    45    1
    49    20    46    1
    50    22    47    1
    51    23    48    1
    52    28    49    1
    53    30    50    1
    54    31    51    1
    55    32    52    1
    56    32    53    1
    57    33    54    1
    58    33    55    1
