@<TRIPOS>MOLECULE
*****
 61 64 0 0 0
SMALL
GASTEIGER

@<TRIPOS>ATOM
      1 C           2.0072    2.8099    0.2876 C.3     1  UNL1        0.0154
      2 N           1.7741    1.3917    0.1267 N.ar    1  UNL1       -0.3083
      3 C           2.7531    0.5074   -0.0503 C.ar    1  UNL1        0.2732
      4 O           3.9449    0.9070   -0.0818 O.2     1  UNL1       -0.2657
      5 C           2.4833   -0.8222   -0.1977 C.ar    1  UNL1        0.1105
      6 C           3.5245   -1.8608   -0.3982 C.3     1  UNL1        0.0201
      7 C           4.8844   -1.2999   -0.4208 C.ar    1  UNL1       -0.0414
      8 C           5.4823   -0.8768   -1.5858 C.ar    1  UNL1       -0.0574
      9 C           6.7544   -0.3600   -1.5547 C.ar    1  UNL1       -0.0466
     10 C           7.4300   -0.2644   -0.3679 C.ar    1  UNL1        0.0647
     11 C           8.7800    0.2772   -0.2885 C.2     1  UNL1        0.3081
     12 N           9.6028   -0.1275    0.6103 N.2     1  UNL1       -0.0994
     13 N           9.1502    1.2706   -1.2447 N.pl3   1  UNL1       -0.2466
     14 C           6.8313   -0.6866    0.7894 C.ar    1  UNL1       -0.0466
     15 C           5.5706   -1.2001    0.7676 C.ar    1  UNL1       -0.0574
     16 N           1.2042   -1.2346   -0.1618 N.ar    1  UNL1       -0.2444
     17 C           0.1931   -0.3674    0.0153 C.ar    1  UNL1        0.0881
     18 C          -1.1231   -0.8030    0.0507 C.ar    1  UNL1       -0.0301
     19 C          -2.1634    0.0726    0.2306 C.ar    1  UNL1       -0.0308
     20 C          -3.5442   -0.4412    0.2635 C.3     1  UNL1        0.0664
     21 C          -3.9886   -0.3497    1.7282 C.3     1  UNL1       -0.0474
     22 C          -3.5096   -1.8950   -0.1814 C.3     1  UNL1       -0.0474
     23 C          -4.4830    0.3509   -0.5366 C.2     1  UNL1        0.2255
     24 O          -4.0492    1.3166   -1.1940 O.2     1  UNL1       -0.2747
     25 N          -5.8515    0.0433   -0.5752 N.am    1  UNL1       -0.3008
     26 C          -6.8541    0.7892   -1.3621 C.3     1  UNL1        0.0147
     27 C          -8.1305    0.7350   -0.5603 C.3     1  UNL1       -0.0357
     28 C          -7.9585   -0.3368    0.4654 C.3     1  UNL1       -0.0357
     29 C          -6.6424   -0.9823    0.0672 C.3     1  UNL1        0.0147
     30 C          -1.8737    1.4142    0.3785 C.ar    1  UNL1       -0.0555
     31 C          -0.5641    1.8274    0.3407 C.ar    1  UNL1       -0.0357
     32 C           0.4880    0.9482    0.1592 C.ar    1  UNL1        0.0700
     33 H           1.5873    3.3613   -0.5667 H       1  UNL1        0.0457
     34 H           1.6235    3.1764    1.2675 H       1  UNL1        0.0457
     35 H           3.1119    2.9937    0.2979 H       1  UNL1        0.0457
     36 H           3.3306   -2.3327   -1.3845 H       1  UNL1        0.0378
     37 H           3.4749   -2.6303    0.4044 H       1  UNL1        0.0378
     38 H           4.9478   -0.9499   -2.5412 H       1  UNL1        0.0621
     39 H           7.2350   -0.0235   -2.4680 H       1  UNL1        0.0626
     40 H           9.2966   -0.8459    1.2815 H       1  UNL1        0.3633
     41 H           9.6122    2.1639   -0.9207 H       1  UNL1        0.2884
     42 H           8.9456    1.0705   -2.2435 H       1  UNL1        0.2884
     43 H           7.3265   -0.6316    1.7598 H       1  UNL1        0.0626
     44 H           5.1038   -1.5350    1.7075 H       1  UNL1        0.0621
     45 H          -1.2523   -1.8847   -0.0712 H       1  UNL1        0.0642
     46 H          -3.1886    0.1271    2.3686 H       1  UNL1        0.0243
     47 H          -4.8554    0.3382    1.8478 H       1  UNL1        0.0243
     48 H          -4.1581   -1.3334    2.1650 H       1  UNL1        0.0243
     49 H          -2.9396   -2.0181   -1.1239 H       1  UNL1        0.0243
     50 H          -3.0409   -2.5562    0.5714 H       1  UNL1        0.0243
     51 H          -4.5403   -2.2717   -0.4570 H       1  UNL1        0.0243
     52 H          -7.0400    0.3101   -2.3288 H       1  UNL1        0.0464
     53 H          -6.5622    1.8583   -1.4490 H       1  UNL1        0.0464
     54 H          -9.0065    0.4682   -1.1942 H       1  UNL1        0.0281
     55 H          -8.3703    1.6989   -0.0727 H       1  UNL1        0.0281
     56 H          -7.8437    0.0692    1.4749 H       1  UNL1        0.0281
     57 H          -8.7299   -1.1310    0.4246 H       1  UNL1        0.0281
     58 H          -6.8789   -1.7987   -0.6751 H       1  UNL1        0.0464
     59 H          -6.2216   -1.4079    0.9725 H       1  UNL1        0.0464
     60 H          -2.7144    2.0716    0.5231 H       1  UNL1        0.0621
     61 H          -0.3752    2.8903    0.4605 H       1  UNL1        0.0639
@<TRIPOS>BOND
     1     1     2    1
     2     2     3   ar
     3     3     4    2
     4     3     5   ar
     5     5     6    1
     6     6     7    1
     7     7     8   ar
     8     8     9   ar
     9     9    10   ar
    10    10    11    1
    11    11    12    2
    12    11    13    1
    13    10    14   ar
    14    14    15   ar
    15     5    16   ar
    16    16    17   ar
    17    17    18   ar
    18    18    19   ar
    19    19    20    1
    20    20    21    1
    21    20    22    1
    22    20    23    1
    23    23    24    2
    24    23    25   am
    25    25    26    1
    26    26    27    1
    27    27    28    1
    28    28    29    1
    29    19    30   ar
    30    30    31   ar
    31    31    32   ar
    32    32     2   ar
    33    15     7   ar
    34    32    17   ar
    35    29    25    1
    36     1    33    1
    37     1    34    1
    38     1    35    1
    39     6    36    1
    40     6    37    1
    41     8    38    1
    42     9    39    1
    43    12    40    1
    44    13    41    1
    45    13    42    1
    46    14    43    1
    47    15    44    1
    48    18    45    1
    49    21    46    1
    50    21    47    1
    51    21    48    1
    52    22    49    1
    53    22    50    1
    54    22    51    1
    55    26    52    1
    56    26    53    1
    57    27    54    1
    58    27    55    1
    59    28    56    1
    60    28    57    1
    61    29    58    1
    62    29    59    1
    63    30    60    1
    64    31    61    1
