
     RDKit          3D

 61 64  0  0  0  0  0  0  0  0999 V2000
    2.0072    2.8099    0.2876 C   0  0  0  0  0  0  0  0  0  0  0  0
    1.7741    1.3917    0.1267 N   0  0  0  0  0  0  0  0  0  0  0  0
    2.7531    0.5074   -0.0503 C   0  0  0  0  0  0  0  0  0  0  0  0
    3.9449    0.9070   -0.0818 O   0  0  0  0  0  0  0  0  0  0  0  0
    2.4833   -0.8222   -0.1977 C   0  0  0  0  0  0  0  0  0  0  0  0
    3.5245   -1.8608   -0.3982 C   0  0  0  0  0  0  0  0  0  0  0  0
    4.8844   -1.2999   -0.4208 C   0  0  0  0  0  0  0  0  0  0  0  0
    5.4823   -0.8768   -1.5858 C   0  0  0  0  0  0  0  0  0  0  0  0
    6.7544   -0.3600   -1.5547 C   0  0  0  0  0  0  0  0  0  0  0  0
    7.4300   -0.2644   -0.3679 C   0  0  0  0  0  0  0  0  0  0  0  0
    8.7800    0.2772   -0.2885 C   0  0  0  0  0  0  0  0  0  0  0  0
    9.6028   -0.1275    0.6103 N   0  0  0  0  0  0  0  0  0  0  0  0
    9.1502    1.2706   -1.2447 N   0  0  0  0  0  0  0  0  0  0  0  0
    6.8313   -0.6866    0.7894 C   0  0  0  0  0  0  0  0  0  0  0  0
    5.5706   -1.2001    0.7676 C   0  0  0  0  0  0  0  0  0  0  0  0
    1.2042   -1.2346   -0.1618 N   0  0  0  0  0  0  0  0  0  0  0  0
    0.1931   -0.3674    0.0153 C   0  0  0  0  0  0  0  0  0  0  0  0
   -1.1231   -0.8030    0.0507 C   0  0  0  0  0  0  0  0  0  0  0  0
   -2.1634    0.0726    0.2306 C   0  0  0  0  0  0  0  0  0  0  0  0
   -3.5442   -0.4412    0.2635 C   0  0  0  0  0  0  0  0  0  0  0  0
   -3.9886   -0.3497    1.7282 C   0  0  0  0  0  0  0  0  0  0  0  0
   -3.5096   -1.8950   -0.1814 C   0  0  0  0  0  0  0  0  0  0  0  0
   -4.4830    0.3509   -0.5366 C   0  0  0  0  0  0  0  0  0  0  0  0
   -4.0492    1.3166   -1.1940 O   0  0  0  0  0  0  0  0  0  0  0  0
   -5.8515    0.0433   -0.5752 N   0  0  0  0  0  0  0  0  0  0  0  0
   -6.8541    0.7892   -1.3621 C   0  0  0  0  0  0  0  0  0  0  0  0
   -8.1305    0.7350   -0.5603 C   0  0  0  0  0  0  0  0  0  0  0  0
   -7.9585   -0.3368    0.4654 C   0  0  0  0  0  0  0  0  0  0  0  0
   -6.6424   -0.9823    0.0672 C   0  0  0  0  0  0  0  0  0  0  0  0
   -1.8737    1.4142    0.3785 C   0  0  0  0  0  0  0  0  0  0  0  0
   -0.5641    1.8274    0.3407 C   0  0  0  0  0  0  0  0  0  0  0  0
    0.4880    0.9482    0.1592 C   0  0  0  0  0  0  0  0  0  0  0  0
    1.5873    3.3613   -0.5667 H   0  0  0  0  0  0  0  0  0  0  0  0
    1.6235    3.1764    1.2675 H   0  0  0  0  0  0  0  0  0  0  0  0
    3.1119    2.9937    0.2979 H   0  0  0  0  0  0  0  0  0  0  0  0
    3.3306   -2.3327   -1.3845 H   0  0  0  0  0  0  0  0  0  0  0  0
    3.4749   -2.6303    0.4044 H   0  0  0  0  0  0  0  0  0  0  0  0
    4.9478   -0.9499   -2.5412 H   0  0  0  0  0  0  0  0  0  0  0  0
    7.2350   -0.0235   -2.4680 H   0  0  0  0  0  0  0  0  0  0  0  0
    9.2966   -0.8459    1.2815 H   0  0  0  0  0  0  0  0  0  0  0  0
    9.6122    2.1639   -0.9207 H   0  0  0  0  0  0  0  0  0  0  0  0
    8.9456    1.0705   -2.2435 H   0  0  0  0  0  0  0  0  0  0  0  0
    7.3265   -0.6316    1.7598 H   0  0  0  0  0  0  0  0  0  0  0  0
    5.1038   -1.5350    1.7075 H   0  0  0  0  0  0  0  0  0  0  0  0
   -1.2523   -1.8847   -0.0712 H   0  0  0  0  0  0  0  0  0  0  0  0
   -3.1886    0.1271    2.3686 H   0  0  0  0  0  0  0  0  0  0  0  0
   -4.8554    0.3382    1.8478 H   0  0  0  0  0  0  0  0  0  0  0  0
   -4.1581   -1.3334    2.1650 H   0  0  0  0  0  0  0  0  0  0  0  0
   -2.9396   -2.0181   -1.1239 H   0  0  0  0  0  0  0  0  0  0  0  0
   -3.0409   -2.5562    0.5714 H   0  0  0  0  0  0  0  0  0  0  0  0
   -4.5403   -2.2717   -0.4570 H   0  0  0  0  0  0  0  0  0  0  0  0
   -7.0400    0.3101   -2.3288 H   0  0  0  0  0  0  0  0  0  0  0  0
   -6.5622    1.8583   -1.4490 H   0  0  0  0  0  0  0  0  0  0  0  0
   -9.0065    0.4682   -1.1942 H   0  0  0  0  0  0  0  0  0  0  0  0
   -8.3703    1.6989   -0.0727 H   0  0  0  0  0  0  0  0  0  0  0  0
   -7.8437    0.0692    1.4749 H   0  0  0  0  0  0  0  0  0  0  0  0
   -8.7299   -1.1310    0.4246 H   0  0  0  0  0  0  0  0  0  0  0  0
   -6.8789   -1.7987   -0.6751 H   0  0  0  0  0  0  0  0  0  0  0  0
   -6.2216   -1.4079    0.9725 H   0  0  0  0  0  0  0  0  0  0  0  0
   -2.7144    2.0716    0.5231 H   0  0  0  0  0  0  0  0  0  0  0  0
   -0.3752    2.8903    0.4605 H   0  0  0  0  0  0  0  0  0  0  0  0
  1  2  1  0
  2  3  1  0
  3  4  2  0
  3  5  1  0
  5  6  1  0
  6  7  1  0
  7  8  2  0
  8  9  1  0
  9 10  2  0
 10 11  1  0
 11 12  2  3
 11 13  1  0
 10 14  1  0
 14 15  2  0
  5 16  2  0
 16 17  1  0
 17 18  2  0
 18 19  1  0
 19 20  1  0
 20 21  1  0
 20 22  1  0
 20 23  1  0
 23 24  2  0
 23 25  1  0
 25 26  1  0
 26 27  1  0
 27 28  1  0
 28 29  1  0
 19 30  2  0
 30 31  1  0
 31 32  2  0
 32  2  1  0
 15  7  1  0
 32 17  1  0
 29 25  1  0
  1 33  1  0
  1 34  1  0
  1 35  1  0
  6 36  1  0
  6 37  1  0
  8 38  1  0
  9 39  1  0
 12 40  1  0
 13 41  1  0
 13 42  1  0
 14 43  1  0
 15 44  1  0
 18 45  1  0
 21 46  1  0
 21 47  1  0
 21 48  1  0
 22 49  1  0
 22 50  1  0
 22 51  1  0
 26 52  1  0
 26 53  1  0
 27 54  1  0
 27 55  1  0
 28 56  1  0
 28 57  1  0
 29 58  1  0
 29 59  1  0
 30 60  1  0
 31 61  1  0
M  END
$$$$
