@<TRIPOS>MOLECULE
*****
 66 69 0 0 0
SMALL
GASTEIGER

@<TRIPOS>ATOM
      1 C          -0.0931    1.7414   -2.2660 C.3     1  UNL1       -0.0421
      2 C           0.4704    0.3401   -1.9790 C.3     1  UNL1        0.0515
      3 C           1.7697    0.4692   -1.2730 C.ar    1  UNL1       -0.0271
      4 C           2.3091   -0.5957   -0.5576 C.ar    1  UNL1       -0.0562
      5 C           3.5272   -0.5042    0.1098 C.ar    1  UNL1       -0.0537
      6 C           4.2492    0.6594    0.0832 C.ar    1  UNL1       -0.0177
      7 C           5.5262    0.8012    0.7651 C.ar    1  UNL1       -0.0114
      8 C           6.3983   -0.2525    0.9267 C.ar    1  UNL1       -0.0376
      9 C           7.6088   -0.0206    1.5827 C.ar    1  UNL1        0.0082
     10 N           7.9636    1.1782    2.0625 N.ar    1  UNL1       -0.3182
     11 C           9.2418    1.3769    2.7385 C.3     1  UNL1        0.0147
     12 C           7.1238    2.2113    1.9118 C.ar    1  UNL1        0.2516
     13 O           7.4765    3.3455    2.3742 O.2     1  UNL1       -0.2677
     14 C           5.9315    2.0282    1.2781 C.ar    1  UNL1        0.0107
     15 C           3.7253    1.7278   -0.6248 C.ar    1  UNL1       -0.0537
     16 C           2.5168    1.6335   -1.2857 C.ar    1  UNL1       -0.0562
     17 N          -0.5165   -0.4024   -1.1941 N.am    1  UNL1       -0.2605
     18 C          -0.8181    0.0608    0.1208 C.3     1  UNL1        0.0224
     19 C          -1.9569   -0.5958    0.8100 C.3     1  UNL1        0.0075
     20 C          -3.0035   -1.1621   -0.1003 C.3     1  UNL1        0.1428
     21 C          -3.6911   -0.2002   -0.9857 C.3     1  UNL1        0.0095
     22 C          -4.4545    0.9186   -0.4104 C.3     1  UNL1        0.0557
     23 C          -5.5944    0.4395    0.5000 C.3     1  UNL1       -0.0468
     24 C          -5.2380    1.5238   -1.6217 C.3     1  UNL1       -0.0468
     25 C          -3.6779    1.9431    0.1736 C.1     1  UNL1        0.0688
     26 N          -3.0074    2.8193    0.6590 N.1     1  UNL1       -0.1960
     27 C          -3.9043   -2.0956    0.6331 C.ar    1  UNL1       -0.0041
     28 C          -4.9094   -2.7655   -0.0488 C.ar    1  UNL1       -0.0548
     29 C          -5.7738   -3.6454    0.5626 C.ar    1  UNL1       -0.0614
     30 C          -5.6393   -3.8742    1.9065 C.ar    1  UNL1       -0.0617
     31 C          -4.6612   -3.2390    2.6382 C.ar    1  UNL1       -0.0614
     32 C          -3.7983   -2.3491    1.9842 C.ar    1  UNL1       -0.0548
     33 O          -2.2723   -2.0449   -0.9904 O.3     1  UNL1       -0.4388
     34 C          -1.1699   -1.5473   -1.6922 C.2     1  UNL1        0.4042
     35 O          -0.7702   -2.1054   -2.7438 O.2     1  UNL1       -0.2262
     36 H           0.1716    2.4462   -1.4342 H       1  UNL1        0.0251
     37 H          -1.1955    1.6623   -2.3607 H       1  UNL1        0.0251
     38 H           0.4076    2.1008   -3.1737 H       1  UNL1        0.0251
     39 H           0.5693   -0.1634   -2.9581 H       1  UNL1        0.0549
     40 H           1.7784   -1.5226   -0.5138 H       1  UNL1        0.0621
     41 H           3.9028   -1.3530    0.6502 H       1  UNL1        0.0624
     42 H           6.1529   -1.2335    0.5567 H       1  UNL1        0.0638
     43 H           8.3032   -0.8294    1.7219 H       1  UNL1        0.0810
     44 H           9.1770    1.1567    3.8240 H       1  UNL1        0.0457
     45 H          10.0159    0.7714    2.2521 H       1  UNL1        0.0457
     46 H           9.5118    2.4544    2.5788 H       1  UNL1        0.0457
     47 H           5.2506    2.8563    1.1565 H       1  UNL1        0.0678
     48 H           4.2834    2.6571   -0.6521 H       1  UNL1        0.0624
     49 H           2.1412    2.4861   -1.8307 H       1  UNL1        0.0621
     50 H           0.1191   -0.1580    0.7342 H       1  UNL1        0.0467
     51 H          -0.8499    1.1892    0.1613 H       1  UNL1        0.0467
     52 H          -2.3605    0.1187    1.5542 H       1  UNL1        0.0322
     53 H          -1.5353   -1.4830    1.3703 H       1  UNL1        0.0322
     54 H          -2.9654    0.1752   -1.7416 H       1  UNL1        0.0322
     55 H          -4.4224   -0.7936   -1.6122 H       1  UNL1        0.0322
     56 H          -5.2320    0.0639    1.4521 H       1  UNL1        0.0245
     57 H          -6.2762   -0.2238   -0.0284 H       1  UNL1        0.0245
     58 H          -6.1807    1.3671    0.7499 H       1  UNL1        0.0245
     59 H          -5.7987    0.7399   -2.1270 H       1  UNL1        0.0245
     60 H          -5.8400    2.3368   -1.1837 H       1  UNL1        0.0245
     61 H          -4.4519    2.0104   -2.2380 H       1  UNL1        0.0245
     62 H          -5.0557   -2.6263   -1.1106 H       1  UNL1        0.0622
     63 H          -6.5618   -4.1565   -0.0187 H       1  UNL1        0.0618
     64 H          -6.3327   -4.5781    2.3797 H       1  UNL1        0.0618
     65 H          -4.5523   -3.4122    3.6898 H       1  UNL1        0.0618
     66 H          -3.0619   -1.8769    2.5823 H       1  UNL1        0.0622
@<TRIPOS>BOND
     1     1     2    1
     2     2     3    1
     3     3     4   ar
     4     4     5   ar
     5     5     6   ar
     6     6     7    1
     7     7     8   ar
     8     8     9   ar
     9     9    10   ar
    10    10    11    1
    11    10    12   ar
    12    12    13    2
    13    12    14   ar
    14     6    15   ar
    15    15    16   ar
    16     2    17    1
    17    17    18    1
    18    18    19    1
    19    19    20    1
    20    20    21    1
    21    21    22    1
    22    22    23    1
    23    22    24    1
    24    22    25    1
    25    25    26    3
    26    20    27    1
    27    27    28   ar
    28    28    29   ar
    29    29    30   ar
    30    30    31   ar
    31    31    32   ar
    32    20    33    1
    33    33    34    1
    34    34    35    2
    35    16     3   ar
    36    34    17   am
    37    14     7   ar
    38    32    27   ar
    39     1    36    1
    40     1    37    1
    41     1    38    1
    42     2    39    1
    43     4    40    1
    44     5    41    1
    45     8    42    1
    46     9    43    1
    47    11    44    1
    48    11    45    1
    49    11    46    1
    50    14    47    1
    51    15    48    1
    52    16    49    1
    53    18    50    1
    54    18    51    1
    55    19    52    1
    56    19    53    1
    57    21    54    1
    58    21    55    1
    59    23    56    1
    60    23    57    1
    61    23    58    1
    62    24    59    1
    63    24    60    1
    64    24    61    1
    65    28    62    1
    66    29    63    1
    67    30    64    1
    68    31    65    1
    69    32    66    1
