
     RDKit          3D

 66 69  0  0  0  0  0  0  0  0999 V2000
   -0.0931    1.7414   -2.2660 C   0  0  0  0  0  0  0  0  0  0  0  0
    0.4704    0.3401   -1.9790 C   0  0  1  0  0  0  0  0  0  0  0  0
    1.7697    0.4692   -1.2730 C   0  0  0  0  0  0  0  0  0  0  0  0
    2.3091   -0.5957   -0.5576 C   0  0  0  0  0  0  0  0  0  0  0  0
    3.5272   -0.5042    0.1098 C   0  0  0  0  0  0  0  0  0  0  0  0
    4.2492    0.6594    0.0832 C   0  0  0  0  0  0  0  0  0  0  0  0
    5.5262    0.8012    0.7651 C   0  0  0  0  0  0  0  0  0  0  0  0
    6.3983   -0.2525    0.9267 C   0  0  0  0  0  0  0  0  0  0  0  0
    7.6088   -0.0206    1.5827 C   0  0  0  0  0  0  0  0  0  0  0  0
    7.9636    1.1782    2.0625 N   0  0  0  0  0  0  0  0  0  0  0  0
    9.2418    1.3769    2.7385 C   0  0  0  0  0  0  0  0  0  0  0  0
    7.1238    2.2113    1.9118 C   0  0  0  0  0  0  0  0  0  0  0  0
    7.4765    3.3455    2.3742 O   0  0  0  0  0  0  0  0  0  0  0  0
    5.9315    2.0282    1.2781 C   0  0  0  0  0  0  0  0  0  0  0  0
    3.7253    1.7278   -0.6248 C   0  0  0  0  0  0  0  0  0  0  0  0
    2.5168    1.6335   -1.2857 C   0  0  0  0  0  0  0  0  0  0  0  0
   -0.5165   -0.4024   -1.1941 N   0  0  0  0  0  0  0  0  0  0  0  0
   -0.8181    0.0608    0.1208 C   0  0  0  0  0  0  0  0  0  0  0  0
   -1.9569   -0.5958    0.8100 C   0  0  0  0  0  0  0  0  0  0  0  0
   -3.0035   -1.1621   -0.1003 C   0  0  2  0  0  0  0  0  0  0  0  0
   -3.6911   -0.2002   -0.9857 C   0  0  0  0  0  0  0  0  0  0  0  0
   -4.4545    0.9186   -0.4104 C   0  0  0  0  0  0  0  0  0  0  0  0
   -5.5944    0.4395    0.5000 C   0  0  0  0  0  0  0  0  0  0  0  0
   -5.2380    1.5238   -1.6217 C   0  0  0  0  0  0  0  0  0  0  0  0
   -3.6779    1.9431    0.1736 C   0  0  0  0  0  0  0  0  0  0  0  0
   -3.0074    2.8193    0.6590 N   0  0  0  0  0  0  0  0  0  0  0  0
   -3.9043   -2.0956    0.6331 C   0  0  0  0  0  0  0  0  0  0  0  0
   -4.9094   -2.7655   -0.0488 C   0  0  0  0  0  0  0  0  0  0  0  0
   -5.7738   -3.6454    0.5626 C   0  0  0  0  0  0  0  0  0  0  0  0
   -5.6393   -3.8742    1.9065 C   0  0  0  0  0  0  0  0  0  0  0  0
   -4.6612   -3.2390    2.6382 C   0  0  0  0  0  0  0  0  0  0  0  0
   -3.7983   -2.3491    1.9842 C   0  0  0  0  0  0  0  0  0  0  0  0
   -2.2723   -2.0449   -0.9904 O   0  0  0  0  0  0  0  0  0  0  0  0
   -1.1699   -1.5473   -1.6922 C   0  0  0  0  0  0  0  0  0  0  0  0
   -0.7702   -2.1054   -2.7438 O   0  0  0  0  0  0  0  0  0  0  0  0
    0.1716    2.4462   -1.4342 H   0  0  0  0  0  0  0  0  0  0  0  0
   -1.1955    1.6623   -2.3607 H   0  0  0  0  0  0  0  0  0  0  0  0
    0.4076    2.1008   -3.1737 H   0  0  0  0  0  0  0  0  0  0  0  0
    0.5693   -0.1634   -2.9581 H   0  0  0  0  0  0  0  0  0  0  0  0
    1.7784   -1.5226   -0.5138 H   0  0  0  0  0  0  0  0  0  0  0  0
    3.9028   -1.3530    0.6502 H   0  0  0  0  0  0  0  0  0  0  0  0
    6.1529   -1.2335    0.5567 H   0  0  0  0  0  0  0  0  0  0  0  0
    8.3032   -0.8294    1.7219 H   0  0  0  0  0  0  0  0  0  0  0  0
    9.1770    1.1567    3.8240 H   0  0  0  0  0  0  0  0  0  0  0  0
   10.0159    0.7714    2.2521 H   0  0  0  0  0  0  0  0  0  0  0  0
    9.5118    2.4544    2.5788 H   0  0  0  0  0  0  0  0  0  0  0  0
    5.2506    2.8563    1.1565 H   0  0  0  0  0  0  0  0  0  0  0  0
    4.2834    2.6571   -0.6521 H   0  0  0  0  0  0  0  0  0  0  0  0
    2.1412    2.4861   -1.8307 H   0  0  0  0  0  0  0  0  0  0  0  0
    0.1191   -0.1580    0.7342 H   0  0  0  0  0  0  0  0  0  0  0  0
   -0.8499    1.1892    0.1613 H   0  0  0  0  0  0  0  0  0  0  0  0
   -2.3605    0.1187    1.5542 H   0  0  0  0  0  0  0  0  0  0  0  0
   -1.5353   -1.4830    1.3703 H   0  0  0  0  0  0  0  0  0  0  0  0
   -2.9654    0.1752   -1.7416 H   0  0  0  0  0  0  0  0  0  0  0  0
   -4.4224   -0.7936   -1.6122 H   0  0  0  0  0  0  0  0  0  0  0  0
   -5.2320    0.0639    1.4521 H   0  0  0  0  0  0  0  0  0  0  0  0
   -6.2762   -0.2238   -0.0284 H   0  0  0  0  0  0  0  0  0  0  0  0
   -6.1807    1.3671    0.7499 H   0  0  0  0  0  0  0  0  0  0  0  0
   -5.7987    0.7399   -2.1270 H   0  0  0  0  0  0  0  0  0  0  0  0
   -5.8400    2.3368   -1.1837 H   0  0  0  0  0  0  0  0  0  0  0  0
   -4.4519    2.0104   -2.2380 H   0  0  0  0  0  0  0  0  0  0  0  0
   -5.0557   -2.6263   -1.1106 H   0  0  0  0  0  0  0  0  0  0  0  0
   -6.5618   -4.1565   -0.0187 H   0  0  0  0  0  0  0  0  0  0  0  0
   -6.3327   -4.5781    2.3797 H   0  0  0  0  0  0  0  0  0  0  0  0
   -4.5523   -3.4122    3.6898 H   0  0  0  0  0  0  0  0  0  0  0  0
   -3.0619   -1.8769    2.5823 H   0  0  0  0  0  0  0  0  0  0  0  0
  1  2  1  0
  2  3  1  0
  3  4  2  0
  4  5  1  0
  5  6  2  0
  6  7  1  0
  7  8  1  0
  8  9  2  0
  9 10  1  0
 10 11  1  0
 10 12  1  0
 12 13  2  0
 12 14  1  0
  6 15  1  0
 15 16  2  0
  2 17  1  0
 17 18  1  0
 18 19  1  0
 19 20  1  0
 20 21  1  6
 21 22  1  0
 22 23  1  0
 22 24  1  0
 22 25  1  0
 25 26  3  0
 20 27  1  0
 27 28  2  0
 28 29  1  0
 29 30  2  0
 30 31  1  0
 31 32  2  0
 20 33  1  0
 33 34  1  0
 34 35  2  0
 16  3  1  0
 34 17  1  0
 14  7  2  0
 32 27  1  0
  1 36  1  0
  1 37  1  0
  1 38  1  0
  2 39  1  6
  4 40  1  0
  5 41  1  0
  8 42  1  0
  9 43  1  0
 11 44  1  0
 11 45  1  0
 11 46  1  0
 14 47  1  0
 15 48  1  0
 16 49  1  0
 18 50  1  0
 18 51  1  0
 19 52  1  0
 19 53  1  0
 21 54  1  0
 21 55  1  0
 23 56  1  0
 23 57  1  0
 23 58  1  0
 24 59  1  0
 24 60  1  0
 24 61  1  0
 28 62  1  0
 29 63  1  0
 30 64  1  0
 31 65  1  0
 32 66  1  0
M  END
$$$$
