@<TRIPOS>MOLECULE
*****
 72 76 0 0 0
SMALL
GASTEIGER

@<TRIPOS>ATOM
      1 O          -0.2565   -2.7674   -1.3966 O.2     1  UNL1       -0.2817
      2 C           0.1606   -1.5903   -1.5630 C.2     1  UNL1        0.2496
      3 C           1.3153   -1.2325   -2.3427 C.2     1  UNL1        0.2915
      4 O           2.1115   -1.9728   -2.9889 O.2     1  UNL1       -0.2661
      5 N           1.4469    0.1767   -2.2809 N.am    1  UNL1       -0.2598
      6 C           2.4776    0.9726   -2.9263 C.3     1  UNL1        0.0452
      7 C           3.6830    1.1421   -2.0764 C.ar    1  UNL1       -0.0295
      8 C           4.7213    0.2406   -2.1235 C.ar    1  UNL1       -0.0536
      9 C           5.8695    0.3788   -1.3327 C.ar    1  UNL1       -0.0196
     10 C           6.0157    1.4312   -0.4621 C.ar    1  UNL1        0.1206
     11 O           7.0931    1.6510    0.3545 O.3     1  UNL1       -0.4897
     12 C           8.2210    0.8684    0.5073 C.3     1  UNL1        0.1128
     13 C           7.9765   -0.4940    1.1013 C.3     1  UNL1        0.0818
     14 O           9.1903   -1.1857    1.1971 O.3     1  UNL1       -0.3739
     15 C           8.9435   -2.4433    1.7486 C.3     1  UNL1        0.0760
     16 C          10.2491   -3.2041    1.8592 C.3     1  UNL1        0.1134
     17 F          11.1328   -2.4975    2.6798 F       1  UNL1       -0.2467
     18 C           4.9434    2.3477   -0.4252 C.ar    1  UNL1       -0.0196
     19 C           3.8280    2.1986   -1.2052 C.ar    1  UNL1       -0.0536
     20 C           0.3856    0.6904   -1.4719 C.ar    1  UNL1        0.0481
     21 C           0.0194    1.9664   -1.0732 C.ar    1  UNL1       -0.0377
     22 C          -1.0704    2.2346   -0.2718 C.ar    1  UNL1       -0.0335
     23 C          -1.8412    1.1816    0.1595 C.ar    1  UNL1        0.1063
     24 S          -3.2210    1.4977    1.1752 S.O2    1  UNL1        0.0612
     25 O          -3.4103    0.4284    2.2112 O.2     1  UNL1       -0.1528
     26 O          -2.8828    2.7532    1.9802 O.2     1  UNL1       -0.1528
     27 N          -4.6415    1.7879    0.3511 N.3     1  UNL1       -0.1703
     28 C          -4.7050    2.8983   -0.5166 C.3     1  UNL1        0.0210
     29 C          -6.0571    2.6932   -1.2129 C.3     1  UNL1       -0.0370
     30 C          -6.0185    1.1930   -1.4134 C.3     1  UNL1       -0.0313
     31 C          -5.5179    0.7619    0.0112 C.3     1  UNL1        0.0659
     32 C          -4.9643   -0.5946   -0.2032 C.3     1  UNL1        0.1067
     33 O          -5.9805   -1.4948   -0.4894 O.3     1  UNL1       -0.4904
     34 C          -6.9433   -1.8551    0.4284 C.ar    1  UNL1        0.1206
     35 C          -7.0051   -1.4286    1.7320 C.ar    1  UNL1       -0.0199
     36 C          -8.0255   -1.8409    2.5950 C.ar    1  UNL1       -0.0583
     37 C          -9.0092   -2.6880    2.1864 C.ar    1  UNL1       -0.0615
     38 C          -8.9770   -3.1340    0.8925 C.ar    1  UNL1       -0.0583
     39 C          -7.9769   -2.7288    0.0469 C.ar    1  UNL1       -0.0199
     40 C          -1.5175   -0.1029   -0.2102 C.ar    1  UNL1       -0.0226
     41 C          -0.4094   -0.3633   -1.0238 C.ar    1  UNL1        0.0502
     42 H           2.7334    0.4870   -3.8989 H       1  UNL1        0.0518
     43 H           2.0463    1.9610   -3.1715 H       1  UNL1        0.0518
     44 H           4.6322   -0.6008   -2.8016 H       1  UNL1        0.0622
     45 H           6.6711   -0.3522   -1.4316 H       1  UNL1        0.0654
     46 H           8.7108    0.6539   -0.4981 H       1  UNL1        0.0720
     47 H           8.9580    1.3904    1.1667 H       1  UNL1        0.0720
     48 H           7.5804   -0.2819    2.1426 H       1  UNL1        0.0594
     49 H           7.2078   -1.0696    0.6101 H       1  UNL1        0.0594
     50 H           8.2621   -3.0483    1.1095 H       1  UNL1        0.0585
     51 H           8.5333   -2.3664    2.7827 H       1  UNL1        0.0585
     52 H          10.1010   -4.1921    2.3040 H       1  UNL1        0.0638
     53 H          10.7474   -3.2916    0.8684 H       1  UNL1        0.0638
     54 H           5.0379    3.1900    0.2566 H       1  UNL1        0.0654
     55 H           2.9943    2.9170   -1.1735 H       1  UNL1        0.0622
     56 H           0.6198    2.8264   -1.4072 H       1  UNL1        0.0637
     57 H          -1.3052    3.2712    0.0077 H       1  UNL1        0.0638
     58 H          -3.9531    2.8917   -1.3484 H       1  UNL1        0.0444
     59 H          -4.7125    3.8735    0.0259 H       1  UNL1        0.0444
     60 H          -6.8396    2.9906   -0.4849 H       1  UNL1        0.0279
     61 H          -6.1149    3.2362   -2.1653 H       1  UNL1        0.0279
     62 H          -5.2290    0.9755   -2.1540 H       1  UNL1        0.0282
     63 H          -6.9892    0.7483   -1.6186 H       1  UNL1        0.0282
     64 H          -6.4391    0.7398    0.6006 H       1  UNL1        0.0513
     65 H          -4.2365   -0.6468   -1.0492 H       1  UNL1        0.0713
     66 H          -4.4124   -1.0070    0.6692 H       1  UNL1        0.0713
     67 H          -6.2537   -0.7811    2.1677 H       1  UNL1        0.0654
     68 H          -8.0594   -1.4914    3.6260 H       1  UNL1        0.0619
     69 H          -9.8109   -3.0145    2.8568 H       1  UNL1        0.0618
     70 H          -9.7650   -3.8177    0.5539 H       1  UNL1        0.0619
     71 H          -7.9819   -3.1013   -0.9707 H       1  UNL1        0.0654
     72 H          -2.0864   -0.9658    0.0992 H       1  UNL1        0.0645
@<TRIPOS>BOND
     1     1     2    2
     2     2     3    1
     3     3     4    2
     4     3     5   am
     5     5     6    1
     6     6     7    1
     7     7     8   ar
     8     8     9   ar
     9     9    10   ar
    10    10    11    1
    11    11    12    1
    12    12    13    1
    13    13    14    1
    14    14    15    1
    15    15    16    1
    16    16    17    1
    17    10    18   ar
    18    18    19   ar
    19     5    20    1
    20    20    21   ar
    21    21    22   ar
    22    22    23   ar
    23    23    24    1
    24    24    25    2
    25    24    26    2
    26    24    27    1
    27    27    28    1
    28    28    29    1
    29    29    30    1
    30    30    31    1
    31    31    32    1
    32    32    33    1
    33    33    34    1
    34    34    35   ar
    35    35    36   ar
    36    36    37   ar
    37    37    38   ar
    38    38    39   ar
    39    23    40   ar
    40    40    41   ar
    41    41     2    1
    42    19     7   ar
    43    41    20   ar
    44    31    27    1
    45    39    34   ar
    46     6    42    1
    47     6    43    1
    48     8    44    1
    49     9    45    1
    50    12    46    1
    51    12    47    1
    52    13    48    1
    53    13    49    1
    54    15    50    1
    55    15    51    1
    56    16    52    1
    57    16    53    1
    58    18    54    1
    59    19    55    1
    60    21    56    1
    61    22    57    1
    62    28    58    1
    63    28    59    1
    64    29    60    1
    65    29    61    1
    66    30    62    1
    67    30    63    1
    68    31    64    1
    69    32    65    1
    70    32    66    1
    71    35    67    1
    72    36    68    1
    73    37    69    1
    74    38    70    1
    75    39    71    1
    76    40    72    1
