
     RDKit          3D

 65 68  0  0  0  0  0  0  0  0999 V2000
    3.6622    3.7820   -1.7675 C   0  0  0  0  0  0  0  0  0  0  0  0
    2.7553    2.7251   -1.5360 C   0  0  0  0  0  0  0  0  0  0  0  0
    1.7946    1.6213   -1.2929 C   0  0  0  0  0  0  0  0  0  0  0  0
    1.4486    1.4500    0.0348 N   0  0  0  0  0  0  0  0  0  0  0  0
    0.4481    2.5498    0.3534 C   0  0  0  0  0  0  0  0  0  0  0  0
   -0.6509    2.2301   -0.7348 C   0  0  0  0  0  0  0  0  0  0  0  0
   -0.8736    0.7786   -0.5341 C   0  0  0  0  0  0  0  0  0  0  0  0
   -1.6346   -0.0284   -1.5220 C   0  0  0  0  0  0  0  0  0  0  0  0
   -1.3614   -1.5128   -1.0879 C   0  0  0  0  0  0  0  0  0  0  0  0
   -2.0237   -1.7484    0.1992 C   0  0  0  0  0  0  0  0  0  0  0  0
   -3.4334   -1.4259    0.2101 N   0  0  0  0  0  0  0  0  0  0  0  0
   -4.1584   -2.1397    1.1078 C   0  0  0  0  0  0  0  0  0  0  0  0
   -5.1678   -1.3860    1.9030 C   0  0  0  0  0  0  0  0  0  0  0  0
   -4.8099   -0.5662    2.8956 C   0  0  0  0  0  0  0  0  0  0  0  0
   -5.7014    0.0050    3.8448 C   0  0  0  0  0  0  0  0  0  0  0  0
   -7.0269   -0.4226    3.6291 C   0  0  0  0  0  0  0  0  0  0  0  0
   -7.4288   -1.2656    2.6238 C   0  0  0  0  0  0  0  0  0  0  0  0
   -6.5233   -1.7685    1.7026 C   0  0  0  0  0  0  0  0  0  0  0  0
   -3.9995   -0.8075   -0.8952 C   0  0  0  0  0  0  0  0  0  0  0  0
   -3.0605    0.1321   -1.6250 C   0  0  0  0  0  0  0  0  0  0  0  0
    2.4085    1.2941    1.1303 C   0  0  0  0  0  0  0  0  0  0  0  0
    3.6601    0.6464    0.7154 C   0  0  0  0  0  0  0  0  0  0  0  0
    3.7528   -0.7140    1.1094 C   0  0  0  0  0  0  0  0  0  0  0  0
    4.7221   -1.5918    0.5489 C   0  0  0  0  0  0  0  0  0  0  0  0
    5.6038   -0.9751   -0.4436 C   0  0  0  0  0  0  0  0  0  0  0  0
    6.4508   -1.9389   -1.0719 C   0  0  0  0  0  0  0  0  0  0  0  0
    7.2396   -1.4122   -2.1132 C   0  0  0  0  0  0  0  0  0  0  0  0
    7.1646   -0.1094   -2.3932 C   0  0  0  0  0  0  0  0  0  0  0  0
    6.2919    0.8035   -1.7519 C   0  0  0  0  0  0  0  0  0  0  0  0
    6.2496    2.1242   -2.1144 O   0  0  0  0  0  0  0  0  0  0  0  0
    5.4667    0.2490   -0.7328 C   0  0  0  0  0  0  0  0  0  0  0  0
    4.5184    1.1136   -0.2026 N   0  0  0  0  0  0  0  0  0  0  0  0
    4.2131    4.4241   -1.9205 H   0  0  0  0  0  0  0  0  0  0  0  0
    2.6455    0.5971   -1.2817 H   0  0  0  0  0  0  0  0  0  0  0  0
    1.1341    1.3366   -2.0608 H   0  0  0  0  0  0  0  0  0  0  0  0
    0.9131    3.4770    0.0041 H   0  0  0  0  0  0  0  0  0  0  0  0
    0.1530    2.5892    1.3311 H   0  0  0  0  0  0  0  0  0  0  0  0
   -0.1950    2.5576   -1.6564 H   0  0  0  0  0  0  0  0  0  0  0  0
   -1.4467    2.9288   -0.5089 H   0  0  0  0  0  0  0  0  0  0  0  0
   -1.4538    0.6852    0.4582 H   0  0  0  0  0  0  0  0  0  0  0  0
    0.0809    0.2672   -0.2237 H   0  0  0  0  0  0  0  0  0  0  0  0
   -1.1503    0.1021   -2.4893 H   0  0  0  0  0  0  0  0  0  0  0  0
   -0.2134   -1.4765   -0.9067 H   0  0  0  0  0  0  0  0  0  0  0  0
   -1.4375   -2.1912   -1.8967 H   0  0  0  0  0  0  0  0  0  0  0  0
   -1.8482   -2.7961    0.4986 H   0  0  0  0  0  0  0  0  0  0  0  0
   -1.5066   -1.1326    0.9994 H   0  0  0  0  0  0  0  0  0  0  0  0
   -3.4746   -2.7310    1.8402 H   0  0  0  0  0  0  0  0  0  0  0  0
   -4.5898   -3.0935    0.5989 H   0  0  0  0  0  0  0  0  0  0  0  0
   -3.7756   -0.1535    3.0018 H   0  0  0  0  0  0  0  0  0  0  0  0
   -5.3444    0.6389    4.5760 H   0  0  0  0  0  0  0  0  0  0  0  0
   -7.8022   -0.1390    4.4300 H   0  0  0  0  0  0  0  0  0  0  0  0
   -8.5311   -1.4094    2.5682 H   0  0  0  0  0  0  0  0  0  0  0  0
   -6.7663   -2.3858    0.8808 H   0  0  0  0  0  0  0  0  0  0  0  0
   -4.8805   -0.1450   -0.5603 H   0  0  0  0  0  0  0  0  0  0  0  0
   -4.5801   -1.4582   -1.6345 H   0  0  0  0  0  0  0  0  0  0  0  0
   -3.4949    1.1936   -1.4725 H   0  0  0  0  0  0  0  0  0  0  0  0
   -3.3755    0.0224   -2.7551 H   0  0  0  0  0  0  0  0  0  0  0  0
    2.3979    2.1080    1.8304 H   0  0  0  0  0  0  0  0  0  0  0  0
    1.8175    0.4624    1.7528 H   0  0  0  0  0  0  0  0  0  0  0  0
    3.1648   -1.0843    1.8899 H   0  0  0  0  0  0  0  0  0  0  0  0
    4.9715   -2.5549    0.8320 H   0  0  0  0  0  0  0  0  0  0  0  0
    6.4895   -2.9638   -0.8655 H   0  0  0  0  0  0  0  0  0  0  0  0
    7.8396   -2.1204   -2.7564 H   0  0  0  0  0  0  0  0  0  0  0  0
    7.8351    0.3741   -3.1696 H   0  0  0  0  0  0  0  0  0  0  0  0
    6.4268    2.8868   -1.5225 H   0  0  0  0  0  0  0  0  0  0  0  0
  1  2  3  0
  2  3  1  0
  3  4  1  0
  4  5  1  0
  5  6  1  0
  6  7  1  0
  7  8  1  0
  8  9  1  0
  9 10  1  0
 10 11  1  0
 11 12  1  0
 12 13  1  0
 13 14  2  0
 14 15  1  0
 15 16  2  0
 16 17  1  0
 17 18  2  0
 11 19  1  0
 19 20  1  0
  4 21  1  0
 21 22  1  0
 22 23  2  0
 23 24  1  0
 24 25  2  0
 25 26  1  0
 26 27  2  0
 27 28  1  0
 28 29  2  0
 29 30  1  0
 29 31  1  0
 31 32  2  0
 20  8  1  0
 32 22  1  0
 18 13  1  0
 31 25  1  0
  1 33  1  0
  3 34  1  0
  3 35  1  0
  5 36  1  0
  5 37  1  0
  6 38  1  0
  6 39  1  0
  7 40  1  0
  7 41  1  0
  8 42  1  0
  9 43  1  0
  9 44  1  0
 10 45  1  0
 10 46  1  0
 12 47  1  0
 12 48  1  0
 14 49  1  0
 15 50  1  0
 16 51  1  0
 17 52  1  0
 18 53  1  0
 19 54  1  0
 19 55  1  0
 20 56  1  0
 20 57  1  0
 21 58  1  0
 21 59  1  0
 23 60  1  0
 24 61  1  0
 26 62  1  0
 27 63  1  0
 28 64  1  0
 30 65  1  0
M  END
$$$$
