@<TRIPOS>MOLECULE
*****
 65 68 0 0 0
SMALL
GASTEIGER

@<TRIPOS>ATOM
      1 C           3.6622    3.7820   -1.7675 C.1     1  UNL1       -0.1179
      2 C           2.7553    2.7251   -1.5360 C.1     1  UNL1       -0.0900
      3 C           1.7946    1.6213   -1.2929 C.3     1  UNL1        0.0609
      4 N           1.4486    1.4500    0.0348 N.3     1  UNL1       -0.2858
      5 C           0.4481    2.5498    0.3534 C.3     1  UNL1        0.0002
      6 C          -0.6509    2.2301   -0.7348 C.3     1  UNL1       -0.0399
      7 C          -0.8736    0.7786   -0.5341 C.3     1  UNL1       -0.0490
      8 C          -1.6346   -0.0284   -1.5220 C.3     1  UNL1       -0.0387
      9 C          -1.3614   -1.5128   -1.0879 C.3     1  UNL1       -0.0373
     10 C          -2.0237   -1.7484    0.1992 C.3     1  UNL1       -0.0005
     11 N          -3.4334   -1.4259    0.2101 N.3     1  UNL1       -0.2981
     12 C          -4.1584   -2.1397    1.1078 C.3     1  UNL1        0.0240
     13 C          -5.1678   -1.3860    1.9030 C.ar    1  UNL1       -0.0334
     14 C          -4.8099   -0.5662    2.8956 C.ar    1  UNL1       -0.0573
     15 C          -5.7014    0.0050    3.8448 C.ar    1  UNL1       -0.0615
     16 C          -7.0269   -0.4226    3.6291 C.ar    1  UNL1       -0.0617
     17 C          -7.4288   -1.2656    2.6238 C.ar    1  UNL1       -0.0615
     18 C          -6.5233   -1.7685    1.7026 C.ar    1  UNL1       -0.0573
     19 C          -3.9995   -0.8075   -0.8952 C.3     1  UNL1       -0.0005
     20 C          -3.0605    0.1321   -1.6250 C.3     1  UNL1       -0.0373
     21 C           2.4085    1.2941    1.1303 C.3     1  UNL1        0.0421
     22 C           3.6601    0.6464    0.7154 C.ar    1  UNL1        0.0561
     23 C           3.7528   -0.7140    1.1094 C.ar    1  UNL1       -0.0385
     24 C           4.7221   -1.5918    0.5489 C.ar    1  UNL1       -0.0507
     25 C           5.6038   -0.9751   -0.4436 C.ar    1  UNL1        0.0040
     26 C           6.4508   -1.9389   -1.0719 C.ar    1  UNL1       -0.0523
     27 C           7.2396   -1.4122   -2.1132 C.ar    1  UNL1       -0.0576
     28 C           7.1646   -0.1094   -2.3932 C.ar    1  UNL1       -0.0180
     29 C           6.2919    0.8035   -1.7519 C.ar    1  UNL1        0.1427
     30 O           6.2496    2.1242   -2.1144 O.3     1  UNL1       -0.5046
     31 C           5.4667    0.2490   -0.7328 C.ar    1  UNL1        0.1126
     32 N           4.5184    1.1136   -0.2026 N.ar    1  UNL1       -0.2466
     33 H           4.2131    4.4241   -1.9205 H       1  UNL1        0.1228
     34 H           2.6455    0.5971   -1.2817 H       1  UNL1        0.0563
     35 H           1.1341    1.3366   -2.0608 H       1  UNL1        0.0563
     36 H           0.9131    3.4770    0.0041 H       1  UNL1        0.0427
     37 H           0.1530    2.5892    1.3311 H       1  UNL1        0.0427
     38 H          -0.1950    2.5576   -1.6564 H       1  UNL1        0.0278
     39 H          -1.4467    2.9288   -0.5089 H       1  UNL1        0.0278
     40 H          -1.4538    0.6852    0.4582 H       1  UNL1        0.0268
     41 H           0.0809    0.2672   -0.2237 H       1  UNL1        0.0268
     42 H          -1.1503    0.1021   -2.4893 H       1  UNL1        0.0302
     43 H          -0.2134   -1.4765   -0.9067 H       1  UNL1        0.0280
     44 H          -1.4375   -2.1912   -1.8967 H       1  UNL1        0.0280
     45 H          -1.8482   -2.7961    0.4986 H       1  UNL1        0.0427
     46 H          -1.5066   -1.1326    0.9994 H       1  UNL1        0.0427
     47 H          -3.4746   -2.7310    1.8402 H       1  UNL1        0.0476
     48 H          -4.5898   -3.0935    0.5989 H       1  UNL1        0.0476
     49 H          -3.7756   -0.1535    3.0018 H       1  UNL1        0.0621
     50 H          -5.3444    0.6389    4.5760 H       1  UNL1        0.0618
     51 H          -7.8022   -0.1390    4.4300 H       1  UNL1        0.0618
     52 H          -8.5311   -1.4094    2.5682 H       1  UNL1        0.0618
     53 H          -6.7663   -2.3858    0.8808 H       1  UNL1        0.0621
     54 H          -4.8805   -0.1450   -0.5603 H       1  UNL1        0.0427
     55 H          -4.5801   -1.4582   -1.6345 H       1  UNL1        0.0427
     56 H          -3.4949    1.1936   -1.4725 H       1  UNL1        0.0280
     57 H          -3.3755    0.0224   -2.7551 H       1  UNL1        0.0280
     58 H           2.3979    2.1080    1.8304 H       1  UNL1        0.0491
     59 H           1.8175    0.4624    1.7528 H       1  UNL1        0.0491
     60 H           3.1648   -1.0843    1.8899 H       1  UNL1        0.0636
     61 H           4.9715   -2.5549    0.8320 H       1  UNL1        0.0625
     62 H           6.4895   -2.9638   -0.8655 H       1  UNL1        0.0624
     63 H           7.8396   -2.1204   -2.7564 H       1  UNL1        0.0619
     64 H           7.8351    0.3741   -3.1696 H       1  UNL1        0.0655
     65 H           6.4268    2.8868   -1.5225 H       1  UNL1        0.2922
@<TRIPOS>BOND
     1     1     2    3
     2     2     3    1
     3     3     4    1
     4     4     5    1
     5     5     6    1
     6     6     7    1
     7     7     8    1
     8     8     9    1
     9     9    10    1
    10    10    11    1
    11    11    12    1
    12    12    13    1
    13    13    14   ar
    14    14    15   ar
    15    15    16   ar
    16    16    17   ar
    17    17    18   ar
    18    11    19    1
    19    19    20    1
    20     4    21    1
    21    21    22    1
    22    22    23   ar
    23    23    24   ar
    24    24    25   ar
    25    25    26   ar
    26    26    27   ar
    27    27    28   ar
    28    28    29   ar
    29    29    30    1
    30    29    31   ar
    31    31    32   ar
    32    20     8    1
    33    32    22   ar
    34    18    13   ar
    35    31    25   ar
    36     1    33    1
    37     3    34    1
    38     3    35    1
    39     5    36    1
    40     5    37    1
    41     6    38    1
    42     6    39    1
    43     7    40    1
    44     7    41    1
    45     8    42    1
    46     9    43    1
    47     9    44    1
    48    10    45    1
    49    10    46    1
    50    12    47    1
    51    12    48    1
    52    14    49    1
    53    15    50    1
    54    16    51    1
    55    17    52    1
    56    18    53    1
    57    19    54    1
    58    19    55    1
    59    20    56    1
    60    20    57    1
    61    21    58    1
    62    21    59    1
    63    23    60    1
    64    24    61    1
    65    26    62    1
    66    27    63    1
    67    28    64    1
    68    30    65    1
