@<TRIPOS>MOLECULE
*****
 47 49 0 0 0
SMALL
GASTEIGER

@<TRIPOS>ATOM
      1 O          -2.0727    1.3400   -3.0069 O.2     1  UNL1       -0.1530
      2 S          -2.8168    0.2520   -2.2377 S.O2    1  UNL1        0.0590
      3 O          -3.5732   -0.5506   -3.2840 O.2     1  UNL1       -0.1530
      4 N          -1.6307   -0.7736   -1.5883 N.3     1  UNL1       -0.1887
      5 C          -0.7727   -0.0201   -0.7046 C.3     1  UNL1        0.0300
      6 C           0.3155   -0.8786   -0.0895 C.3     1  UNL1        0.0104
      7 N           1.1325   -1.4689   -1.1249 N.3     1  UNL1       -0.3113
      8 C           2.1914   -2.2320   -0.5148 C.3     1  UNL1        0.0146
      9 C           3.1552   -1.2749    0.1346 C.2     1  UNL1       -0.0697
     10 C           4.4105   -1.2479   -0.2607 C.2     1  UNL1       -0.0573
     11 C           5.4217   -0.3735    0.2856 C.ar    1  UNL1       -0.0252
     12 C           6.7136   -0.4572   -0.2344 C.ar    1  UNL1       -0.0536
     13 C           7.7148    0.3506    0.2351 C.ar    1  UNL1       -0.0472
     14 C           7.4716    1.2812    1.2474 C.ar    1  UNL1        0.0179
     15 BR          8.8862    2.3923    1.8760 Br      1  UNL1       -0.0503
     16 C           6.1882    1.3390    1.7383 C.ar    1  UNL1       -0.0472
     17 C           5.1559    0.5415    1.2902 C.ar    1  UNL1       -0.0536
     18 C          -3.8864    0.9857   -1.1054 C.ar    1  UNL1        0.1130
     19 C          -3.8515    2.3717   -0.9476 C.ar    1  UNL1       -0.0347
     20 C          -4.6643    3.0393   -0.0378 C.ar    1  UNL1       -0.0593
     21 C          -5.5420    2.3323    0.7458 C.ar    1  UNL1       -0.0525
     22 C          -5.5807    0.9626    0.5930 C.ar    1  UNL1        0.0021
     23 C          -6.4753    0.2865    1.3870 C.ar    1  UNL1        0.0353
     24 N          -6.5488   -1.0554    1.2627 N.ar    1  UNL1       -0.2626
     25 C          -5.7652   -1.7191    0.3808 C.ar    1  UNL1        0.0282
     26 C          -4.8575   -1.0795   -0.4319 C.ar    1  UNL1       -0.0340
     27 C          -4.7683    0.2944   -0.3168 C.ar    1  UNL1        0.0113
     28 H          -1.9146   -1.6767   -1.2270 H       1  UNL1        0.1480
     29 H          -0.3776    0.8855   -1.1742 H       1  UNL1        0.0454
     30 H          -1.3911    0.3276    0.1756 H       1  UNL1        0.0454
     31 H           0.8819   -0.2871    0.6236 H       1  UNL1        0.0437
     32 H          -0.2322   -1.6832    0.4812 H       1  UNL1        0.0437
     33 H           0.5385   -2.1148   -1.7169 H       1  UNL1        0.1223
     34 H           2.6875   -2.8264   -1.2907 H       1  UNL1        0.0468
     35 H           1.7460   -2.8207    0.2978 H       1  UNL1        0.0468
     36 H           2.8405   -0.6125    0.9184 H       1  UNL1        0.0585
     37 H           4.6771   -1.9346   -1.0466 H       1  UNL1        0.0621
     38 H           6.9078   -1.1783   -1.0213 H       1  UNL1        0.0624
     39 H           8.7001    0.2414   -0.2058 H       1  UNL1        0.0629
     40 H           6.0267    2.0773    2.5294 H       1  UNL1        0.0629
     41 H           4.1702    0.6400    1.7226 H       1  UNL1        0.0624
     42 H          -3.1761    2.9630   -1.5439 H       1  UNL1        0.0637
     43 H          -4.6344    4.1066    0.0804 H       1  UNL1        0.0618
     44 H          -6.1863    2.8357    1.4616 H       1  UNL1        0.0624
     45 H          -7.1153    0.8197    2.1045 H       1  UNL1        0.0836
     46 H          -5.8649   -2.7999    0.3203 H       1  UNL1        0.0830
     47 H          -4.2351   -1.6004   -1.1462 H       1  UNL1        0.0639
@<TRIPOS>BOND
     1     1     2    2
     2     2     3    2
     3     2     4    1
     4     4     5    1
     5     5     6    1
     6     6     7    1
     7     7     8    1
     8     8     9    1
     9     9    10    2
    10    10    11    1
    11    11    12   ar
    12    12    13   ar
    13    13    14   ar
    14    14    15    1
    15    14    16   ar
    16    16    17   ar
    17     2    18    1
    18    18    19   ar
    19    19    20   ar
    20    20    21   ar
    21    21    22   ar
    22    22    23   ar
    23    23    24   ar
    24    24    25   ar
    25    25    26   ar
    26    26    27   ar
    27    17    11   ar
    28    27    18   ar
    29    27    22   ar
    30     4    28    1
    31     5    29    1
    32     5    30    1
    33     6    31    1
    34     6    32    1
    35     7    33    1
    36     8    34    1
    37     8    35    1
    38     9    36    1
    39    10    37    1
    40    12    38    1
    41    13    39    1
    42    16    40    1
    43    17    41    1
    44    19    42    1
    45    20    43    1
    46    21    44    1
    47    23    45    1
    48    25    46    1
    49    26    47    1
