@<TRIPOS>MOLECULE
*****
 52 55 0 0 0
SMALL
GASTEIGER

@<TRIPOS>ATOM
      1 C           5.3813   -2.0724    1.1782 C.3     1  UNL1        0.0369
      2 O           4.6466   -0.9232    0.9305 O.3     1  UNL1       -0.3782
      3 C           3.3172   -1.1534    0.6818 C.3     1  UNL1        0.0753
      4 C           2.4926   -0.2313    1.5626 C.3     1  UNL1       -0.0094
      5 C           2.6195    1.0918    0.8399 C.3     1  UNL1        0.0152
      6 C           1.2535    1.4757    0.3236 C.3     1  UNL1       -0.0108
      7 C           0.6678    0.4274   -0.5818 C.3     1  UNL1        0.0628
      8 O          -0.4735   -0.0547    0.0634 O.3     1  UNL1       -0.3640
      9 C          -1.6551    0.3113   -0.5460 C.3     1  UNL1        0.1090
     10 C          -2.4942    1.1682    0.3593 C.ar    1  UNL1       -0.0143
     11 C          -3.1123    2.3093   -0.0985 C.ar    1  UNL1       -0.0531
     12 C          -3.8886    3.1049    0.7328 C.ar    1  UNL1       -0.0261
     13 C          -4.0461    2.7478    2.0449 C.ar    1  UNL1        0.1234
     14 F          -4.8033    3.5269    2.8490 F       1  UNL1       -0.2055
     15 C          -3.4480    1.6242    2.5308 C.ar    1  UNL1       -0.0261
     16 C          -2.6668    0.8292    1.6819 C.ar    1  UNL1       -0.0531
     17 C          -2.4037   -0.9028   -0.9487 C.ar    1  UNL1       -0.0143
     18 C          -1.8368   -1.9642   -1.5871 C.ar    1  UNL1       -0.0531
     19 C          -2.5842   -3.0760   -1.9391 C.ar    1  UNL1       -0.0261
     20 C          -3.9274   -3.1429   -1.6538 C.ar    1  UNL1        0.1234
     21 F          -4.6596   -4.2355   -2.0003 F       1  UNL1       -0.2055
     22 C          -4.4939   -2.0637   -1.0071 C.ar    1  UNL1       -0.0261
     23 C          -3.7726   -0.9471   -0.6466 C.ar    1  UNL1       -0.0531
     24 C           1.5960   -0.6129   -1.0373 C.3     1  UNL1       -0.0084
     25 C           3.0224   -0.4953   -0.6797 C.3     1  UNL1        0.0390
     26 N           3.4425    0.8589   -0.3279 N.3     1  UNL1       -0.2968
     27 C           3.2834    1.8023   -1.3696 C.3     1  UNL1       -0.0121
     28 H           5.0356   -2.6484    2.0457 H       1  UNL1        0.0524
     29 H           5.4452   -2.7309    0.2868 H       1  UNL1        0.0524
     30 H           6.4218   -1.7482    1.3913 H       1  UNL1        0.0524
     31 H           2.9967   -2.1879    0.7063 H       1  UNL1        0.0612
     32 H           2.8759   -0.1927    2.5970 H       1  UNL1        0.0306
     33 H           1.4623   -0.6261    1.5667 H       1  UNL1        0.0306
     34 H           3.0056    1.8744    1.4923 H       1  UNL1        0.0464
     35 H           1.3468    2.4635   -0.1776 H       1  UNL1        0.0305
     36 H           0.6260    1.6703    1.2271 H       1  UNL1        0.0305
     37 H           0.2704    0.9938   -1.4753 H       1  UNL1        0.0597
     38 H          -1.4806    0.9184   -1.4714 H       1  UNL1        0.0697
     39 H          -2.9865    2.5872   -1.1307 H       1  UNL1        0.0622
     40 H          -4.3537    3.9960    0.3166 H       1  UNL1        0.0646
     41 H          -3.5866    1.3568    3.5823 H       1  UNL1        0.0646
     42 H          -2.2176   -0.0405    2.1038 H       1  UNL1        0.0622
     43 H          -0.8038   -1.9701   -1.8359 H       1  UNL1        0.0622
     44 H          -2.1267   -3.9019   -2.4397 H       1  UNL1        0.0646
     45 H          -5.5517   -2.0839   -0.7670 H       1  UNL1        0.0646
     46 H          -4.2602   -0.1340   -0.1450 H       1  UNL1        0.0622
     47 H           1.5348   -0.7590   -2.1567 H       1  UNL1        0.0306
     48 H           1.2342   -1.6048   -0.6314 H       1  UNL1        0.0306
     49 H           3.6861   -0.8946   -1.4665 H       1  UNL1        0.0489
     50 H           2.5051    1.5959   -2.1060 H       1  UNL1        0.0391
     51 H           4.2525    1.8354   -1.9497 H       1  UNL1        0.0391
     52 H           3.2113    2.8290   -0.9182 H       1  UNL1        0.0391
@<TRIPOS>BOND
     1     1     2    1
     2     2     3    1
     3     3     4    1
     4     4     5    1
     5     5     6    1
     6     6     7    1
     7     7     8    1
     8     8     9    1
     9     9    10    1
    10    10    11   ar
    11    11    12   ar
    12    12    13   ar
    13    13    14    1
    14    13    15   ar
    15    15    16   ar
    16     9    17    1
    17    17    18   ar
    18    18    19   ar
    19    19    20   ar
    20    20    21    1
    21    20    22   ar
    22    22    23   ar
    23     7    24    1
    24    24    25    1
    25    25    26    1
    26    26    27    1
    27    25     3    1
    28    26     5    1
    29    16    10   ar
    30    23    17   ar
    31     1    28    1
    32     1    29    1
    33     1    30    1
    34     3    31    1
    35     4    32    1
    36     4    33    1
    37     5    34    1
    38     6    35    1
    39     6    36    1
    40     7    37    1
    41     9    38    1
    42    11    39    1
    43    12    40    1
    44    15    41    1
    45    16    42    1
    46    18    43    1
    47    19    44    1
    48    22    45    1
    49    23    46    1
    50    24    47    1
    51    24    48    1
    52    25    49    1
    53    27    50    1
    54    27    51    1
    55    27    52    1
