
     RDKit          3D

 52 55  0  0  0  0  0  0  0  0999 V2000
    5.3813   -2.0724    1.1782 C   0  0  0  0  0  0  0  0  0  0  0  0
    4.6466   -0.9232    0.9305 O   0  0  0  0  0  0  0  0  0  0  0  0
    3.3172   -1.1534    0.6818 C   0  0  1  0  0  0  0  0  0  0  0  0
    2.4926   -0.2313    1.5626 C   0  0  0  0  0  0  0  0  0  0  0  0
    2.6195    1.0918    0.8399 C   0  0  0  0  0  0  0  0  0  0  0  0
    1.2535    1.4757    0.3236 C   0  0  0  0  0  0  0  0  0  0  0  0
    0.6678    0.4274   -0.5818 C   0  0  2  0  0  0  0  0  0  0  0  0
   -0.4735   -0.0547    0.0634 O   0  0  0  0  0  0  0  0  0  0  0  0
   -1.6551    0.3113   -0.5460 C   0  0  0  0  0  0  0  0  0  0  0  0
   -2.4942    1.1682    0.3593 C   0  0  0  0  0  0  0  0  0  0  0  0
   -3.1123    2.3093   -0.0985 C   0  0  0  0  0  0  0  0  0  0  0  0
   -3.8886    3.1049    0.7328 C   0  0  0  0  0  0  0  0  0  0  0  0
   -4.0461    2.7478    2.0449 C   0  0  0  0  0  0  0  0  0  0  0  0
   -4.8033    3.5269    2.8490 F   0  0  0  0  0  0  0  0  0  0  0  0
   -3.4480    1.6242    2.5308 C   0  0  0  0  0  0  0  0  0  0  0  0
   -2.6668    0.8292    1.6819 C   0  0  0  0  0  0  0  0  0  0  0  0
   -2.4037   -0.9028   -0.9487 C   0  0  0  0  0  0  0  0  0  0  0  0
   -1.8368   -1.9642   -1.5871 C   0  0  0  0  0  0  0  0  0  0  0  0
   -2.5842   -3.0760   -1.9391 C   0  0  0  0  0  0  0  0  0  0  0  0
   -3.9274   -3.1429   -1.6538 C   0  0  0  0  0  0  0  0  0  0  0  0
   -4.6596   -4.2355   -2.0003 F   0  0  0  0  0  0  0  0  0  0  0  0
   -4.4939   -2.0637   -1.0071 C   0  0  0  0  0  0  0  0  0  0  0  0
   -3.7726   -0.9471   -0.6466 C   0  0  0  0  0  0  0  0  0  0  0  0
    1.5960   -0.6129   -1.0373 C   0  0  0  0  0  0  0  0  0  0  0  0
    3.0224   -0.4953   -0.6797 C   0  0  0  0  0  0  0  0  0  0  0  0
    3.4425    0.8589   -0.3279 N   0  0  0  0  0  0  0  0  0  0  0  0
    3.2834    1.8023   -1.3696 C   0  0  0  0  0  0  0  0  0  0  0  0
    5.0356   -2.6484    2.0457 H   0  0  0  0  0  0  0  0  0  0  0  0
    5.4452   -2.7309    0.2868 H   0  0  0  0  0  0  0  0  0  0  0  0
    6.4218   -1.7482    1.3913 H   0  0  0  0  0  0  0  0  0  0  0  0
    2.9967   -2.1879    0.7063 H   0  0  0  0  0  0  0  0  0  0  0  0
    2.8759   -0.1927    2.5970 H   0  0  0  0  0  0  0  0  0  0  0  0
    1.4623   -0.6261    1.5667 H   0  0  0  0  0  0  0  0  0  0  0  0
    3.0056    1.8744    1.4923 H   0  0  0  0  0  0  0  0  0  0  0  0
    1.3468    2.4635   -0.1776 H   0  0  0  0  0  0  0  0  0  0  0  0
    0.6260    1.6703    1.2271 H   0  0  0  0  0  0  0  0  0  0  0  0
    0.2704    0.9938   -1.4753 H   0  0  0  0  0  0  0  0  0  0  0  0
   -1.4806    0.9184   -1.4714 H   0  0  0  0  0  0  0  0  0  0  0  0
   -2.9865    2.5872   -1.1307 H   0  0  0  0  0  0  0  0  0  0  0  0
   -4.3537    3.9960    0.3166 H   0  0  0  0  0  0  0  0  0  0  0  0
   -3.5866    1.3568    3.5823 H   0  0  0  0  0  0  0  0  0  0  0  0
   -2.2176   -0.0405    2.1038 H   0  0  0  0  0  0  0  0  0  0  0  0
   -0.8038   -1.9701   -1.8359 H   0  0  0  0  0  0  0  0  0  0  0  0
   -2.1267   -3.9019   -2.4397 H   0  0  0  0  0  0  0  0  0  0  0  0
   -5.5517   -2.0839   -0.7670 H   0  0  0  0  0  0  0  0  0  0  0  0
   -4.2602   -0.1340   -0.1450 H   0  0  0  0  0  0  0  0  0  0  0  0
    1.5348   -0.7590   -2.1567 H   0  0  0  0  0  0  0  0  0  0  0  0
    1.2342   -1.6048   -0.6314 H   0  0  0  0  0  0  0  0  0  0  0  0
    3.6861   -0.8946   -1.4665 H   0  0  0  0  0  0  0  0  0  0  0  0
    2.5051    1.5959   -2.1060 H   0  0  0  0  0  0  0  0  0  0  0  0
    4.2525    1.8354   -1.9497 H   0  0  0  0  0  0  0  0  0  0  0  0
    3.2113    2.8290   -0.9182 H   0  0  0  0  0  0  0  0  0  0  0  0
  1  2  1  0
  2  3  1  0
  3  4  1  0
  4  5  1  0
  5  6  1  0
  6  7  1  0
  7  8  1  0
  8  9  1  0
  9 10  1  0
 10 11  2  0
 11 12  1  0
 12 13  2  0
 13 14  1  0
 13 15  1  0
 15 16  2  0
  9 17  1  0
 17 18  2  0
 18 19  1  0
 19 20  2  0
 20 21  1  0
 20 22  1  0
 22 23  2  0
  7 24  1  0
 24 25  1  0
 25 26  1  0
 26 27  1  0
 25  3  1  0
 26  5  1  0
 16 10  1  0
 23 17  1  0
  1 28  1  0
  1 29  1  0
  1 30  1  0
  3 31  1  6
  4 32  1  0
  4 33  1  0
  5 34  1  0
  6 35  1  0
  6 36  1  0
  7 37  1  6
  9 38  1  0
 11 39  1  0
 12 40  1  0
 15 41  1  0
 16 42  1  0
 18 43  1  0
 19 44  1  0
 22 45  1  0
 23 46  1  0
 24 47  1  0
 24 48  1  0
 25 49  1  0
 27 50  1  0
 27 51  1  0
 27 52  1  0
M  END
$$$$
