@<TRIPOS>MOLECULE
*****
 37 39 0 0 0
SMALL
GASTEIGER

@<TRIPOS>ATOM
      1 C          -3.3875    1.6860    0.8810 C.3     1  UNL1       -0.0321
      2 C          -3.8116    0.4587    0.1473 C.3     1  UNL1        0.0868
      3 C          -4.8636   -0.3272    0.8955 C.3     1  UNL1       -0.0321
      4 O          -4.3396    0.8119   -1.0953 O.3     1  UNL1       -0.3845
      5 C          -2.6702   -0.4626   -0.1294 C.ar    1  UNL1        0.0035
      6 C          -2.8640   -1.6528   -0.7974 C.ar    1  UNL1        0.0336
      7 N          -1.8308   -2.4860   -1.0477 N.ar    1  UNL1       -0.2608
      8 C          -0.5887   -2.1618   -0.6445 C.ar    1  UNL1        0.0530
      9 C          -0.3046   -0.9917    0.0296 C.ar    1  UNL1        0.0844
     10 N           1.0173   -0.6491    0.4574 N.ar    1  UNL1       -0.2306
     11 N           1.4672   -0.7355    1.6998 N.ar    1  UNL1       -0.1736
     12 C           2.7391   -0.3443    1.7790 C.ar    1  UNL1        0.0581
     13 C           3.1576    0.0243    0.5095 C.ar    1  UNL1        0.0318
     14 C           4.3391    0.5000   -0.0234 C.ar    1  UNL1        0.0655
     15 C           5.5037    0.7107    0.8464 C.3     1  UNL1        0.4181
     16 F           6.5750    1.1879    0.1153 F       1  UNL1       -0.1659
     17 F           5.9276   -0.4509    1.4605 F       1  UNL1       -0.1659
     18 F           5.1823    1.6888    1.7954 F       1  UNL1       -0.1659
     19 C           4.4333    0.7796   -1.3714 C.ar    1  UNL1       -0.0494
     20 C           3.3186    0.5702   -2.1615 C.ar    1  UNL1       -0.0592
     21 C           2.1321    0.0939   -1.6341 C.ar    1  UNL1       -0.0356
     22 C           2.0350   -0.1857   -0.2915 C.ar    1  UNL1        0.0752
     23 C          -1.3902   -0.1490    0.2752 C.ar    1  UNL1       -0.0274
     24 H          -4.3340    2.1900    1.2362 H       1  UNL1        0.0260
     25 H          -2.7993    1.4983    1.7812 H       1  UNL1        0.0260
     26 H          -2.8786    2.4193    0.2558 H       1  UNL1        0.0260
     27 H          -4.5006   -0.6532    1.8848 H       1  UNL1        0.0260
     28 H          -5.8149    0.2558    0.9648 H       1  UNL1        0.0260
     29 H          -5.1148   -1.2436    0.3222 H       1  UNL1        0.0260
     30 H          -4.9163    0.0672   -1.3825 H       1  UNL1        0.2106
     31 H          -3.8473   -1.9349   -1.1301 H       1  UNL1        0.0833
     32 H           0.2184   -2.8479   -0.8588 H       1  UNL1        0.0851
     33 H           3.4064   -0.2887    2.6291 H       1  UNL1        0.0854
     34 H           5.3671    1.1567   -1.7982 H       1  UNL1        0.0623
     35 H           3.3564    0.7784   -3.2213 H       1  UNL1        0.0618
     36 H           1.2509   -0.0763   -2.2341 H       1  UNL1        0.0639
     37 H          -1.1707    0.7637    0.8005 H       1  UNL1        0.0643
@<TRIPOS>BOND
     1     1     2    1
     2     2     3    1
     3     2     4    1
     4     2     5    1
     5     5     6   ar
     6     6     7   ar
     7     7     8   ar
     8     8     9   ar
     9     9    10    1
    10    10    11   ar
    11    11    12   ar
    12    12    13   ar
    13    13    14   ar
    14    14    15    1
    15    15    16    1
    16    15    17    1
    17    15    18    1
    18    14    19   ar
    19    19    20   ar
    20    20    21   ar
    21    21    22   ar
    22     9    23   ar
    23    23     5   ar
    24    22    10   ar
    25    22    13   ar
    26     1    24    1
    27     1    25    1
    28     1    26    1
    29     3    27    1
    30     3    28    1
    31     3    29    1
    32     4    30    1
    33     6    31    1
    34     8    32    1
    35    12    33    1
    36    19    34    1
    37    20    35    1
    38    21    36    1
    39    23    37    1
