@<TRIPOS>MOLECULE
*****
 59 62 0 0 0
SMALL
GASTEIGER

@<TRIPOS>ATOM
      1 C          -4.3745    3.4786    0.5899 C.3     1  UNL1        0.0309
      2 N          -4.2654    2.0915    0.1178 N.ar    1  UNL1       -0.2650
      3 N          -3.6252    1.6735   -0.9524 N.ar    1  UNL1       -0.1554
      4 C          -3.7425    0.3475   -1.0862 C.ar    1  UNL1        0.1488
      5 N          -3.2512   -0.5220   -2.0942 N.pl3   1  UNL1       -0.3186
      6 C          -2.4523    0.1471   -3.1304 C.3     1  UNL1        0.0870
      7 C          -1.1254    0.4305   -2.5846 C.2     1  UNL1        0.2305
      8 O          -0.3134    1.1001   -3.3163 O.2     1  UNL1       -0.2741
      9 N          -0.7572   -0.0278   -1.2970 N.am    1  UNL1       -0.3087
     10 C           0.5432    0.2890   -0.8174 C.3     1  UNL1        0.0486
     11 C           1.6490   -0.5103   -1.5913 C.3     1  UNL1        0.0189
     12 N           2.4148   -0.3004   -0.3359 N.3     1  UNL1       -0.2958
     13 C           3.4430   -1.2603   -0.2456 C.3     1  UNL1        0.0106
     14 C           4.4797   -0.8554   -1.3352 C.3     1  UNL1       -0.0370
     15 C           4.9677    0.5188   -0.8434 C.3     1  UNL1       -0.0467
     16 C           5.8404    0.2884    0.3496 C.3     1  UNL1       -0.0177
     17 C           6.5171    1.5766    0.7949 C.3     1  UNL1        0.0470
     18 O           7.3444    1.3160    1.9080 O.3     1  UNL1       -0.3947
     19 C           4.9754   -0.2412    1.4853 C.3     1  UNL1       -0.0467
     20 C           4.1466   -1.4019    1.0477 C.3     1  UNL1       -0.0370
     21 C           1.1392   -0.4786    0.3140 C.3     1  UNL1        0.0189
     22 C          -4.5156   -0.0705   -0.0052 C.ar    1  UNL1        0.0419
     23 C          -4.9785   -1.3036    0.4080 C.ar    1  UNL1       -0.0376
     24 C          -5.7567   -1.4876    1.5448 C.ar    1  UNL1        0.0556
     25 C          -6.2598   -2.8167    1.9776 C.3     1  UNL1        0.4174
     26 F          -6.8785   -2.6270    3.2143 F       1  UNL1       -0.1659
     27 F          -5.2052   -3.6924    2.1755 F       1  UNL1       -0.1659
     28 F          -7.1573   -3.3583    1.0853 F       1  UNL1       -0.1659
     29 C          -6.0577   -0.3317    2.2723 C.ar    1  UNL1       -0.0481
     30 C          -5.6013    0.8961    1.8682 C.ar    1  UNL1       -0.0355
     31 C          -4.8304    1.0588    0.7368 C.ar    1  UNL1        0.0705
     32 H          -5.4237    3.8459    0.5001 H       1  UNL1        0.0473
     33 H          -4.0416    3.5542    1.6285 H       1  UNL1        0.0473
     34 H          -3.7352    4.1455   -0.0455 H       1  UNL1        0.0473
     35 H          -3.4391   -1.5412   -2.0965 H       1  UNL1        0.1480
     36 H          -2.3324   -0.5319   -4.0066 H       1  UNL1        0.0557
     37 H          -2.9791    1.0989   -3.4290 H       1  UNL1        0.0557
     38 H          -1.3760   -0.5842   -0.6650 H       1  UNL1        0.1491
     39 H           0.8812    1.3429   -0.9807 H       1  UNL1        0.0523
     40 H           1.4170   -1.5828   -1.6731 H       1  UNL1        0.0445
     41 H           2.0353    0.0197   -2.4539 H       1  UNL1        0.0445
     42 H           3.1208   -2.2963   -0.5676 H       1  UNL1        0.0462
     43 H           3.9788   -0.7689   -2.2962 H       1  UNL1        0.0280
     44 H           5.3527   -1.5304   -1.2973 H       1  UNL1        0.0280
     45 H           5.4934    1.0669   -1.6601 H       1  UNL1        0.0269
     46 H           4.0499    1.0559   -0.5045 H       1  UNL1        0.0269
     47 H           6.6515   -0.4193    0.0847 H       1  UNL1        0.0323
     48 H           7.1185    1.9774   -0.0140 H       1  UNL1        0.0560
     49 H           5.7331    2.3343    1.0481 H       1  UNL1        0.0560
     50 H           8.3033    1.3046    1.6211 H       1  UNL1        0.2094
     51 H           5.6438   -0.6389    2.3115 H       1  UNL1        0.0269
     52 H           4.3766    0.6302    1.8670 H       1  UNL1        0.0269
     53 H           3.3929   -1.6720    1.8291 H       1  UNL1        0.0280
     54 H           4.8222   -2.2961    0.9800 H       1  UNL1        0.0280
     55 H           1.0414   -0.0583    1.3335 H       1  UNL1        0.0445
     56 H           0.8382   -1.5522    0.2410 H       1  UNL1        0.0445
     57 H          -4.7469   -2.1962   -0.1499 H       1  UNL1        0.0631
     58 H          -6.6687   -0.4377    3.1751 H       1  UNL1        0.0624
     59 H          -5.8202    1.8035    2.4118 H       1  UNL1        0.0639
@<TRIPOS>BOND
     1     1     2    1
     2     2     3   ar
     3     3     4   ar
     4     4     5    1
     5     5     6    1
     6     6     7    1
     7     7     8    2
     8     7     9   am
     9     9    10    1
    10    10    11    1
    11    11    12    1
    12    12    13    1
    13    13    14    1
    14    14    15    1
    15    15    16    1
    16    16    17    1
    17    17    18    1
    18    16    19    1
    19    19    20    1
    20    12    21    1
    21     4    22   ar
    22    22    23   ar
    23    23    24   ar
    24    24    25    1
    25    25    26    1
    26    25    27    1
    27    25    28    1
    28    24    29   ar
    29    29    30   ar
    30    30    31   ar
    31    31     2   ar
    32    21    10    1
    33    31    22   ar
    34    20    13    1
    35     1    32    1
    36     1    33    1
    37     1    34    1
    38     5    35    1
    39     6    36    1
    40     6    37    1
    41     9    38    1
    42    10    39    1
    43    11    40    1
    44    11    41    1
    45    13    42    1
    46    14    43    1
    47    14    44    1
    48    15    45    1
    49    15    46    1
    50    16    47    1
    51    17    48    1
    52    17    49    1
    53    18    50    1
    54    19    51    1
    55    19    52    1
    56    20    53    1
    57    20    54    1
    58    21    55    1
    59    21    56    1
    60    23    57    1
    61    29    58    1
    62    30    59    1
