
     RDKit          3D

 59 62  0  0  0  0  0  0  0  0999 V2000
   -4.3745    3.4786    0.5899 C   0  0  0  0  0  0  0  0  0  0  0  0
   -4.2654    2.0915    0.1178 N   0  0  0  0  0  0  0  0  0  0  0  0
   -3.6252    1.6735   -0.9524 N   0  0  0  0  0  0  0  0  0  0  0  0
   -3.7425    0.3475   -1.0862 C   0  0  0  0  0  0  0  0  0  0  0  0
   -3.2512   -0.5220   -2.0942 N   0  0  0  0  0  0  0  0  0  0  0  0
   -2.4523    0.1471   -3.1304 C   0  0  0  0  0  0  0  0  0  0  0  0
   -1.1254    0.4305   -2.5846 C   0  0  0  0  0  0  0  0  0  0  0  0
   -0.3134    1.1001   -3.3163 O   0  0  0  0  0  0  0  0  0  0  0  0
   -0.7572   -0.0278   -1.2970 N   0  0  0  0  0  0  0  0  0  0  0  0
    0.5432    0.2890   -0.8174 C   0  0  0  0  0  0  0  0  0  0  0  0
    1.6490   -0.5103   -1.5913 C   0  0  0  0  0  0  0  0  0  0  0  0
    2.4148   -0.3004   -0.3359 N   0  0  0  0  0  0  0  0  0  0  0  0
    3.4430   -1.2603   -0.2456 C   0  0  1  0  0  0  0  0  0  0  0  0
    4.4797   -0.8554   -1.3352 C   0  0  0  0  0  0  0  0  0  0  0  0
    4.9677    0.5188   -0.8434 C   0  0  0  0  0  0  0  0  0  0  0  0
    5.8404    0.2884    0.3496 C   0  0  1  0  0  0  0  0  0  0  0  0
    6.5171    1.5766    0.7949 C   0  0  0  0  0  0  0  0  0  0  0  0
    7.3444    1.3160    1.9080 O   0  0  0  0  0  0  0  0  0  0  0  0
    4.9754   -0.2412    1.4853 C   0  0  0  0  0  0  0  0  0  0  0  0
    4.1466   -1.4019    1.0477 C   0  0  0  0  0  0  0  0  0  0  0  0
    1.1392   -0.4786    0.3140 C   0  0  0  0  0  0  0  0  0  0  0  0
   -4.5156   -0.0705   -0.0052 C   0  0  0  0  0  0  0  0  0  0  0  0
   -4.9785   -1.3036    0.4080 C   0  0  0  0  0  0  0  0  0  0  0  0
   -5.7567   -1.4876    1.5448 C   0  0  0  0  0  0  0  0  0  0  0  0
   -6.2598   -2.8167    1.9776 C   0  0  0  0  0  0  0  0  0  0  0  0
   -6.8785   -2.6270    3.2143 F   0  0  0  0  0  0  0  0  0  0  0  0
   -5.2052   -3.6924    2.1755 F   0  0  0  0  0  0  0  0  0  0  0  0
   -7.1573   -3.3583    1.0853 F   0  0  0  0  0  0  0  0  0  0  0  0
   -6.0577   -0.3317    2.2723 C   0  0  0  0  0  0  0  0  0  0  0  0
   -5.6013    0.8961    1.8682 C   0  0  0  0  0  0  0  0  0  0  0  0
   -4.8304    1.0588    0.7368 C   0  0  0  0  0  0  0  0  0  0  0  0
   -5.4237    3.8459    0.5001 H   0  0  0  0  0  0  0  0  0  0  0  0
   -4.0416    3.5542    1.6285 H   0  0  0  0  0  0  0  0  0  0  0  0
   -3.7352    4.1455   -0.0455 H   0  0  0  0  0  0  0  0  0  0  0  0
   -3.4391   -1.5412   -2.0965 H   0  0  0  0  0  0  0  0  0  0  0  0
   -2.3324   -0.5319   -4.0066 H   0  0  0  0  0  0  0  0  0  0  0  0
   -2.9791    1.0989   -3.4290 H   0  0  0  0  0  0  0  0  0  0  0  0
   -1.3760   -0.5842   -0.6650 H   0  0  0  0  0  0  0  0  0  0  0  0
    0.8812    1.3429   -0.9807 H   0  0  0  0  0  0  0  0  0  0  0  0
    1.4170   -1.5828   -1.6731 H   0  0  0  0  0  0  0  0  0  0  0  0
    2.0353    0.0197   -2.4539 H   0  0  0  0  0  0  0  0  0  0  0  0
    3.1208   -2.2963   -0.5676 H   0  0  0  0  0  0  0  0  0  0  0  0
    3.9788   -0.7689   -2.2962 H   0  0  0  0  0  0  0  0  0  0  0  0
    5.3527   -1.5304   -1.2973 H   0  0  0  0  0  0  0  0  0  0  0  0
    5.4934    1.0669   -1.6601 H   0  0  0  0  0  0  0  0  0  0  0  0
    4.0499    1.0559   -0.5045 H   0  0  0  0  0  0  0  0  0  0  0  0
    6.6515   -0.4193    0.0847 H   0  0  0  0  0  0  0  0  0  0  0  0
    7.1185    1.9774   -0.0140 H   0  0  0  0  0  0  0  0  0  0  0  0
    5.7331    2.3343    1.0481 H   0  0  0  0  0  0  0  0  0  0  0  0
    8.3033    1.3046    1.6211 H   0  0  0  0  0  0  0  0  0  0  0  0
    5.6438   -0.6389    2.3115 H   0  0  0  0  0  0  0  0  0  0  0  0
    4.3766    0.6302    1.8670 H   0  0  0  0  0  0  0  0  0  0  0  0
    3.3929   -1.6720    1.8291 H   0  0  0  0  0  0  0  0  0  0  0  0
    4.8222   -2.2961    0.9800 H   0  0  0  0  0  0  0  0  0  0  0  0
    1.0414   -0.0583    1.3335 H   0  0  0  0  0  0  0  0  0  0  0  0
    0.8382   -1.5522    0.2410 H   0  0  0  0  0  0  0  0  0  0  0  0
   -4.7469   -2.1962   -0.1499 H   0  0  0  0  0  0  0  0  0  0  0  0
   -6.6687   -0.4377    3.1751 H   0  0  0  0  0  0  0  0  0  0  0  0
   -5.8202    1.8035    2.4118 H   0  0  0  0  0  0  0  0  0  0  0  0
  1  2  1  0
  2  3  1  0
  3  4  2  0
  4  5  1  0
  5  6  1  0
  6  7  1  0
  7  8  2  0
  7  9  1  0
  9 10  1  0
 10 11  1  0
 11 12  1  0
 12 13  1  0
 13 14  1  0
 14 15  1  0
 15 16  1  0
 16 17  1  0
 17 18  1  0
 16 19  1  0
 19 20  1  0
 12 21  1  0
  4 22  1  0
 22 23  2  0
 23 24  1  0
 24 25  1  0
 25 26  1  0
 25 27  1  0
 25 28  1  0
 24 29  2  0
 29 30  1  0
 30 31  2  0
 31  2  1  0
 21 10  1  0
 31 22  1  0
 20 13  1  0
  1 32  1  0
  1 33  1  0
  1 34  1  0
  5 35  1  0
  6 36  1  0
  6 37  1  0
  9 38  1  0
 10 39  1  0
 11 40  1  0
 11 41  1  0
 13 42  1  6
 14 43  1  0
 14 44  1  0
 15 45  1  0
 15 46  1  0
 16 47  1  6
 17 48  1  0
 17 49  1  0
 18 50  1  0
 19 51  1  0
 19 52  1  0
 20 53  1  0
 20 54  1  0
 21 55  1  0
 21 56  1  0
 23 57  1  0
 29 58  1  0
 30 59  1  0
M  END
$$$$
