@<TRIPOS>MOLECULE
*****
 50 52 0 0 0
SMALL
GASTEIGER

@<TRIPOS>ATOM
      1 C          -0.3970   -2.9163   -0.7217 C.2     1  UNL1       -0.0951
      2 C           0.8306   -2.6264   -1.0243 C.2     1  UNL1       -0.0472
      3 C           1.4971   -3.4321   -2.0800 C.3     1  UNL1       -0.0396
      4 C           1.5438   -1.5243   -0.4354 C.ar    1  UNL1        0.0166
      5 C           2.9387   -1.5753   -0.5617 C.ar    1  UNL1        0.0374
      6 N           3.7160   -0.6542   -0.0613 N.ar    1  UNL1       -0.2542
      7 C           3.2279    0.4277    0.6223 C.ar    1  UNL1        0.0755
      8 C           4.2126    1.3634    1.1209 C.ar    1  UNL1        0.0369
      9 C           5.5710    1.1470    0.9011 C.ar    1  UNL1       -0.0314
     10 C           6.5277    2.0156    1.3611 C.ar    1  UNL1        0.0418
     11 CL          8.2292    1.7281    1.0759 Cl      1  UNL1       -0.0835
     12 C           6.1766    3.1377    2.0600 C.ar    1  UNL1       -0.0406
     13 C           4.8578    3.3760    2.2903 C.ar    1  UNL1       -0.0244
     14 C           3.8810    2.4832    1.8171 C.ar    1  UNL1        0.1326
     15 F           2.6123    2.8413    2.1163 F       1  UNL1       -0.2048
     16 C           1.8721    0.5103    0.7614 C.ar    1  UNL1       -0.0138
     17 C           1.0312   -0.4654    0.2292 C.ar    1  UNL1        0.0423
     18 N          -0.3943   -0.2616    0.3890 N.pl3   1  UNL1       -0.3133
     19 C          -1.1325    0.0422   -0.7621 C.ar    1  UNL1        0.0465
     20 C          -0.4536    0.1927   -1.9846 C.ar    1  UNL1       -0.0217
     21 C          -1.1014    0.4832   -3.1595 C.ar    1  UNL1        0.0293
     22 N          -2.4328    0.6241   -3.1126 N.ar    1  UNL1       -0.2624
     23 C          -3.1447    0.4970   -1.9952 C.ar    1  UNL1        0.0415
     24 C          -2.4942    0.1989   -0.7822 C.ar    1  UNL1        0.0758
     25 C          -3.2668    0.0546    0.4274 C.2     1  UNL1        0.2474
     26 O          -2.7351   -0.2266    1.5151 O.2     1  UNL1       -0.2701
     27 N          -4.6810    0.2212    0.4688 N.am    1  UNL1       -0.3091
     28 C          -5.4214    0.0630    1.7274 C.3     1  UNL1        0.0351
     29 C          -6.8854    0.2999    1.4451 C.3     1  UNL1        0.0597
     30 O          -7.3675   -0.6188    0.5011 O.3     1  UNL1       -0.3935
     31 H          -1.0525   -2.4780   -0.0055 H       1  UNL1        0.0538
     32 H          -0.8612   -3.7616   -1.2952 H       1  UNL1        0.0538
     33 H           2.0312   -2.8042   -2.8168 H       1  UNL1        0.0278
     34 H           2.2932   -4.0654   -1.5886 H       1  UNL1        0.0278
     35 H           0.7939   -4.0959   -2.6069 H       1  UNL1        0.0278
     36 H           3.4046   -2.4269   -1.1032 H       1  UNL1        0.0836
     37 H           5.8914    0.2741    0.3544 H       1  UNL1        0.0639
     38 H           6.9359    3.8124    2.4162 H       1  UNL1        0.0633
     39 H           4.5577    4.2608    2.8429 H       1  UNL1        0.0647
     40 H           1.4373    1.3329    1.2853 H       1  UNL1        0.0658
     41 H          -0.7170   -0.3576    1.3353 H       1  UNL1        0.1522
     42 H           0.6280    0.0819   -2.0053 H       1  UNL1        0.0651
     43 H          -0.5229    0.5886   -4.0788 H       1  UNL1        0.0830
     44 H          -4.2005    0.6168   -2.0033 H       1  UNL1        0.0838
     45 H          -5.1808    0.4563   -0.4024 H       1  UNL1        0.1491
     46 H          -5.1078    0.8436    2.4549 H       1  UNL1        0.0485
     47 H          -5.2528   -0.9099    2.1937 H       1  UNL1        0.0485
     48 H          -7.1020    1.3072    1.0970 H       1  UNL1        0.0573
     49 H          -7.4388    0.1669    2.4101 H       1  UNL1        0.0573
     50 H          -7.3546   -0.2481   -0.4048 H       1  UNL1        0.2095
@<TRIPOS>BOND
     1     1     2    2
     2     2     3    1
     3     2     4    1
     4     4     5   ar
     5     5     6   ar
     6     6     7   ar
     7     7     8    1
     8     8     9   ar
     9     9    10   ar
    10    10    11    1
    11    10    12   ar
    12    12    13   ar
    13    13    14   ar
    14    14    15    1
    15     7    16   ar
    16    16    17   ar
    17    17    18    1
    18    18    19    1
    19    19    20   ar
    20    20    21   ar
    21    21    22   ar
    22    22    23   ar
    23    23    24   ar
    24    24    25    1
    25    25    26    2
    26    25    27   am
    27    27    28    1
    28    28    29    1
    29    29    30    1
    30    17     4   ar
    31    24    19   ar
    32    14     8   ar
    33     1    31    1
    34     1    32    1
    35     3    33    1
    36     3    34    1
    37     3    35    1
    38     5    36    1
    39     9    37    1
    40    12    38    1
    41    13    39    1
    42    16    40    1
    43    18    41    1
    44    20    42    1
    45    21    43    1
    46    23    44    1
    47    27    45    1
    48    28    46    1
    49    28    47    1
    50    29    48    1
    51    29    49    1
    52    30    50    1
