
     RDKit          3D

 50 52  0  0  0  0  0  0  0  0999 V2000
   -0.3970   -2.9163   -0.7217 C   0  0  0  0  0  0  0  0  0  0  0  0
    0.8306   -2.6264   -1.0243 C   0  0  0  0  0  0  0  0  0  0  0  0
    1.4971   -3.4321   -2.0800 C   0  0  0  0  0  0  0  0  0  0  0  0
    1.5438   -1.5243   -0.4354 C   0  0  0  0  0  0  0  0  0  0  0  0
    2.9387   -1.5753   -0.5617 C   0  0  0  0  0  0  0  0  0  0  0  0
    3.7160   -0.6542   -0.0613 N   0  0  0  0  0  0  0  0  0  0  0  0
    3.2279    0.4277    0.6223 C   0  0  0  0  0  0  0  0  0  0  0  0
    4.2126    1.3634    1.1209 C   0  0  0  0  0  0  0  0  0  0  0  0
    5.5710    1.1470    0.9011 C   0  0  0  0  0  0  0  0  0  0  0  0
    6.5277    2.0156    1.3611 C   0  0  0  0  0  0  0  0  0  0  0  0
    8.2292    1.7281    1.0759 Cl  0  0  0  0  0  0  0  0  0  0  0  0
    6.1766    3.1377    2.0600 C   0  0  0  0  0  0  0  0  0  0  0  0
    4.8578    3.3760    2.2903 C   0  0  0  0  0  0  0  0  0  0  0  0
    3.8810    2.4832    1.8171 C   0  0  0  0  0  0  0  0  0  0  0  0
    2.6123    2.8413    2.1163 F   0  0  0  0  0  0  0  0  0  0  0  0
    1.8721    0.5103    0.7614 C   0  0  0  0  0  0  0  0  0  0  0  0
    1.0312   -0.4654    0.2292 C   0  0  0  0  0  0  0  0  0  0  0  0
   -0.3943   -0.2616    0.3890 N   0  0  0  0  0  0  0  0  0  0  0  0
   -1.1325    0.0422   -0.7621 C   0  0  0  0  0  0  0  0  0  0  0  0
   -0.4536    0.1927   -1.9846 C   0  0  0  0  0  0  0  0  0  0  0  0
   -1.1014    0.4832   -3.1595 C   0  0  0  0  0  0  0  0  0  0  0  0
   -2.4328    0.6241   -3.1126 N   0  0  0  0  0  0  0  0  0  0  0  0
   -3.1447    0.4970   -1.9952 C   0  0  0  0  0  0  0  0  0  0  0  0
   -2.4942    0.1989   -0.7822 C   0  0  0  0  0  0  0  0  0  0  0  0
   -3.2668    0.0546    0.4274 C   0  0  0  0  0  0  0  0  0  0  0  0
   -2.7351   -0.2266    1.5151 O   0  0  0  0  0  0  0  0  0  0  0  0
   -4.6810    0.2212    0.4688 N   0  0  0  0  0  0  0  0  0  0  0  0
   -5.4214    0.0630    1.7274 C   0  0  0  0  0  0  0  0  0  0  0  0
   -6.8854    0.2999    1.4451 C   0  0  0  0  0  0  0  0  0  0  0  0
   -7.3675   -0.6188    0.5011 O   0  0  0  0  0  0  0  0  0  0  0  0
   -1.0525   -2.4780   -0.0055 H   0  0  0  0  0  0  0  0  0  0  0  0
   -0.8612   -3.7616   -1.2952 H   0  0  0  0  0  0  0  0  0  0  0  0
    2.0312   -2.8042   -2.8168 H   0  0  0  0  0  0  0  0  0  0  0  0
    2.2932   -4.0654   -1.5886 H   0  0  0  0  0  0  0  0  0  0  0  0
    0.7939   -4.0959   -2.6069 H   0  0  0  0  0  0  0  0  0  0  0  0
    3.4046   -2.4269   -1.1032 H   0  0  0  0  0  0  0  0  0  0  0  0
    5.8914    0.2741    0.3544 H   0  0  0  0  0  0  0  0  0  0  0  0
    6.9359    3.8124    2.4162 H   0  0  0  0  0  0  0  0  0  0  0  0
    4.5577    4.2608    2.8429 H   0  0  0  0  0  0  0  0  0  0  0  0
    1.4373    1.3329    1.2853 H   0  0  0  0  0  0  0  0  0  0  0  0
   -0.7170   -0.3576    1.3353 H   0  0  0  0  0  0  0  0  0  0  0  0
    0.6280    0.0819   -2.0053 H   0  0  0  0  0  0  0  0  0  0  0  0
   -0.5229    0.5886   -4.0788 H   0  0  0  0  0  0  0  0  0  0  0  0
   -4.2005    0.6168   -2.0033 H   0  0  0  0  0  0  0  0  0  0  0  0
   -5.1808    0.4563   -0.4024 H   0  0  0  0  0  0  0  0  0  0  0  0
   -5.1078    0.8436    2.4549 H   0  0  0  0  0  0  0  0  0  0  0  0
   -5.2528   -0.9099    2.1937 H   0  0  0  0  0  0  0  0  0  0  0  0
   -7.1020    1.3072    1.0970 H   0  0  0  0  0  0  0  0  0  0  0  0
   -7.4388    0.1669    2.4101 H   0  0  0  0  0  0  0  0  0  0  0  0
   -7.3546   -0.2481   -0.4048 H   0  0  0  0  0  0  0  0  0  0  0  0
  1  2  2  3
  2  3  1  0
  2  4  1  0
  4  5  2  0
  5  6  1  0
  6  7  2  0
  7  8  1  0
  8  9  2  0
  9 10  1  0
 10 11  1  0
 10 12  2  0
 12 13  1  0
 13 14  2  0
 14 15  1  0
  7 16  1  0
 16 17  2  0
 17 18  1  0
 18 19  1  0
 19 20  2  0
 20 21  1  0
 21 22  2  0
 22 23  1  0
 23 24  2  0
 24 25  1  0
 25 26  2  0
 25 27  1  0
 27 28  1  0
 28 29  1  0
 29 30  1  0
 17  4  1  0
 24 19  1  0
 14  8  1  0
  1 31  1  0
  1 32  1  0
  3 33  1  0
  3 34  1  0
  3 35  1  0
  5 36  1  0
  9 37  1  0
 12 38  1  0
 13 39  1  0
 16 40  1  0
 18 41  1  0
 20 42  1  0
 21 43  1  0
 23 44  1  0
 27 45  1  0
 28 46  1  0
 28 47  1  0
 29 48  1  0
 29 49  1  0
 30 50  1  0
M  END
$$$$
