
     RDKit          3D

 48 53  0  0  0  0  0  0  0  0999 V2000
   -1.9519   -1.0928   -0.9254 C   0  0  1  0  0  0  0  0  0  0  0  0
   -2.3923    0.0532   -0.0447 C   0  0  0  0  0  0  0  0  0  0  0  0
   -1.5911    1.2663   -0.2488 C   0  0  0  0  0  0  0  0  0  0  0  0
   -0.3631    1.1375   -0.8618 C   0  0  0  0  0  0  0  0  0  0  0  0
    0.1516    2.3909   -0.9216 N   0  0  0  0  0  0  0  0  0  0  0  0
   -0.7025    3.2819   -0.3746 C   0  0  0  0  0  0  0  0  0  0  0  0
   -0.7124    4.6411   -0.1649 C   0  0  0  0  0  0  0  0  0  0  0  0
   -1.7787    5.2883    0.4480 C   0  0  0  0  0  0  0  0  0  0  0  0
   -2.8620    4.5347    0.8580 C   0  0  0  0  0  0  0  0  0  0  0  0
   -2.9170    3.1674    0.6785 C   0  0  0  0  0  0  0  0  0  0  0  0
   -1.8199    2.5908    0.0614 C   0  0  0  0  0  0  0  0  0  0  0  0
    0.2978   -0.0898   -1.3662 C   0  0  2  0  0  0  0  0  0  0  0  0
   -0.4900   -1.2252   -0.9265 N   0  0  0  0  0  0  0  0  0  0  0  0
    0.1135   -2.4414   -0.5045 C   0  0  0  0  0  0  0  0  0  0  0  0
    1.2040   -2.7646   -1.0498 O   0  0  0  0  0  0  0  0  0  0  0  0
   -0.5684   -3.2478    0.5401 C   0  0  0  0  0  0  0  0  0  0  0  0
   -1.9999   -3.2536    0.3476 N   0  0  0  0  0  0  0  0  0  0  0  0
   -2.7859   -4.2061    1.1045 C   0  0  0  0  0  0  0  0  0  0  0  0
   -2.6185   -2.3433   -0.5650 C   0  0  0  0  0  0  0  0  0  0  0  0
   -3.7432   -2.6595   -1.0371 O   0  0  0  0  0  0  0  0  0  0  0  0
    1.7046   -0.1778   -0.9080 C   0  0  0  0  0  0  0  0  0  0  0  0
    1.9626   -0.5389    0.3990 C   0  0  0  0  0  0  0  0  0  0  0  0
    3.2880   -0.6060    0.7747 C   0  0  0  0  0  0  0  0  0  0  0  0
    4.2970   -0.3234   -0.1226 C   0  0  0  0  0  0  0  0  0  0  0  0
    5.5434   -0.4510    0.4592 O   0  0  0  0  0  0  0  0  0  0  0  0
    5.3452   -0.8016    1.8166 C   0  0  0  0  0  0  0  0  0  0  0  0
    3.9418   -0.9192    1.9529 O   0  0  0  0  0  0  0  0  0  0  0  0
    4.0354    0.0362   -1.4249 C   0  0  0  0  0  0  0  0  0  0  0  0
    2.7099    0.1070   -1.8133 C   0  0  0  0  0  0  0  0  0  0  0  0
   -2.2355   -0.8277   -1.9648 H   0  0  0  0  0  0  0  0  0  0  0  0
   -2.4403   -0.2584    1.0081 H   0  0  0  0  0  0  0  0  0  0  0  0
   -3.4549    0.2823   -0.3501 H   0  0  0  0  0  0  0  0  0  0  0  0
    1.0571    2.7491   -1.3052 H   0  0  0  0  0  0  0  0  0  0  0  0
    0.1319    5.2074   -0.4876 H   0  0  0  0  0  0  0  0  0  0  0  0
   -1.7234    6.3551    0.5821 H   0  0  0  0  0  0  0  0  0  0  0  0
   -3.7044    4.9967    1.3347 H   0  0  0  0  0  0  0  0  0  0  0  0
   -3.7610    2.5523    0.9937 H   0  0  0  0  0  0  0  0  0  0  0  0
    0.2227   -0.0990   -2.4791 H   0  0  0  0  0  0  0  0  0  0  0  0
   -0.1385   -4.2640    0.5077 H   0  0  0  0  0  0  0  0  0  0  0  0
   -0.3693   -2.8229    1.5670 H   0  0  0  0  0  0  0  0  0  0  0  0
   -2.7688   -5.1659    0.5586 H   0  0  0  0  0  0  0  0  0  0  0  0
   -2.3440   -4.3169    2.1327 H   0  0  0  0  0  0  0  0  0  0  0  0
   -3.8344   -3.8547    1.2120 H   0  0  0  0  0  0  0  0  0  0  0  0
    1.1768   -0.7618    1.1076 H   0  0  0  0  0  0  0  0  0  0  0  0
    5.8759   -1.7722    1.9636 H   0  0  0  0  0  0  0  0  0  0  0  0
    5.7878   -0.0138    2.4640 H   0  0  0  0  0  0  0  0  0  0  0  0
    4.7727    0.2723   -2.1853 H   0  0  0  0  0  0  0  0  0  0  0  0
    2.4514    0.3891   -2.8406 H   0  0  0  0  0  0  0  0  0  0  0  0
  1  2  1  0
  2  3  1  0
  3  4  2  0
  4  5  1  0
  5  6  1  0
  6  7  2  0
  7  8  1  0
  8  9  2  0
  9 10  1  0
 10 11  2  0
  4 12  1  0
 12 13  1  0
 13 14  1  0
 14 15  2  0
 14 16  1  0
 16 17  1  0
 17 18  1  0
 17 19  1  0
 19 20  2  0
 12 21  1  0
 21 22  2  0
 22 23  1  0
 23 24  2  0
 24 25  1  0
 25 26  1  0
 26 27  1  0
 24 28  1  0
 28 29  2  0
 13  1  1  0
 29 21  1  0
 19  1  1  0
 27 23  1  0
 11  3  1  0
 11  6  1  0
  1 30  1  6
  2 31  1  0
  2 32  1  0
  5 33  1  0
  7 34  1  0
  8 35  1  0
  9 36  1  0
 10 37  1  0
 12 38  1  6
 16 39  1  0
 16 40  1  0
 18 41  1  0
 18 42  1  0
 18 43  1  0
 22 44  1  0
 26 45  1  0
 26 46  1  0
 28 47  1  0
 29 48  1  0
M  END
$$$$
