
     RDKit          3D

 69 71  0  0  0  0  0  0  0  0999 V2000
    0.0035   -1.3790   -1.7815 C   0  0  1  0  0  0  0  0  0  0  0  0
    0.7576   -0.4726   -2.7282 C   0  0  0  0  0  0  0  0  0  0  0  0
    0.7035   -2.6847   -1.5419 C   0  0  0  0  0  0  0  0  0  0  0  0
    0.8955   -3.4733   -2.8152 C   0  0  0  0  0  0  0  0  0  0  0  0
   -0.1379   -0.6123   -0.4783 C   0  0  2  0  0  0  0  0  0  0  0  0
    1.2459   -0.3533   -0.0593 N   0  0  0  0  0  0  0  0  0  0  0  0
    1.6827    0.9791   -0.0088 C   0  0  0  0  0  0  0  0  0  0  0  0
    1.2042    2.1133   -0.2339 O   0  0  0  0  0  0  0  0  0  0  0  0
    3.0587    1.4373    0.3951 C   0  0  1  0  0  0  0  0  0  0  0  0
    3.5473    0.8358    1.5512 O   0  0  0  0  0  0  0  0  0  0  0  0
    4.1681    0.4779    0.3558 C   0  0  2  0  0  0  0  0  0  0  0  0
    5.5481    0.9590    0.1107 C   0  0  0  0  0  0  0  0  0  0  0  0
    6.0809    0.0107   -0.4911 O   0  0  0  0  0  0  0  0  0  0  0  0
    6.1803    2.1468    0.4310 N   0  0  0  0  0  0  0  0  0  0  0  0
    7.4415    2.7923    0.3078 C   0  0  0  0  0  0  0  0  0  0  0  0
    8.5705    2.1201    1.0134 C   0  0  0  0  0  0  0  0  0  0  0  0
    8.8223    0.7471    0.4756 C   0  0  0  0  0  0  0  0  0  0  0  0
   -0.8215   -1.4016    0.5798 C   0  0  0  0  0  0  0  0  0  0  0  0
   -0.4404   -1.8673    1.6864 O   0  0  0  0  0  0  0  0  0  0  0  0
   -2.1297   -1.9053    0.7197 N   0  0  0  0  0  0  0  0  0  0  0  0
   -2.4248   -2.6517    1.9267 C   0  0  0  0  0  0  0  0  0  0  0  0
   -3.6311   -3.4628    1.5161 C   0  0  0  0  0  0  0  0  0  0  0  0
   -3.8887   -3.2148    0.0665 C   0  0  0  0  0  0  0  0  0  0  0  0
   -3.3179   -1.8334   -0.1298 C   0  0  1  0  0  0  0  0  0  0  0  0
   -4.3117   -0.8746    0.4755 C   0  0  0  0  0  0  0  0  0  0  0  0
   -4.0308   -0.2973    1.5495 O   0  0  0  0  0  0  0  0  0  0  0  0
   -5.5103   -0.6137   -0.1091 O   0  0  0  0  0  0  0  0  0  0  0  0
   -6.5360    0.2223    0.2890 C   0  0  0  0  0  0  0  0  0  0  0  0
   -6.2147    1.6455    0.4266 C   0  0  0  0  0  0  0  0  0  0  0  0
   -5.7785    2.3079    1.5562 C   0  0  0  0  0  0  0  0  0  0  0  0
   -5.4940    3.6479    1.6027 C   0  0  0  0  0  0  0  0  0  0  0  0
   -5.6403    4.4251    0.4649 C   0  0  0  0  0  0  0  0  0  0  0  0
   -6.0733    3.8208   -0.6959 C   0  0  0  0  0  0  0  0  0  0  0  0
   -6.3485    2.4678   -0.6981 C   0  0  0  0  0  0  0  0  0  0  0  0
   -0.9689   -1.6150   -2.2570 H   0  0  0  0  0  0  0  0  0  0  0  0
    0.4260    0.5842   -2.5336 H   0  0  0  0  0  0  0  0  0  0  0  0
    1.8405   -0.5103   -2.6065 H   0  0  0  0  0  0  0  0  0  0  0  0
    0.4678   -0.6706   -3.7817 H   0  0  0  0  0  0  0  0  0  0  0  0
    1.7085   -2.5585   -1.0896 H   0  0  0  0  0  0  0  0  0  0  0  0
    0.1202   -3.2800   -0.8315 H   0  0  0  0  0  0  0  0  0  0  0  0
    0.1209   -3.2983   -3.5670 H   0  0  0  0  0  0  0  0  0  0  0  0
    1.9219   -3.3069   -3.2086 H   0  0  0  0  0  0  0  0  0  0  0  0
    0.8567   -4.5595   -2.5467 H   0  0  0  0  0  0  0  0  0  0  0  0
   -0.5810    0.3795   -0.6572 H   0  0  0  0  0  0  0  0  0  0  0  0
    1.9842   -1.0334    0.2195 H   0  0  0  0  0  0  0  0  0  0  0  0
    3.2258    2.5346    0.3774 H   0  0  0  0  0  0  0  0  0  0  0  0
    3.9403   -0.5389   -0.0247 H   0  0  0  0  0  0  0  0  0  0  0  0
    5.4146    2.6894    0.9204 H   0  0  0  0  0  0  0  0  0  0  0  0
    7.7217    2.9346   -0.7798 H   0  0  0  0  0  0  0  0  0  0  0  0
    7.3267    3.8143    0.7104 H   0  0  0  0  0  0  0  0  0  0  0  0
    8.2882    2.0652    2.1078 H   0  0  0  0  0  0  0  0  0  0  0  0
    9.4609    2.7869    0.8994 H   0  0  0  0  0  0  0  0  0  0  0  0
    8.6315    0.7698   -0.6007 H   0  0  0  0  0  0  0  0  0  0  0  0
    8.2450    0.0290    1.0581 H   0  0  0  0  0  0  0  0  0  0  0  0
    9.9179    0.5255    0.6666 H   0  0  0  0  0  0  0  0  0  0  0  0
   -1.5895   -3.2886    2.2775 H   0  0  0  0  0  0  0  0  0  0  0  0
   -2.6926   -1.8721    2.6913 H   0  0  0  0  0  0  0  0  0  0  0  0
   -3.3987   -4.5287    1.7417 H   0  0  0  0  0  0  0  0  0  0  0  0
   -4.5173   -3.1100    2.1190 H   0  0  0  0  0  0  0  0  0  0  0  0
   -3.4868   -3.9749   -0.6228 H   0  0  0  0  0  0  0  0  0  0  0  0
   -4.9814   -3.1246   -0.1381 H   0  0  0  0  0  0  0  0  0  0  0  0
   -3.0958   -1.5894   -1.1627 H   0  0  0  0  0  0  0  0  0  0  0  0
   -7.3769    0.1513   -0.4315 H   0  0  0  0  0  0  0  0  0  0  0  0
   -6.9615   -0.1890    1.2478 H   0  0  0  0  0  0  0  0  0  0  0  0
   -5.6662    1.7031    2.4454 H   0  0  0  0  0  0  0  0  0  0  0  0
   -5.1559    4.1152    2.5130 H   0  0  0  0  0  0  0  0  0  0  0  0
   -5.4409    5.4770    0.4119 H   0  0  0  0  0  0  0  0  0  0  0  0
   -6.2034    4.3926   -1.6157 H   0  0  0  0  0  0  0  0  0  0  0  0
   -6.6831    2.0376   -1.6225 H   0  0  0  0  0  0  0  0  0  0  0  0
  1  2  1  0
  1  3  1  0
  3  4  1  0
  1  5  1  0
  5  6  1  0
  6  7  1  0
  7  8  2  0
  7  9  1  0
  9 10  1  0
 10 11  1  0
 11 12  1  0
 12 13  2  0
 12 14  1  0
 14 15  1  0
 15 16  1  0
 16 17  1  0
  5 18  1  0
 18 19  2  0
 18 20  1  0
 20 21  1  0
 21 22  1  0
 22 23  1  0
 23 24  1  0
 24 25  1  0
 25 26  2  0
 25 27  1  0
 27 28  1  0
 28 29  1  0
 29 30  2  0
 30 31  1  0
 31 32  2  0
 32 33  1  0
 33 34  2  0
 11  9  1  0
 24 20  1  0
 34 29  1  0
  1 35  1  6
  2 36  1  0
  2 37  1  0
  2 38  1  0
  3 39  1  0
  3 40  1  0
  4 41  1  0
  4 42  1  0
  4 43  1  0
  5 44  1  6
  6 45  1  0
  9 46  1  1
 11 47  1  6
 14 48  1  0
 15 49  1  0
 15 50  1  0
 16 51  1  0
 16 52  1  0
 17 53  1  0
 17 54  1  0
 17 55  1  0
 21 56  1  0
 21 57  1  0
 22 58  1  0
 22 59  1  0
 23 60  1  0
 23 61  1  0
 24 62  1  6
 28 63  1  0
 28 64  1  0
 30 65  1  0
 31 66  1  0
 32 67  1  0
 33 68  1  0
 34 69  1  0
M  END
$$$$
