@<TRIPOS>MOLECULE
*****
 69 71 0 0 0
SMALL
GASTEIGER

@<TRIPOS>ATOM
      1 C           0.0035   -1.3790   -1.7815 C.3     1  UNL1       -0.0171
      2 C           0.7576   -0.4726   -2.7282 C.3     1  UNL1       -0.0603
      3 C           0.7035   -2.6847   -1.5419 C.3     1  UNL1       -0.0512
      4 C           0.8955   -3.4733   -2.8152 C.3     1  UNL1       -0.0650
      5 C          -0.1379   -0.6123   -0.4783 C.3     1  UNL1        0.1022
      6 N           1.2459   -0.3533   -0.0593 N.am    1  UNL1       -0.3015
      7 C           1.6827    0.9791   -0.0088 C.2     1  UNL1        0.2456
      8 O           1.2042    2.1133   -0.2339 O.2     1  UNL1       -0.2728
      9 C           3.0587    1.4373    0.3951 C.3     1  UNL1        0.1698
     10 O           3.5473    0.8358    1.5512 O.3     1  UNL1       -0.3487
     11 C           4.1681    0.4779    0.3558 C.3     1  UNL1        0.1698
     12 C           5.5481    0.9590    0.1107 C.2     1  UNL1        0.2450
     13 O           6.0809    0.0107   -0.4911 O.2     1  UNL1       -0.2729
     14 N           6.1803    2.1468    0.4310 N.am    1  UNL1       -0.3131
     15 C           7.4415    2.7923    0.3078 C.3     1  UNL1        0.0114
     16 C           8.5705    2.1201    1.0134 C.3     1  UNL1       -0.0402
     17 C           8.8223    0.7471    0.4756 C.3     1  UNL1       -0.0639
     18 C          -0.8215   -1.4016    0.5798 C.2     1  UNL1        0.2368
     19 O          -0.4404   -1.8673    1.6864 O.2     1  UNL1       -0.2735
     20 N          -2.1297   -1.9053    0.7197 N.am    1  UNL1       -0.2865
     21 C          -2.4248   -2.6517    1.9267 C.3     1  UNL1        0.0157
     22 C          -3.6311   -3.4628    1.5161 C.3     1  UNL1       -0.0349
     23 C          -3.8887   -3.2148    0.0665 C.3     1  UNL1       -0.0225
     24 C          -3.3179   -1.8334   -0.1298 C.3     1  UNL1        0.1230
     25 C          -4.3117   -0.8746    0.4755 C.2     1  UNL1        0.3282
     26 O          -4.0308   -0.2973    1.5495 O.2     1  UNL1       -0.2487
     27 O          -5.5103   -0.6137   -0.1091 O.3     1  UNL1       -0.4586
     28 C          -6.5360    0.2223    0.2890 C.3     1  UNL1        0.1176
     29 C          -6.2147    1.6455    0.4266 C.ar    1  UNL1       -0.0103
     30 C          -5.7785    2.3079    1.5562 C.ar    1  UNL1       -0.0554
     31 C          -5.4940    3.6479    1.6027 C.ar    1  UNL1       -0.0614
     32 C          -5.6403    4.4251    0.4649 C.ar    1  UNL1       -0.0617
     33 C          -6.0733    3.8208   -0.6959 C.ar    1  UNL1       -0.0614
     34 C          -6.3485    2.4678   -0.6981 C.ar    1  UNL1       -0.0554
     35 H          -0.9689   -1.6150   -2.2570 H       1  UNL1        0.0321
     36 H           0.4260    0.5842   -2.5336 H       1  UNL1        0.0233
     37 H           1.8405   -0.5103   -2.6065 H       1  UNL1        0.0233
     38 H           0.4678   -0.6706   -3.7817 H       1  UNL1        0.0233
     39 H           1.7085   -2.5585   -1.0896 H       1  UNL1        0.0266
     40 H           0.1202   -3.2800   -0.8315 H       1  UNL1        0.0266
     41 H           0.1209   -3.2983   -3.5670 H       1  UNL1        0.0230
     42 H           1.9219   -3.3069   -3.2086 H       1  UNL1        0.0230
     43 H           0.8567   -4.5595   -2.5467 H       1  UNL1        0.0230
     44 H          -0.5810    0.3795   -0.6572 H       1  UNL1        0.0597
     45 H           1.9842   -1.0334    0.2195 H       1  UNL1        0.1495
     46 H           3.2258    2.5346    0.3774 H       1  UNL1        0.0725
     47 H           3.9403   -0.5389   -0.0247 H       1  UNL1        0.0725
     48 H           5.4146    2.6894    0.9204 H       1  UNL1        0.1488
     49 H           7.7217    2.9346   -0.7798 H       1  UNL1        0.0462
     50 H           7.3267    3.8143    0.7104 H       1  UNL1        0.0462
     51 H           8.2882    2.0652    2.1078 H       1  UNL1        0.0278
     52 H           9.4609    2.7869    0.8994 H       1  UNL1        0.0278
     53 H           8.6315    0.7698   -0.6007 H       1  UNL1        0.0230
     54 H           8.2450    0.0290    1.0581 H       1  UNL1        0.0230
     55 H           9.9179    0.5255    0.6666 H       1  UNL1        0.0230
     56 H          -1.5895   -3.2886    2.2775 H       1  UNL1        0.0465
     57 H          -2.6926   -1.8721    2.6913 H       1  UNL1        0.0465
     58 H          -3.3987   -4.5287    1.7417 H       1  UNL1        0.0281
     59 H          -4.5173   -3.1100    2.1190 H       1  UNL1        0.0281
     60 H          -3.4868   -3.9749   -0.6228 H       1  UNL1        0.0289
     61 H          -4.9814   -3.1246   -0.1381 H       1  UNL1        0.0289
     62 H          -3.0958   -1.5894   -1.1627 H       1  UNL1        0.0616
     63 H          -7.3769    0.1513   -0.4315 H       1  UNL1        0.0749
     64 H          -6.9615   -0.1890    1.2478 H       1  UNL1        0.0749
     65 H          -5.6662    1.7031    2.4454 H       1  UNL1        0.0621
     66 H          -5.1559    4.1152    2.5130 H       1  UNL1        0.0618
     67 H          -5.4409    5.4770    0.4119 H       1  UNL1        0.0618
     68 H          -6.2034    4.3926   -1.6157 H       1  UNL1        0.0618
     69 H          -6.6831    2.0376   -1.6225 H       1  UNL1        0.0621
@<TRIPOS>BOND
     1     1     2    1
     2     1     3    1
     3     3     4    1
     4     1     5    1
     5     5     6    1
     6     6     7   am
     7     7     8    2
     8     7     9    1
     9     9    10    1
    10    10    11    1
    11    11    12    1
    12    12    13    2
    13    12    14   am
    14    14    15    1
    15    15    16    1
    16    16    17    1
    17     5    18    1
    18    18    19    2
    19    18    20   am
    20    20    21    1
    21    21    22    1
    22    22    23    1
    23    23    24    1
    24    24    25    1
    25    25    26    2
    26    25    27    1
    27    27    28    1
    28    28    29    1
    29    29    30   ar
    30    30    31   ar
    31    31    32   ar
    32    32    33   ar
    33    33    34   ar
    34    11     9    1
    35    24    20    1
    36    34    29   ar
    37     1    35    1
    38     2    36    1
    39     2    37    1
    40     2    38    1
    41     3    39    1
    42     3    40    1
    43     4    41    1
    44     4    42    1
    45     4    43    1
    46     5    44    1
    47     6    45    1
    48     9    46    1
    49    11    47    1
    50    14    48    1
    51    15    49    1
    52    15    50    1
    53    16    51    1
    54    16    52    1
    55    17    53    1
    56    17    54    1
    57    17    55    1
    58    21    56    1
    59    21    57    1
    60    22    58    1
    61    22    59    1
    62    23    60    1
    63    23    61    1
    64    24    62    1
    65    28    63    1
    66    28    64    1
    67    30    65    1
    68    31    66    1
    69    32    67    1
    70    33    68    1
    71    34    69    1
