
     RDKit          3D

 55 59  0  0  0  0  0  0  0  0999 V2000
    1.9994   -2.1859    0.2124 C   0  0  0  0  0  0  0  0  0  0  0  0
    3.1165   -1.5177    0.9508 C   0  0  0  0  0  0  0  0  0  0  0  0
    3.7536   -0.4254    0.2702 N   0  0  0  0  0  0  0  0  0  0  0  0
    4.7559    0.2021    1.1553 C   0  0  0  0  0  0  0  0  0  0  0  0
    5.1083    1.5257    0.5165 C   0  0  0  0  0  0  0  0  0  0  0  0
    4.8242    1.4946   -0.9073 N   0  0  0  0  0  0  0  0  0  0  0  0
    5.2360    0.2398   -1.4955 C   0  0  0  0  0  0  0  0  0  0  0  0
    4.5941   -0.9535   -0.8412 C   0  0  0  0  0  0  0  0  0  0  0  0
    0.8728   -1.3200   -0.0669 N   0  0  0  0  0  0  0  0  0  0  0  0
    0.6844   -0.1392   -0.8253 C   0  0  0  0  0  0  0  0  0  0  0  0
   -0.5101    0.5338   -0.9463 C   0  0  0  0  0  0  0  0  0  0  0  0
   -0.6271    1.6666   -1.7094 C   0  0  0  0  0  0  0  0  0  0  0  0
   -1.8562    2.0262   -1.6002 O   0  0  0  0  0  0  0  0  0  0  0  0
   -2.5771    1.2409   -0.8346 C   0  0  0  0  0  0  0  0  0  0  0  0
   -1.7299    0.2418   -0.3806 C   0  0  0  0  0  0  0  0  0  0  0  0
   -2.2311   -0.7876    0.4933 C   0  0  0  0  0  0  0  0  0  0  0  0
   -2.8138   -1.9800    0.0396 C   0  0  0  0  0  0  0  0  0  0  0  0
   -3.3173   -2.9818    0.8188 C   0  0  0  0  0  0  0  0  0  0  0  0
   -3.2327   -2.7777    2.1663 C   0  0  0  0  0  0  0  0  0  0  0  0
   -2.6877   -1.6585    2.7523 C   0  0  0  0  0  0  0  0  0  0  0  0
   -2.2032   -0.6970    1.8931 C   0  0  0  0  0  0  0  0  0  0  0  0
   -3.9726    1.4562   -0.5748 C   0  0  0  0  0  0  0  0  0  0  0  0
   -4.2582    2.6747    0.0557 C   0  0  0  0  0  0  0  0  0  0  0  0
   -5.5685    3.0194    0.3699 C   0  0  0  0  0  0  0  0  0  0  0  0
   -6.5418    2.1146    0.0327 C   0  0  0  0  0  0  0  0  0  0  0  0
   -6.3366    0.8948   -0.5895 C   0  0  0  0  0  0  0  0  0  0  0  0
   -5.0161    0.6079   -0.8765 C   0  0  0  0  0  0  0  0  0  0  0  0
    0.4686    2.1145   -2.3477 N   0  0  0  0  0  0  0  0  0  0  0  0
    1.6400    1.4506   -2.2257 C   0  0  0  0  0  0  0  0  0  0  0  0
    1.7270    0.3483   -1.4757 N   0  0  0  0  0  0  0  0  0  0  0  0
    2.4412   -2.5811   -0.7403 H   0  0  0  0  0  0  0  0  0  0  0  0
    1.6507   -3.0742    0.7565 H   0  0  0  0  0  0  0  0  0  0  0  0
    3.9096   -2.2520    1.1825 H   0  0  0  0  0  0  0  0  0  0  0  0
    2.7876   -1.1279    1.9501 H   0  0  0  0  0  0  0  0  0  0  0  0
    5.6030   -0.4947    1.2263 H   0  0  0  0  0  0  0  0  0  0  0  0
    4.3184    0.3195    2.1534 H   0  0  0  0  0  0  0  0  0  0  0  0
    6.1924    1.6847    0.6624 H   0  0  0  0  0  0  0  0  0  0  0  0
    4.5783    2.3883    0.9446 H   0  0  0  0  0  0  0  0  0  0  0  0
    5.3848    2.2516   -1.3429 H   0  0  0  0  0  0  0  0  0  0  0  0
    4.8888    0.2447   -2.5574 H   0  0  0  0  0  0  0  0  0  0  0  0
    6.3475    0.2008   -1.4485 H   0  0  0  0  0  0  0  0  0  0  0  0
    5.3934   -1.5821   -0.4014 H   0  0  0  0  0  0  0  0  0  0  0  0
    4.0144   -1.5684   -1.5301 H   0  0  0  0  0  0  0  0  0  0  0  0
    0.0179   -1.6334    0.3858 H   0  0  0  0  0  0  0  0  0  0  0  0
   -2.8537   -2.0871   -1.0562 H   0  0  0  0  0  0  0  0  0  0  0  0
   -3.7462   -3.8624    0.3868 H   0  0  0  0  0  0  0  0  0  0  0  0
   -3.6113   -3.5290    2.8622 H   0  0  0  0  0  0  0  0  0  0  0  0
   -2.5949   -1.4449    3.8001 H   0  0  0  0  0  0  0  0  0  0  0  0
   -1.7474    0.2364    2.2446 H   0  0  0  0  0  0  0  0  0  0  0  0
   -3.4810    3.4053    0.3288 H   0  0  0  0  0  0  0  0  0  0  0  0
   -5.8194    3.9535    0.8566 H   0  0  0  0  0  0  0  0  0  0  0  0
   -7.5874    2.3591    0.2683 H   0  0  0  0  0  0  0  0  0  0  0  0
   -7.1372    0.2240   -0.8305 H   0  0  0  0  0  0  0  0  0  0  0  0
   -4.7371   -0.3231   -1.3648 H   0  0  0  0  0  0  0  0  0  0  0  0
    2.4867    1.8642   -2.7667 H   0  0  0  0  0  0  0  0  0  0  0  0
  1  2  1  0
  2  3  1  0
  3  4  1  0
  4  5  1  0
  5  6  1  0
  6  7  1  0
  7  8  1  0
  1  9  1  0
  9 10  1  0
 10 11  1  0
 11 12  2  0
 12 13  1  0
 13 14  1  0
 14 15  2  0
 15 16  1  0
 16 17  2  0
 17 18  1  0
 18 19  2  0
 19 20  1  0
 20 21  2  0
 14 22  1  0
 22 23  2  0
 23 24  1  0
 24 25  2  0
 25 26  1  0
 26 27  2  0
 12 28  1  0
 28 29  2  0
 29 30  1  0
  8  3  1  0
 30 10  2  0
 15 11  1  0
 21 16  1  0
 27 22  1  0
  1 31  1  0
  1 32  1  0
  2 33  1  0
  2 34  1  0
  4 35  1  0
  4 36  1  0
  5 37  1  0
  5 38  1  0
  6 39  1  0
  7 40  1  0
  7 41  1  0
  8 42  1  0
  8 43  1  0
  9 44  1  0
 17 45  1  0
 18 46  1  0
 19 47  1  0
 20 48  1  0
 21 49  1  0
 23 50  1  0
 24 51  1  0
 25 52  1  0
 26 53  1  0
 27 54  1  0
 29 55  1  0
M  END
$$$$
