@<TRIPOS>MOLECULE
*****
 33 35 0 0 0
SMALL
GASTEIGER

@<TRIPOS>ATOM
      1 N          -5.3863   -3.1809    0.7985 N.1     1  UNL1       -0.1909
      2 C          -4.4742   -2.5159    0.4719 C.1     1  UNL1        0.0992
      3 C          -3.3680   -1.6942    0.0510 C.ar    1  UNL1        0.0518
      4 C          -3.3295   -1.1090   -1.1990 C.ar    1  UNL1       -0.0440
      5 C          -2.2215   -0.3385   -1.5042 C.ar    1  UNL1       -0.0550
      6 C          -1.1890   -0.1636   -0.5831 C.ar    1  UNL1       -0.0186
      7 C          -1.2658   -0.7660    0.6568 C.ar    1  UNL1       -0.0550
      8 C          -2.3582   -1.5406    0.9909 C.ar    1  UNL1       -0.0440
      9 C           0.0242    0.6580   -0.8682 C.3     1  UNL1        0.1042
     10 N          -0.2218    2.0353   -0.4585 N.ar    1  UNL1       -0.2402
     11 C           0.7085    2.9372   -0.1669 C.ar    1  UNL1        0.1153
     12 N           0.0792    4.0984    0.1695 N.ar    1  UNL1       -0.2228
     13 C          -1.2344    3.8605    0.0698 C.ar    1  UNL1        0.1380
     14 N          -1.4314    2.5916   -0.3167 N.ar    1  UNL1       -0.1575
     15 C           1.2520    0.0904   -0.2576 C.ar    1  UNL1       -0.0186
     16 C           1.7401    0.3723    0.9998 C.ar    1  UNL1       -0.0550
     17 C           2.8951   -0.2078    1.4821 C.ar    1  UNL1       -0.0440
     18 C           3.5902   -1.1035    0.6795 C.ar    1  UNL1        0.0518
     19 C           3.1496   -1.4301   -0.5996 C.ar    1  UNL1       -0.0440
     20 C           1.9861   -0.8104   -1.0147 C.ar    1  UNL1       -0.0550
     21 C           4.8052   -1.7324    1.1495 C.1     1  UNL1        0.0992
     22 N           5.7841   -2.2320    1.5068 N.1     1  UNL1       -0.1909
     23 H          -4.1376   -1.2554   -1.8990 H       1  UNL1        0.0630
     24 H          -2.1336    0.1487   -2.4743 H       1  UNL1        0.0621
     25 H          -0.4899   -0.6662    1.4192 H       1  UNL1        0.0621
     26 H          -2.4161   -2.0158    1.9722 H       1  UNL1        0.0630
     27 H           0.1534    0.6770   -1.9821 H       1  UNL1        0.0646
     28 H           1.7839    2.7864   -0.1894 H       1  UNL1        0.1044
     29 H          -2.0240    4.5902    0.2728 H       1  UNL1        0.1065
     30 H           1.1764    1.0675    1.5883 H       1  UNL1        0.0621
     31 H           3.2378    0.0382    2.4611 H       1  UNL1        0.0630
     32 H           3.6698   -2.1239   -1.2471 H       1  UNL1        0.0630
     33 H           1.6457   -1.0655   -2.0086 H       1  UNL1        0.0621
@<TRIPOS>BOND
     1     1     2    3
     2     2     3    1
     3     3     4   ar
     4     4     5   ar
     5     5     6   ar
     6     6     7   ar
     7     7     8   ar
     8     6     9    1
     9     9    10    1
    10    10    11   ar
    11    11    12   ar
    12    12    13   ar
    13    13    14   ar
    14     9    15    1
    15    15    16   ar
    16    16    17   ar
    17    17    18   ar
    18    18    19   ar
    19    19    20   ar
    20    18    21    1
    21    21    22    3
    22     8     3   ar
    23    14    10   ar
    24    20    15   ar
    25     4    23    1
    26     5    24    1
    27     7    25    1
    28     8    26    1
    29     9    27    1
    30    11    28    1
    31    13    29    1
    32    16    30    1
    33    17    31    1
    34    19    32    1
    35    20    33    1
