@<TRIPOS>MOLECULE
*****
 53 56 0 0 0
SMALL
GASTEIGER

@<TRIPOS>ATOM
      1 C          -1.4227    0.7657   -0.3379 C.3     1  UNL1       -0.0286
      2 C          -2.2744    1.9832   -0.3038 C.3     1  UNL1       -0.0458
      3 C          -3.5654    1.4068   -0.8459 C.3     1  UNL1       -0.0118
      4 C          -3.5055   -0.0980   -0.6267 C.3     1  UNL1        0.1319
      5 O          -4.6418   -0.5690    0.0187 O.3     1  UNL1       -0.3760
      6 C          -3.4673   -0.7293   -1.9479 C.1     1  UNL1       -0.0704
      7 C          -3.4525   -1.2374   -3.0413 C.1     1  UNL1       -0.1163
      8 C          -2.2432   -0.3535    0.1709 C.3     1  UNL1        0.0136
      9 C          -2.4928   -0.4247    1.6223 C.3     1  UNL1       -0.0464
     10 C          -3.1818    0.6679    2.3198 C.3     1  UNL1       -0.0646
     11 C          -1.5354   -1.6344   -0.2103 C.3     1  UNL1       -0.0433
     12 C          -0.0884   -1.5953   -0.3901 C.3     1  UNL1       -0.0488
     13 C           0.6685   -0.3381   -0.2488 C.3     1  UNL1       -0.0314
     14 C           2.0085   -0.5137    0.4540 C.3     1  UNL1       -0.0161
     15 C           2.8976   -1.3263   -0.4874 C.3     1  UNL1       -0.0407
     16 C           4.2663   -1.5422    0.1134 C.3     1  UNL1       -0.0067
     17 C           4.8759   -0.2449    0.5061 C.2     1  UNL1        0.0799
     18 C           4.0085    0.9095    0.7104 C.2     1  UNL1       -0.0378
     19 C           2.6810    0.7689    0.6834 C.2     1  UNL1       -0.0644
     20 C           1.9148    1.9930    0.9003 C.3     1  UNL1       -0.0309
     21 C           0.6832    2.0834    0.0035 C.3     1  UNL1       -0.0460
     22 C          -0.1174    0.8180    0.3389 C.3     1  UNL1       -0.0339
     23 N           6.1571   -0.1882    0.6523 N.2     1  UNL1       -0.0921
     24 O           6.8455   -1.3617    0.4247 O.2     1  UNL1       -0.4090
     25 H          -1.2516    0.5684   -1.4267 H       1  UNL1        0.0310
     26 H          -2.3620    2.5066    0.6484 H       1  UNL1        0.0269
     27 H          -1.8085    2.7229   -1.0064 H       1  UNL1        0.0269
     28 H          -3.5653    1.6624   -1.9384 H       1  UNL1        0.0303
     29 H          -4.4781    1.8813   -0.4553 H       1  UNL1        0.0303
     30 H          -4.6941   -1.5537   -0.1524 H       1  UNL1        0.2114
     31 H          -3.4397   -1.6799   -4.0184 H       1  UNL1        0.1229
     32 H          -3.1147   -1.3621    1.7594 H       1  UNL1        0.0269
     33 H          -1.5687   -0.6606    2.1587 H       1  UNL1        0.0269
     34 H          -4.0043    1.1810    1.7900 H       1  UNL1        0.0230
     35 H          -3.7040    0.2429    3.2305 H       1  UNL1        0.0230
     36 H          -2.4575    1.3775    2.7760 H       1  UNL1        0.0230
     37 H          -2.0727   -1.9802   -1.1426 H       1  UNL1        0.0272
     38 H          -1.8151   -2.4587    0.5034 H       1  UNL1        0.0272
     39 H           0.1649   -2.0669   -1.3896 H       1  UNL1        0.0268
     40 H           0.4212   -2.3306    0.3065 H       1  UNL1        0.0268
     41 H           0.9561    0.0385   -1.2604 H       1  UNL1        0.0309
     42 H           1.8810   -1.1397    1.3436 H       1  UNL1        0.0349
     43 H           2.4400   -2.2718   -0.7756 H       1  UNL1        0.0275
     44 H           3.0148   -0.7124   -1.4040 H       1  UNL1        0.0275
     45 H           4.9156   -1.9540   -0.6863 H       1  UNL1        0.0329
     46 H           4.2580   -2.2829    0.9215 H       1  UNL1        0.0329
     47 H           4.5335    1.8440    0.8776 H       1  UNL1        0.0636
     48 H           2.4951    2.9187    0.8611 H       1  UNL1        0.0310
     49 H           1.5023    1.9276    1.9471 H       1  UNL1        0.0310
     50 H           0.0755    2.9482    0.3310 H       1  UNL1        0.0271
     51 H           0.9507    2.1393   -1.0640 H       1  UNL1        0.0271
     52 H          -0.1199    0.7497    1.4247 H       1  UNL1        0.0307
     53 H           7.8287   -1.4951    0.6868 H       1  UNL1        0.3278
@<TRIPOS>BOND
     1     1     2    1
     2     2     3    1
     3     3     4    1
     4     4     5    1
     5     4     6    1
     6     6     7    3
     7     4     8    1
     8     8     9    1
     9     9    10    1
    10     8    11    1
    11    11    12    1
    12    12    13    1
    13    13    14    1
    14    14    15    1
    15    15    16    1
    16    16    17    1
    17    17    18    1
    18    18    19    2
    19    19    20    1
    20    20    21    1
    21    21    22    1
    22    17    23    2
    23    23    24    1
    24     8     1    1
    25    22    13    1
    26    22     1    1
    27    19    14    1
    28     1    25    1
    29     2    26    1
    30     2    27    1
    31     3    28    1
    32     3    29    1
    33     5    30    1
    34     7    31    1
    35     9    32    1
    36     9    33    1
    37    10    34    1
    38    10    35    1
    39    10    36    1
    40    11    37    1
    41    11    38    1
    42    12    39    1
    43    12    40    1
    44    13    41    1
    45    14    42    1
    46    15    43    1
    47    15    44    1
    48    16    45    1
    49    16    46    1
    50    18    47    1
    51    20    48    1
    52    20    49    1
    53    21    50    1
    54    21    51    1
    55    22    52    1
    56    24    53    1
