@<TRIPOS>MOLECULE
*****
 59 63 0 0 0
SMALL
GASTEIGER

@<TRIPOS>ATOM
      1 C           0.2415    2.1695    1.2892 C.3     1  UNL1       -0.0376
      2 C          -0.9460    1.3620    0.9227 C.ar    1  UNL1       -0.0222
      3 C          -2.1905    1.6313    1.4449 C.ar    1  UNL1       -0.0418
      4 C          -3.3098    0.8645    1.0943 C.ar    1  UNL1        0.0674
      5 C          -4.6141    1.1416    1.6677 C.2     1  UNL1        0.3148
      6 N          -4.7131    1.3683    2.9619 N.2     1  UNL1       -0.0790
      7 C          -6.0589    1.6198    3.3499 C.3     1  UNL1        0.1676
      8 C          -6.8294    1.7199    2.0893 C.3     1  UNL1        0.1219
      9 N          -5.8731    1.2449    1.0750 N.pl3   1  UNL1       -0.2192
     10 C          -6.1932    0.9586   -0.2942 C.3     1  UNL1        0.0698
     11 C          -3.0714   -0.1544    0.2088 C.ar    1  UNL1       -0.0214
     12 C          -1.8405   -0.4521   -0.3333 C.ar    1  UNL1        0.0675
     13 N          -1.3836   -1.3965   -1.2110 N.ar    1  UNL1       -0.3377
     14 C          -0.0475   -1.2435   -1.4123 C.ar    1  UNL1        0.1463
     15 C           0.8062   -2.0544   -2.2722 C.ar    1  UNL1        0.1022
     16 C           2.1472   -1.8166   -2.3978 C.ar    1  UNL1        0.0446
     17 N           2.7841   -0.7579   -1.7025 N.pl3   1  UNL1       -0.3403
     18 C           4.2332   -0.5803   -1.8933 C.3     1  UNL1        0.0393
     19 C           4.7481    0.5919   -1.1031 C.3     1  UNL1        0.0956
     20 O           4.0978    1.7702   -1.5290 O.3     1  UNL1       -0.3856
     21 C           4.5479    0.4400    0.3567 C.ar    1  UNL1       -0.0163
     22 C           4.7471    1.5337    1.1662 C.ar    1  UNL1       -0.0560
     23 C           4.5719    1.4474    2.5463 C.ar    1  UNL1       -0.0600
     24 C           4.1943    0.2411    3.0831 C.ar    1  UNL1       -0.0434
     25 C           3.9994   -0.8443    2.2604 C.ar    1  UNL1        0.0413
     26 CL          3.5118   -2.4176    2.9112 Cl      1  UNL1       -0.0835
     27 C           4.1700   -0.7764    0.8739 C.ar    1  UNL1       -0.0377
     28 C           2.9366   -2.6298   -3.2369 C.ar    1  UNL1       -0.0239
     29 C           2.4006   -3.6595   -3.9377 C.ar    1  UNL1        0.0067
     30 N           1.0866   -3.8886   -3.8119 N.ar    1  UNL1       -0.3284
     31 C           0.3129   -3.1154   -3.0082 C.ar    1  UNL1        0.2612
     32 O          -0.8883   -3.4030   -2.9565 O.2     1  UNL1       -0.2671
     33 N           0.2685   -0.1974   -0.6398 N.ar    1  UNL1       -0.2272
     34 C          -0.7581    0.3140    0.0252 C.ar    1  UNL1        0.0924
     35 H           0.6353    1.8077    2.2789 H       1  UNL1        0.0278
     36 H           1.0369    2.0348    0.5288 H       1  UNL1        0.0278
     37 H          -0.0007    3.2570    1.3440 H       1  UNL1        0.0278
     38 H          -2.3651    2.4320    2.1364 H       1  UNL1        0.0629
     39 H          -6.1814    2.5735    3.9223 H       1  UNL1        0.0829
     40 H          -6.3710    0.7620    4.0025 H       1  UNL1        0.0829
     41 H          -7.6594    0.9814    2.0808 H       1  UNL1        0.0767
     42 H          -7.1764    2.7465    1.8451 H       1  UNL1        0.0767
     43 H          -7.3233    1.0828   -0.3981 H       1  UNL1        0.0689
     44 H          -5.8085    1.7723   -0.9884 H       1  UNL1        0.0689
     45 H          -6.0212   -0.0609   -0.6434 H       1  UNL1        0.0689
     46 H          -3.8889   -0.8141   -0.1116 H       1  UNL1        0.0647
     47 H          -2.0264   -2.1025   -1.6271 H       1  UNL1        0.1674
     48 H           2.3548   -0.0900   -1.0726 H       1  UNL1        0.1462
     49 H           4.7065   -1.5265   -1.6374 H       1  UNL1        0.0490
     50 H           4.4667   -0.3629   -2.9639 H       1  UNL1        0.0490
     51 H           5.8257    0.7466   -1.2982 H       1  UNL1        0.0659
     52 H           3.2199    1.8697   -1.0736 H       1  UNL1        0.2103
     53 H           5.0424    2.4873    0.7731 H       1  UNL1        0.0621
     54 H           4.7274    2.3038    3.1669 H       1  UNL1        0.0618
     55 H           4.0501    0.1422    4.1647 H       1  UNL1        0.0632
     56 H           4.0058   -1.6451    0.2660 H       1  UNL1        0.0636
     57 H           3.9795   -2.4330   -3.3251 H       1  UNL1        0.0651
     58 H           2.9926   -4.3101   -4.5999 H       1  UNL1        0.0808
     59 H           0.6907   -4.6859   -4.3571 H       1  UNL1        0.1683
@<TRIPOS>BOND
     1     1     2    1
     2     2     3   ar
     3     3     4   ar
     4     4     5    1
     5     5     6    2
     6     6     7    1
     7     7     8    1
     8     8     9    1
     9     9    10    1
    10     4    11   ar
    11    11    12   ar
    12    12    13   ar
    13    13    14   ar
    14    14    15    1
    15    15    16   ar
    16    16    17    1
    17    17    18    1
    18    18    19    1
    19    19    20    1
    20    19    21    1
    21    21    22   ar
    22    22    23   ar
    23    23    24   ar
    24    24    25   ar
    25    25    26    1
    26    25    27   ar
    27    16    28   ar
    28    28    29   ar
    29    29    30   ar
    30    30    31   ar
    31    31    32    2
    32    14    33   ar
    33    33    34   ar
    34    34     2   ar
    35     9     5    1
    36    34    12   ar
    37    31    15   ar
    38    27    21   ar
    39     1    35    1
    40     1    36    1
    41     1    37    1
    42     3    38    1
    43     7    39    1
    44     7    40    1
    45     8    41    1
    46     8    42    1
    47    10    43    1
    48    10    44    1
    49    10    45    1
    50    11    46    1
    51    13    47    1
    52    17    48    1
    53    18    49    1
    54    18    50    1
    55    19    51    1
    56    20    52    1
    57    22    53    1
    58    23    54    1
    59    24    55    1
    60    27    56    1
    61    28    57    1
    62    29    58    1
    63    30    59    1
