@<TRIPOS>MOLECULE
*****
 75 80 0 0 0
SMALL
GASTEIGER

@<TRIPOS>ATOM
      1 C          -7.3816   -4.5269   -0.2008 C.3     1  UNL1       -0.0151
      2 N          -6.2545   -3.6261   -0.4134 N.3     1  UNL1       -0.3089
      3 C          -6.1535   -2.7742    0.7439 C.3     1  UNL1        0.0820
      4 C          -5.9221   -3.6375    1.9473 C.3     1  UNL1       -0.0411
      5 C          -5.0912   -1.7858    0.5272 C.2     1  UNL1        0.2350
      6 O          -4.8678   -0.9528    1.4463 O.2     1  UNL1       -0.2737
      7 N          -4.3649   -1.8009   -0.6886 N.am    1  UNL1       -0.2691
      8 C          -3.3310   -0.8539   -0.9260 C.ar    1  UNL1        0.1263
      9 C          -3.6376    0.3600   -1.5263 C.ar    1  UNL1       -0.0208
     10 C          -2.6578    1.3014   -1.7728 C.ar    1  UNL1       -0.0466
     11 C          -1.3727    0.9642   -1.3902 C.ar    1  UNL1        0.0349
     12 C          -0.2769    1.9032   -1.6201 C.ar    1  UNL1        0.0837
     13 C          -0.0080    3.0230   -0.8624 C.ar    1  UNL1        0.0980
     14 C          -0.6975    3.5247    0.3171 C.ar    1  UNL1        0.0089
     15 C          -2.0026    3.9412    0.3701 C.ar    1  UNL1       -0.0341
     16 C          -2.5871    4.4078    1.5275 C.ar    1  UNL1        0.0320
     17 N          -1.8659    4.4686    2.6764 N.ar    1  UNL1       -0.2213
     18 C          -0.5887    4.0711    2.6654 C.ar    1  UNL1        0.2150
     19 O           0.1306    4.1403    3.8430 O.3     1  UNL1       -0.4796
     20 C          -0.3435    4.5916    5.0773 C.3     1  UNL1        0.0804
     21 C           0.0151    3.6000    1.5139 C.ar    1  UNL1        0.0092
     22 N           1.0829    3.5789   -1.4602 N.ar    1  UNL1       -0.2272
     23 C           1.4339    2.8210   -2.5153 C.ar    1  UNL1        0.1390
     24 C           2.4601    2.9738   -3.4204 C.ar    1  UNL1       -0.0158
     25 C           2.6115    2.0519   -4.4247 C.ar    1  UNL1       -0.0456
     26 C           3.6963    2.1829   -5.4117 C.3     1  UNL1       -0.0395
     27 C           1.7239    0.9717   -4.5159 C.ar    1  UNL1       -0.0421
     28 C           0.7011    0.8355   -3.5994 C.ar    1  UNL1        0.0120
     29 N           0.6080    1.7746   -2.6388 N.ar    1  UNL1       -0.2986
     30 C          -1.0664   -0.2468   -0.7905 C.ar    1  UNL1        0.1250
     31 C           0.2917   -0.5732   -0.3829 C.1     1  UNL1       -0.0404
     32 C           1.4176   -0.8400   -0.0379 C.1     1  UNL1       -0.0595
     33 C           2.7509   -1.1809    0.3663 C.ar    1  UNL1        0.0259
     34 C           3.8752   -0.5006   -0.0461 C.ar    1  UNL1       -0.0457
     35 C           5.1494   -0.8513    0.3584 C.ar    1  UNL1       -0.0512
     36 C           5.3135   -1.9082    1.1970 C.ar    1  UNL1        0.0032
     37 C           6.5923   -2.2440    1.5903 C.ar    1  UNL1        0.0459
     38 C           7.7442   -1.4524    1.0951 C.3     1  UNL1       -0.0218
     39 N           6.7883   -3.2867    2.4205 N.ar    1  UNL1       -0.2595
     40 C           5.7281   -3.9923    2.8590 C.ar    1  UNL1        0.0285
     41 C           4.4255   -3.6765    2.4790 C.ar    1  UNL1       -0.0358
     42 C           4.2076   -2.6131    1.6302 C.ar    1  UNL1       -0.0136
     43 C           2.9244   -2.2510    1.2161 C.ar    1  UNL1       -0.0385
     44 N          -2.0513   -1.1345   -0.5693 N.ar    1  UNL1       -0.2229
     45 H          -7.6771   -5.0493   -1.1333 H       1  UNL1        0.0388
     46 H          -7.0915   -5.2731    0.5631 H       1  UNL1        0.0388
     47 H          -8.2624   -3.9661    0.2228 H       1  UNL1        0.0388
     48 H          -5.4217   -4.2329   -0.5449 H       1  UNL1        0.1223
     49 H          -7.1092   -2.2040    0.9162 H       1  UNL1        0.0554
     50 H          -6.8776   -3.7756    2.4895 H       1  UNL1        0.0249
     51 H          -5.2096   -3.1743    2.6716 H       1  UNL1        0.0249
     52 H          -5.5111   -4.6458    1.6850 H       1  UNL1        0.0249
     53 H          -4.6125   -2.5245   -1.3980 H       1  UNL1        0.1563
     54 H          -4.6432    0.5941   -1.8110 H       1  UNL1        0.0652
     55 H          -2.8734    2.2609   -2.2427 H       1  UNL1        0.0626
     56 H          -2.6043    3.9089   -0.5211 H       1  UNL1        0.0639
     57 H          -3.6123    4.7374    1.5862 H       1  UNL1        0.0831
     58 H          -0.2294    5.7029    5.1063 H       1  UNL1        0.0660
     59 H           0.3700    4.2175    5.8560 H       1  UNL1        0.0660
     60 H          -1.3568    4.2596    5.3269 H       1  UNL1        0.0660
     61 H           1.0511    3.2847    1.5358 H       1  UNL1        0.0677
     62 H           3.1199    3.8144   -3.3197 H       1  UNL1        0.0657
     63 H           3.5747    3.1311   -5.9548 H       1  UNL1        0.0278
     64 H           3.7442    1.2970   -6.0739 H       1  UNL1        0.0278
     65 H           4.6737    2.2324   -4.8549 H       1  UNL1        0.0278
     66 H           1.8135    0.2269   -5.2947 H       1  UNL1        0.0635
     67 H           0.0021    0.0111   -3.6464 H       1  UNL1        0.0813
     68 H           3.7652    0.3431   -0.7117 H       1  UNL1        0.0630
     69 H           5.9918   -0.2662   -0.0092 H       1  UNL1        0.0625
     70 H           8.7044   -1.9632    1.3440 H       1  UNL1        0.0293
     71 H           7.7749   -0.4544    1.6071 H       1  UNL1        0.0293
     72 H           7.7296   -1.3432   -0.0104 H       1  UNL1        0.0293
     73 H           5.9269   -4.8219    3.5243 H       1  UNL1        0.0830
     74 H           3.5824   -4.2484    2.8358 H       1  UNL1        0.0639
     75 H           2.1177   -2.8564    1.6031 H       1  UNL1        0.0636
@<TRIPOS>BOND
     1     1     2    1
     2     2     3    1
     3     3     4    1
     4     3     5    1
     5     5     6    2
     6     5     7   am
     7     7     8    1
     8     8     9   ar
     9     9    10   ar
    10    10    11   ar
    11    11    12    1
    12    12    13   ar
    13    13    14    1
    14    14    15   ar
    15    15    16   ar
    16    16    17   ar
    17    17    18   ar
    18    18    19    1
    19    19    20    1
    20    18    21   ar
    21    13    22   ar
    22    22    23   ar
    23    23    24   ar
    24    24    25   ar
    25    25    26    1
    26    25    27   ar
    27    27    28   ar
    28    28    29   ar
    29    11    30   ar
    30    30    31    1
    31    31    32    3
    32    32    33    1
    33    33    34   ar
    34    34    35   ar
    35    35    36   ar
    36    36    37   ar
    37    37    38    1
    38    37    39   ar
    39    39    40   ar
    40    40    41   ar
    41    41    42   ar
    42    42    43   ar
    43    30    44   ar
    44    44     8   ar
    45    29    12   ar
    46    43    33   ar
    47    21    14   ar
    48    29    23   ar
    49    42    36   ar
    50     1    45    1
    51     1    46    1
    52     1    47    1
    53     2    48    1
    54     3    49    1
    55     4    50    1
    56     4    51    1
    57     4    52    1
    58     7    53    1
    59     9    54    1
    60    10    55    1
    61    15    56    1
    62    16    57    1
    63    20    58    1
    64    20    59    1
    65    20    60    1
    66    21    61    1
    67    24    62    1
    68    26    63    1
    69    26    64    1
    70    26    65    1
    71    27    66    1
    72    28    67    1
    73    34    68    1
    74    35    69    1
    75    38    70    1
    76    38    71    1
    77    38    72    1
    78    40    73    1
    79    41    74    1
    80    43    75    1
