
     RDKit          3D

 48 51  0  0  0  0  0  0  0  0999 V2000
   -4.7639   -2.3507   -2.2736 C   0  0  0  0  0  0  0  0  0  0  0  0
   -3.7569   -1.4417   -1.6454 C   0  0  0  0  0  0  0  0  0  0  0  0
   -3.0726   -2.0945   -0.4361 C   0  0  0  0  0  0  0  0  0  0  0  0
   -2.5207   -0.8737    0.1851 N   0  0  0  0  0  0  0  0  0  0  0  0
   -1.2371   -0.7115    0.7223 C   0  0  0  0  0  0  0  0  0  0  0  0
   -0.4666   -1.7448    0.6483 O   0  0  0  0  0  0  0  0  0  0  0  0
   -0.6491    0.4631    1.3520 C   0  0  0  0  0  0  0  0  0  0  0  0
    0.7939    0.2364    1.7260 C   0  0  0  0  0  0  0  0  0  0  0  0
    1.8033    0.5131    0.8845 N   0  0  0  0  0  0  0  0  0  0  0  0
    3.0937    0.3149    1.2075 C   0  0  0  0  0  0  0  0  0  0  0  0
    4.1522    0.6140    0.3025 N   0  0  0  0  0  0  0  0  0  0  0  0
    5.5313    0.4126    0.6182 C   0  0  0  0  0  0  0  0  0  0  0  0
    6.3426    1.0604   -0.5053 C   0  0  0  0  0  0  0  0  0  0  0  0
    6.0241    0.4429   -1.6979 O   0  0  0  0  0  0  0  0  0  0  0  0
    4.6898    0.4449   -2.0094 C   0  0  0  0  0  0  0  0  0  0  0  0
    3.8202    1.1492   -1.0039 C   0  0  0  0  0  0  0  0  0  0  0  0
    3.4229   -0.1928    2.4484 C   0  0  0  0  0  0  0  0  0  0  0  0
    2.3842   -0.4786    3.3170 C   0  0  0  0  0  0  0  0  0  0  0  0
    2.6773   -0.9362    4.4361 O   0  0  0  0  0  0  0  0  0  0  0  0
    1.0974   -0.2563    2.9325 N   0  0  0  0  0  0  0  0  0  0  0  0
   -3.5785    0.0678    0.0975 C   0  0  0  0  0  0  0  0  0  0  0  0
   -3.8723    1.1377    0.9119 C   0  0  0  0  0  0  0  0  0  0  0  0
   -4.9638    1.9257    0.6306 C   0  0  0  0  0  0  0  0  0  0  0  0
   -5.7509    1.6231   -0.4754 C   0  0  0  0  0  0  0  0  0  0  0  0
   -5.4514    0.5496   -1.2875 C   0  0  0  0  0  0  0  0  0  0  0  0
   -4.3667   -0.2409   -1.0157 C   0  0  0  0  0  0  0  0  0  0  0  0
   -5.3675   -2.9260   -1.5567 H   0  0  0  0  0  0  0  0  0  0  0  0
   -4.1977   -3.0848   -2.8989 H   0  0  0  0  0  0  0  0  0  0  0  0
   -5.3675   -1.7578   -2.9777 H   0  0  0  0  0  0  0  0  0  0  0  0
   -2.9963   -1.1661   -2.4124 H   0  0  0  0  0  0  0  0  0  0  0  0
   -3.8659   -2.5362    0.1763 H   0  0  0  0  0  0  0  0  0  0  0  0
   -2.2880   -2.7761   -0.7616 H   0  0  0  0  0  0  0  0  0  0  0  0
   -0.7024    1.3181    0.6552 H   0  0  0  0  0  0  0  0  0  0  0  0
   -1.1353    0.7785    2.3011 H   0  0  0  0  0  0  0  0  0  0  0  0
    5.8368    0.8362    1.5881 H   0  0  0  0  0  0  0  0  0  0  0  0
    5.8304   -0.6609    0.6242 H   0  0  0  0  0  0  0  0  0  0  0  0
    7.4061    0.8426   -0.2767 H   0  0  0  0  0  0  0  0  0  0  0  0
    6.2230    2.1546   -0.5248 H   0  0  0  0  0  0  0  0  0  0  0  0
    4.4984    0.8653   -3.0228 H   0  0  0  0  0  0  0  0  0  0  0  0
    4.3504   -0.6305   -2.0149 H   0  0  0  0  0  0  0  0  0  0  0  0
    2.7631    0.9337   -1.2579 H   0  0  0  0  0  0  0  0  0  0  0  0
    4.0153    2.2541   -1.0122 H   0  0  0  0  0  0  0  0  0  0  0  0
    4.4519   -0.3422    2.6840 H   0  0  0  0  0  0  0  0  0  0  0  0
    0.3095   -0.4708    3.5856 H   0  0  0  0  0  0  0  0  0  0  0  0
   -3.2831    1.3921    1.7733 H   0  0  0  0  0  0  0  0  0  0  0  0
   -5.1903    2.7717    1.2801 H   0  0  0  0  0  0  0  0  0  0  0  0
   -6.5947    2.2574   -0.6669 H   0  0  0  0  0  0  0  0  0  0  0  0
   -6.0787    0.3132   -2.1639 H   0  0  0  0  0  0  0  0  0  0  0  0
  1  2  1  0
  2  3  1  0
  3  4  1  0
  4  5  1  0
  5  6  2  0
  5  7  1  0
  7  8  1  0
  8  9  2  0
  9 10  1  0
 10 11  1  0
 11 12  1  0
 12 13  1  0
 13 14  1  0
 14 15  1  0
 15 16  1  0
 10 17  2  0
 17 18  1  0
 18 19  2  0
 18 20  1  0
  4 21  1  0
 21 22  2  0
 22 23  1  0
 23 24  2  0
 24 25  1  0
 25 26  2  0
 26  2  1  0
 20  8  1  0
 26 21  1  0
 16 11  1  0
  1 27  1  0
  1 28  1  0
  1 29  1  0
  2 30  1  0
  3 31  1  0
  3 32  1  0
  7 33  1  0
  7 34  1  0
 12 35  1  0
 12 36  1  0
 13 37  1  0
 13 38  1  0
 15 39  1  0
 15 40  1  0
 16 41  1  0
 16 42  1  0
 17 43  1  0
 20 44  1  0
 22 45  1  0
 23 46  1  0
 24 47  1  0
 25 48  1  0
M  END
$$$$
