@<TRIPOS>MOLECULE
*****
 48 51 0 0 0
SMALL
GASTEIGER

@<TRIPOS>ATOM
      1 C          -4.7639   -2.3507   -2.2736 C.3     1  UNL1       -0.0569
      2 C          -3.7569   -1.4417   -1.6454 C.3     1  UNL1       -0.0007
      3 C          -3.0726   -2.0945   -0.4361 C.3     1  UNL1        0.0264
      4 N          -2.5207   -0.8737    0.1851 N.am    1  UNL1       -0.2702
      5 C          -1.2371   -0.7115    0.7223 C.2     1  UNL1        0.2271
      6 O          -0.4666   -1.7448    0.6483 O.2     1  UNL1       -0.2748
      7 C          -0.6491    0.4631    1.3520 C.3     1  UNL1        0.0826
      8 C           0.7939    0.2364    1.7260 C.ar    1  UNL1        0.1206
      9 N           1.8033    0.5131    0.8845 N.ar    1  UNL1       -0.2186
     10 C           3.0937    0.3149    1.2075 C.ar    1  UNL1        0.1285
     11 N           4.1522    0.6140    0.3025 N.pl3   1  UNL1       -0.3106
     12 C           5.5313    0.4126    0.6182 C.3     1  UNL1        0.0370
     13 C           6.3426    1.0604   -0.5053 C.3     1  UNL1        0.0634
     14 O           6.0241    0.4429   -1.6979 O.3     1  UNL1       -0.3767
     15 C           4.6898    0.4449   -2.0094 C.3     1  UNL1        0.0634
     16 C           3.8202    1.1492   -1.0039 C.3     1  UNL1        0.0370
     17 C           3.4229   -0.1928    2.4484 C.ar    1  UNL1        0.0427
     18 C           2.3842   -0.4786    3.3170 C.ar    1  UNL1        0.2533
     19 O           2.6773   -0.9362    4.4361 O.2     1  UNL1       -0.2677
     20 N           1.0974   -0.2563    2.9325 N.ar    1  UNL1       -0.3104
     21 C          -3.5785    0.0678    0.0975 C.ar    1  UNL1        0.0398
     22 C          -3.8723    1.1377    0.9119 C.ar    1  UNL1       -0.0400
     23 C          -4.9638    1.9257    0.6306 C.ar    1  UNL1       -0.0600
     24 C          -5.7509    1.6231   -0.4754 C.ar    1  UNL1       -0.0614
     25 C          -5.4514    0.5496   -1.2875 C.ar    1  UNL1       -0.0565
     26 C          -4.3667   -0.2409   -1.0157 C.ar    1  UNL1       -0.0216
     27 H          -5.3675   -2.9260   -1.5567 H       1  UNL1        0.0236
     28 H          -4.1977   -3.0848   -2.8989 H       1  UNL1        0.0236
     29 H          -5.3675   -1.7578   -2.9777 H       1  UNL1        0.0236
     30 H          -2.9963   -1.1661   -2.4124 H       1  UNL1        0.0362
     31 H          -3.8659   -2.5362    0.1763 H       1  UNL1        0.0474
     32 H          -2.2880   -2.7761   -0.7616 H       1  UNL1        0.0474
     33 H          -0.7024    1.3181    0.6552 H       1  UNL1        0.0438
     34 H          -1.1353    0.7785    2.3011 H       1  UNL1        0.0438
     35 H           5.8368    0.8362    1.5881 H       1  UNL1        0.0487
     36 H           5.8304   -0.6609    0.6242 H       1  UNL1        0.0487
     37 H           7.4061    0.8426   -0.2767 H       1  UNL1        0.0575
     38 H           6.2230    2.1546   -0.5248 H       1  UNL1        0.0575
     39 H           4.4984    0.8653   -3.0228 H       1  UNL1        0.0575
     40 H           4.3504   -0.6305   -2.0149 H       1  UNL1        0.0575
     41 H           2.7631    0.9337   -1.2579 H       1  UNL1        0.0487
     42 H           4.0153    2.2541   -1.0122 H       1  UNL1        0.0487
     43 H           4.4519   -0.3422    2.6840 H       1  UNL1        0.0706
     44 H           0.3095   -0.4708    3.5856 H       1  UNL1        0.1700
     45 H          -3.2831    1.3921    1.7733 H       1  UNL1        0.0636
     46 H          -5.1903    2.7717    1.2801 H       1  UNL1        0.0618
     47 H          -6.5947    2.2574   -0.6669 H       1  UNL1        0.0618
     48 H          -6.0787    0.3132   -2.1639 H       1  UNL1        0.0621
@<TRIPOS>BOND
     1     1     2    1
     2     2     3    1
     3     3     4    1
     4     4     5   am
     5     5     6    2
     6     5     7    1
     7     7     8    1
     8     8     9   ar
     9     9    10   ar
    10    10    11    1
    11    11    12    1
    12    12    13    1
    13    13    14    1
    14    14    15    1
    15    15    16    1
    16    10    17   ar
    17    17    18   ar
    18    18    19    2
    19    18    20   ar
    20     4    21    1
    21    21    22   ar
    22    22    23   ar
    23    23    24   ar
    24    24    25   ar
    25    25    26   ar
    26    26     2    1
    27    20     8   ar
    28    26    21   ar
    29    16    11    1
    30     1    27    1
    31     1    28    1
    32     1    29    1
    33     2    30    1
    34     3    31    1
    35     3    32    1
    36     7    33    1
    37     7    34    1
    38    12    35    1
    39    12    36    1
    40    13    37    1
    41    13    38    1
    42    15    39    1
    43    15    40    1
    44    16    41    1
    45    16    42    1
    46    17    43    1
    47    20    44    1
    48    22    45    1
    49    23    46    1
    50    24    47    1
    51    25    48    1
