@<TRIPOS>MOLECULE
*****
 41 43 0 0 0
SMALL
GASTEIGER

@<TRIPOS>ATOM
      1 O          -1.8390   -0.4346    0.4848 O.2     1  UNL1       -0.2750
      2 C          -2.1226   -0.4685   -0.7258 C.2     1  UNL1        0.2245
      3 C          -1.1161   -0.9557   -1.7238 C.3     1  UNL1        0.0824
      4 C           0.1560   -1.3480   -1.0371 C.ar    1  UNL1        0.1206
      5 N           1.1528   -0.4889   -0.8281 N.ar    1  UNL1       -0.2186
      6 C           2.3145   -0.8065   -0.2126 C.ar    1  UNL1        0.1285
      7 N           3.3477    0.1594   -0.0172 N.pl3   1  UNL1       -0.3106
      8 C           3.1322    1.4967   -0.4909 C.3     1  UNL1        0.0370
      9 C           4.5107    2.0880   -0.8094 C.3     1  UNL1        0.0634
     10 O           5.2125    2.0533    0.4106 O.3     1  UNL1       -0.3767
     11 C           5.6263    0.7671    0.6651 C.3     1  UNL1        0.0634
     12 C           4.5521   -0.2543    0.6437 C.3     1  UNL1        0.0370
     13 C           2.4525   -2.1123    0.2182 C.ar    1  UNL1        0.0427
     14 C           1.4466   -3.0072    0.0152 C.ar    1  UNL1        0.2533
     15 O           1.6133   -4.1983    0.4267 O.2     1  UNL1       -0.2677
     16 N           0.3165   -2.6129   -0.6076 N.ar    1  UNL1       -0.3104
     17 N          -3.3780   -0.0575   -1.1961 N.am    1  UNL1       -0.2851
     18 C          -4.3495    0.4085   -0.2704 C.ar    1  UNL1        0.0349
     19 C          -4.4228    1.7427    0.0622 C.ar    1  UNL1       -0.0377
     20 C          -5.3609    2.2128    0.9600 C.ar    1  UNL1       -0.0232
     21 C          -6.2639    1.3602    1.5604 C.ar    1  UNL1        0.1417
     22 F          -7.1971    1.8083    2.4497 F       1  UNL1       -0.2040
     23 C          -6.1712    0.0284    1.2117 C.ar    1  UNL1        0.0778
     24 CL         -7.3006   -1.0883    1.9524 Cl      1  UNL1       -0.0805
     25 C          -5.2427   -0.4601    0.3183 C.ar    1  UNL1       -0.0193
     26 H          -0.9142   -0.1959   -2.5075 H       1  UNL1        0.0438
     27 H          -1.5899   -1.8217   -2.2348 H       1  UNL1        0.0438
     28 H           2.7348    2.1483    0.3415 H       1  UNL1        0.0487
     29 H           2.5351    1.5750   -1.3992 H       1  UNL1        0.0487
     30 H           5.0230    1.4372   -1.5151 H       1  UNL1        0.0575
     31 H           4.3361    3.1151   -1.1627 H       1  UNL1        0.0575
     32 H           6.3883    0.5123   -0.1255 H       1  UNL1        0.0575
     33 H           6.1969    0.7711    1.6191 H       1  UNL1        0.0575
     34 H           4.8998   -1.1914    0.1189 H       1  UNL1        0.0487
     35 H           4.2861   -0.5406    1.6970 H       1  UNL1        0.0487
     36 H           3.3831   -2.4134    0.7245 H       1  UNL1        0.0706
     37 H          -0.4321   -3.3226   -0.7464 H       1  UNL1        0.1700
     38 H          -3.5903   -0.0970   -2.2270 H       1  UNL1        0.1548
     39 H          -3.7216    2.4544   -0.3940 H       1  UNL1        0.0637
     40 H          -5.4059    3.2667    1.2117 H       1  UNL1        0.0647
     41 H          -5.1985   -1.5296    0.0642 H       1  UNL1        0.0652
@<TRIPOS>BOND
     1     1     2    2
     2     2     3    1
     3     3     4    1
     4     4     5   ar
     5     5     6   ar
     6     6     7    1
     7     7     8    1
     8     8     9    1
     9     9    10    1
    10    10    11    1
    11    11    12    1
    12     6    13   ar
    13    13    14   ar
    14    14    15    2
    15    14    16   ar
    16     2    17   am
    17    17    18    1
    18    18    19   ar
    19    19    20   ar
    20    20    21   ar
    21    21    22    1
    22    21    23   ar
    23    23    24    1
    24    23    25   ar
    25    16     4   ar
    26    25    18   ar
    27    12     7    1
    28     3    26    1
    29     3    27    1
    30     8    28    1
    31     8    29    1
    32     9    30    1
    33     9    31    1
    34    11    32    1
    35    11    33    1
    36    12    34    1
    37    12    35    1
    38    13    36    1
    39    16    37    1
    40    17    38    1
    41    19    39    1
    42    20    40    1
    43    25    41    1
