@<TRIPOS>MOLECULE
*****
 72 75 0 0 0
SMALL
GASTEIGER

@<TRIPOS>ATOM
      1 C           7.2708    1.8061    3.8275 C.3     1  UNL1       -0.0653
      2 C           5.9883    1.3853    3.1298 C.3     1  UNL1       -0.0559
      3 C           6.3157    0.1357    2.3365 C.3     1  UNL1       -0.0519
      4 C           5.0937   -0.3742    1.6007 C.3     1  UNL1       -0.0367
      5 C           4.5387    0.6205    0.6278 C.3     1  UNL1        0.0213
      6 N           3.3517   -0.0055    0.0037 N.am    1  UNL1       -0.2554
      7 C           2.1245    0.1858    0.6151 C.2     1  UNL1        0.3098
      8 O           2.2143    0.8140    1.7716 O.2     1  UNL1       -0.2520
      9 N           0.8167   -0.1529    0.2499 N.am    1  UNL1       -0.2687
     10 C          -0.2650    0.1712    1.1792 C.3     1  UNL1        0.0329
     11 C          -1.6090    0.2961    0.5389 C.3     1  UNL1        0.0321
     12 N          -1.8816   -0.7459   -0.4089 N.am    1  UNL1       -0.2811
     13 C          -3.1310   -0.9259   -0.9956 C.2     1  UNL1        0.3136
     14 O          -3.1606   -1.9121   -1.8563 O.2     1  UNL1       -0.2517
     15 N          -4.3244   -0.2034   -0.7852 N.am    1  UNL1       -0.2243
     16 C          -5.4701   -0.5872   -1.5788 C.ar    1  UNL1        0.0428
     17 C          -5.6154    0.0556   -2.7868 C.ar    1  UNL1       -0.0399
     18 C          -6.6863   -0.2379   -3.6332 C.ar    1  UNL1       -0.0600
     19 C          -7.5856   -1.1885   -3.2175 C.ar    1  UNL1       -0.0616
     20 C          -7.4169   -1.8164   -2.0053 C.ar    1  UNL1       -0.0600
     21 C          -6.3532   -1.5359   -1.1463 C.ar    1  UNL1       -0.0399
     22 C          -4.5704    0.8329    0.1268 C.ar    1  UNL1        0.0428
     23 C          -4.3215    2.1728   -0.0848 C.ar    1  UNL1       -0.0399
     24 C          -4.6218    3.1313    0.8569 C.ar    1  UNL1       -0.0600
     25 C          -5.1879    2.7928    2.0596 C.ar    1  UNL1       -0.0616
     26 C          -5.4526    1.4614    2.3091 C.ar    1  UNL1       -0.0600
     27 C          -5.1503    0.5069    1.3639 C.ar    1  UNL1       -0.0399
     28 C          -0.7784   -1.6252   -0.7405 C.3     1  UNL1        0.0453
     29 C           0.4872   -0.7758   -0.9858 C.3     1  UNL1        0.1399
     30 C           0.2438    0.2006   -2.0623 C.2     1  UNL1        0.3271
     31 O           0.4046    1.4177   -1.8479 O.2     1  UNL1       -0.2488
     32 O          -0.1619   -0.2140   -3.3117 O.3     1  UNL1       -0.4793
     33 C           3.5740   -0.7312   -1.1771 C.ar    1  UNL1        0.0377
     34 C           3.8800   -2.1021   -1.1730 C.ar    1  UNL1       -0.0402
     35 C           4.1238   -2.8058   -2.3248 C.ar    1  UNL1       -0.0600
     36 C           4.0780   -2.1885   -3.5483 C.ar    1  UNL1       -0.0616
     37 C           3.7819   -0.8452   -3.5959 C.ar    1  UNL1       -0.0600
     38 C           3.5408   -0.1561   -2.4391 C.ar    1  UNL1       -0.0402
     39 H           7.2118    2.8222    4.2169 H       1  UNL1        0.0230
     40 H           7.3438    1.1240    4.7257 H       1  UNL1        0.0230
     41 H           8.1413    1.5909    3.1957 H       1  UNL1        0.0230
     42 H           5.2219    1.2035    3.8921 H       1  UNL1        0.0263
     43 H           5.7209    2.2060    2.4442 H       1  UNL1        0.0263
     44 H           6.6310   -0.6734    3.0280 H       1  UNL1        0.0266
     45 H           7.1007    0.3512    1.5850 H       1  UNL1        0.0266
     46 H           4.2818   -0.6554    2.2932 H       1  UNL1        0.0280
     47 H           5.4289   -1.3083    1.0912 H       1  UNL1        0.0280
     48 H           5.2666    0.9187   -0.1502 H       1  UNL1        0.0469
     49 H           4.1773    1.5436    1.1152 H       1  UNL1        0.0469
     50 H          -0.0020    1.1913    1.5764 H       1  UNL1        0.0481
     51 H          -0.2613   -0.4876    2.0660 H       1  UNL1        0.0481
     52 H          -1.5957    1.2754   -0.0225 H       1  UNL1        0.0480
     53 H          -2.3634    0.3480    1.3377 H       1  UNL1        0.0480
     54 H          -4.9265    0.8100   -3.1474 H       1  UNL1        0.0636
     55 H          -6.7914    0.2715   -4.5792 H       1  UNL1        0.0618
     56 H          -8.4354   -1.4358   -3.8674 H       1  UNL1        0.0618
     57 H          -8.1216   -2.5709   -1.6609 H       1  UNL1        0.0618
     58 H          -6.2088   -2.0131   -0.2053 H       1  UNL1        0.0636
     59 H          -3.8699    2.4570   -1.0384 H       1  UNL1        0.0636
     60 H          -4.4096    4.1588    0.6473 H       1  UNL1        0.0618
     61 H          -5.4243    3.5512    2.8042 H       1  UNL1        0.0618
     62 H          -5.8991    1.2231    3.2678 H       1  UNL1        0.0618
     63 H          -5.3704   -0.5360    1.5896 H       1  UNL1        0.0636
     64 H          -0.5266   -2.2339    0.1560 H       1  UNL1        0.0489
     65 H          -0.9768   -2.3003   -1.5836 H       1  UNL1        0.0489
     66 H           1.2278   -1.4887   -1.3352 H       1  UNL1        0.0633
     67 H          -0.2278    0.3892   -4.1207 H       1  UNL1        0.2951
     68 H           3.9100   -2.5970   -0.1879 H       1  UNL1        0.0636
     69 H           4.3509   -3.8520   -2.2447 H       1  UNL1        0.0618
     70 H           4.2721   -2.7458   -4.4805 H       1  UNL1        0.0618
     71 H           3.7346   -0.3076   -4.5445 H       1  UNL1        0.0618
     72 H           3.3044    0.9130   -2.4586 H       1  UNL1        0.0636
@<TRIPOS>BOND
     1     1     2    1
     2     2     3    1
     3     3     4    1
     4     4     5    1
     5     5     6    1
     6     6     7   am
     7     7     8    2
     8     7     9   am
     9     9    10    1
    10    10    11    1
    11    11    12    1
    12    12    13   am
    13    13    14    2
    14    13    15   am
    15    15    16    1
    16    16    17   ar
    17    17    18   ar
    18    18    19   ar
    19    19    20   ar
    20    20    21   ar
    21    15    22    1
    22    22    23   ar
    23    23    24   ar
    24    24    25   ar
    25    25    26   ar
    26    26    27   ar
    27    12    28    1
    28    28    29    1
    29    29    30    1
    30    30    31    2
    31    30    32    1
    32     6    33    1
    33    33    34   ar
    34    34    35   ar
    35    35    36   ar
    36    36    37   ar
    37    37    38   ar
    38    29     9    1
    39    38    33   ar
    40    21    16   ar
    41    27    22   ar
    42     1    39    1
    43     1    40    1
    44     1    41    1
    45     2    42    1
    46     2    43    1
    47     3    44    1
    48     3    45    1
    49     4    46    1
    50     4    47    1
    51     5    48    1
    52     5    49    1
    53    10    50    1
    54    10    51    1
    55    11    52    1
    56    11    53    1
    57    17    54    1
    58    18    55    1
    59    19    56    1
    60    20    57    1
    61    21    58    1
    62    23    59    1
    63    24    60    1
    64    25    61    1
    65    26    62    1
    66    27    63    1
    67    28    64    1
    68    28    65    1
    69    29    66    1
    70    32    67    1
    71    34    68    1
    72    35    69    1
    73    36    70    1
    74    37    71    1
    75    38    72    1
