
     RDKit          3D

 82 84  0  0  0  0  0  0  0  0999 V2000
   -4.7934    2.8824    2.0557 C   0  0  0  0  0  0  0  0  0  0  0  0
   -3.6856    3.7177    1.4473 C   0  0  0  0  0  0  0  0  0  0  0  0
   -2.5345    3.7202    2.4072 C   0  0  0  0  0  0  0  0  0  0  0  0
   -4.2524    5.1106    1.2756 C   0  0  0  0  0  0  0  0  0  0  0  0
   -3.2784    3.1764    0.1677 N   0  0  0  0  0  0  0  0  0  0  0  0
   -2.7993    1.8603   -0.0232 C   0  0  0  0  0  0  0  0  0  0  0  0
   -2.7030    1.1122    0.9690 O   0  0  0  0  0  0  0  0  0  0  0  0
   -2.4170    1.3084   -1.2744 N   0  0  0  0  0  0  0  0  0  0  0  0
   -1.9434   -0.1111   -1.3346 C   0  0  2  0  0  0  0  0  0  0  0  0
   -0.6820   -0.1621   -2.0772 C   0  0  0  0  0  0  0  0  0  0  0  0
   -0.3974    0.7596   -2.9351 O   0  0  0  0  0  0  0  0  0  0  0  0
    0.2964   -1.1783   -1.9258 N   0  0  0  0  0  0  0  0  0  0  0  0
    1.4719   -1.2233   -2.8009 C   0  0  0  0  0  0  0  0  0  0  0  0
    2.1953   -2.4913   -2.5464 C   0  0  1  0  0  0  0  0  0  0  0  0
    1.5335   -3.1089   -1.3916 C   0  0  1  0  0  0  0  0  0  0  0  0
    0.3811   -2.2053   -0.9513 C   0  0  1  0  0  0  0  0  0  0  0  0
    0.8413   -1.6768    0.3868 C   0  0  0  0  0  0  0  0  0  0  0  0
    0.3448   -2.2401    1.4082 O   0  0  0  0  0  0  0  0  0  0  0  0
    1.7521   -0.6430    0.5529 N   0  0  0  0  0  0  0  0  0  0  0  0
    2.2085   -0.1078    1.8490 C   0  0  0  0  0  0  0  0  0  0  0  0
    3.5266   -0.6904    2.1763 C   0  0  0  0  0  0  0  0  0  0  0  0
    4.1466   -0.2210    3.4587 C   0  0  0  0  0  0  0  0  0  0  0  0
    5.4729   -0.9874    3.7043 C   0  0  0  0  0  0  0  0  0  0  0  0
    6.1291    0.2999    4.0495 C   0  0  0  0  0  0  0  0  0  0  0  0
    5.0349    1.0247    3.3167 C   0  0  0  0  0  0  0  0  0  0  0  0
    2.1176    1.3265    1.9602 C   0  0  0  0  0  0  0  0  0  0  0  0
    2.3453    1.8585    3.0784 O   0  0  0  0  0  0  0  0  0  0  0  0
    1.7844    2.2416    0.8759 C   0  0  0  0  0  0  0  0  0  0  0  0
    1.7857    3.6691    1.0799 N   0  0  0  0  0  0  0  0  0  0  0  0
    1.4770    1.9000   -0.2990 O   0  0  0  0  0  0  0  0  0  0  0  0
    1.5408   -3.8115   -2.6760 C   0  0  0  0  0  0  0  0  0  0  0  0
    0.3634   -3.9077   -3.6025 C   0  0  0  0  0  0  0  0  0  0  0  0
    2.4555   -5.0271   -2.7870 C   0  0  0  0  0  0  0  0  0  0  0  0
   -3.0668   -0.8741   -2.0438 C   0  0  0  0  0  0  0  0  0  0  0  0
   -4.3199   -0.6511   -1.1728 C   0  0  0  0  0  0  0  0  0  0  0  0
   -3.3892   -0.3650   -3.3979 C   0  0  0  0  0  0  0  0  0  0  0  0
   -2.8637   -2.3557   -2.0344 C   0  0  0  0  0  0  0  0  0  0  0  0
   -5.5474    2.5718    1.3329 H   0  0  0  0  0  0  0  0  0  0  0  0
   -4.3628    2.0020    2.6151 H   0  0  0  0  0  0  0  0  0  0  0  0
   -5.2637    3.5006    2.8389 H   0  0  0  0  0  0  0  0  0  0  0  0
   -2.7074    4.4989    3.2041 H   0  0  0  0  0  0  0  0  0  0  0  0
   -1.5459    3.9233    1.8991 H   0  0  0  0  0  0  0  0  0  0  0  0
   -2.4714    2.7597    2.9949 H   0  0  0  0  0  0  0  0  0  0  0  0
   -3.4609    5.8454    1.1278 H   0  0  0  0  0  0  0  0  0  0  0  0
   -5.0035    5.0826    0.4569 H   0  0  0  0  0  0  0  0  0  0  0  0
   -4.7878    5.3522    2.2187 H   0  0  0  0  0  0  0  0  0  0  0  0
   -3.3426    3.8038   -0.6534 H   0  0  0  0  0  0  0  0  0  0  0  0
   -2.4817    1.9060   -2.1120 H   0  0  0  0  0  0  0  0  0  0  0  0
   -1.8469   -0.4853   -0.3457 H   0  0  0  0  0  0  0  0  0  0  0  0
    2.0644   -0.3298   -2.6559 H   0  0  0  0  0  0  0  0  0  0  0  0
    1.1494   -1.2120   -3.8732 H   0  0  0  0  0  0  0  0  0  0  0  0
    3.2899   -2.4869   -2.7087 H   0  0  0  0  0  0  0  0  0  0  0  0
    2.2321   -3.5031   -0.6033 H   0  0  0  0  0  0  0  0  0  0  0  0
   -0.4701   -2.8687   -0.8218 H   0  0  0  0  0  0  0  0  0  0  0  0
    2.1637   -0.2263   -0.3118 H   0  0  0  0  0  0  0  0  0  0  0  0
    1.4833   -0.5635    2.5823 H   0  0  0  0  0  0  0  0  0  0  0  0
    3.5172   -1.8107    2.1721 H   0  0  0  0  0  0  0  0  0  0  0  0
    4.2589   -0.3358    1.3692 H   0  0  0  0  0  0  0  0  0  0  0  0
    3.5516   -0.1538    4.3479 H   0  0  0  0  0  0  0  0  0  0  0  0
    5.8840   -1.4028    2.7529 H   0  0  0  0  0  0  0  0  0  0  0  0
    5.4163   -1.6810    4.5515 H   0  0  0  0  0  0  0  0  0  0  0  0
    6.1456    0.5637    5.1287 H   0  0  0  0  0  0  0  0  0  0  0  0
    7.1556    0.4386    3.6363 H   0  0  0  0  0  0  0  0  0  0  0  0
    5.3685    1.2212    2.2755 H   0  0  0  0  0  0  0  0  0  0  0  0
    4.7069    1.9003    3.8936 H   0  0  0  0  0  0  0  0  0  0  0  0
    0.9159    4.2118    1.1703 H   0  0  0  0  0  0  0  0  0  0  0  0
    2.6951    4.1671    1.1402 H   0  0  0  0  0  0  0  0  0  0  0  0
    0.6754   -4.3761   -4.5468 H   0  0  0  0  0  0  0  0  0  0  0  0
    0.0245   -2.8970   -3.8523 H   0  0  0  0  0  0  0  0  0  0  0  0
   -0.5121   -4.4281   -3.1389 H   0  0  0  0  0  0  0  0  0  0  0  0
    2.9483   -5.0919   -3.7754 H   0  0  0  0  0  0  0  0  0  0  0  0
    1.9175   -5.9668   -2.5248 H   0  0  0  0  0  0  0  0  0  0  0  0
    3.2610   -4.9022   -2.0353 H   0  0  0  0  0  0  0  0  0  0  0  0
   -4.4921    0.4252   -0.9813 H   0  0  0  0  0  0  0  0  0  0  0  0
   -4.3021   -1.2845   -0.2667 H   0  0  0  0  0  0  0  0  0  0  0  0
   -5.2202   -0.9784   -1.7759 H   0  0  0  0  0  0  0  0  0  0  0  0
   -2.9883   -1.1112   -4.1430 H   0  0  0  0  0  0  0  0  0  0  0  0
   -2.9352    0.5844   -3.6815 H   0  0  0  0  0  0  0  0  0  0  0  0
   -4.5021   -0.3589   -3.6276 H   0  0  0  0  0  0  0  0  0  0  0  0
   -2.0564   -2.6477   -2.7127 H   0  0  0  0  0  0  0  0  0  0  0  0
   -3.7929   -2.8066   -2.4970 H   0  0  0  0  0  0  0  0  0  0  0  0
   -2.8103   -2.7789   -1.0098 H   0  0  0  0  0  0  0  0  0  0  0  0
  1  2  1  0
  2  3  1  0
  2  4  1  0
  2  5  1  0
  5  6  1  0
  6  7  2  0
  6  8  1  0
  8  9  1  0
  9 10  1  0
 10 11  2  0
 10 12  1  0
 12 13  1  0
 13 14  1  0
 14 15  1  0
 15 16  1  0
 16 17  1  0
 17 18  2  0
 17 19  1  0
 19 20  1  0
 20 21  1  0
 21 22  1  0
 22 23  1  0
 23 24  1  0
 24 25  1  0
 20 26  1  0
 26 27  2  0
 26 28  1  0
 28 29  1  0
 28 30  2  0
 15 31  1  0
 31 32  1  0
 31 33  1  0
  9 34  1  0
 34 35  1  0
 34 36  1  0
 34 37  1  0
 16 12  1  0
 25 22  1  0
 31 14  1  0
  1 38  1  0
  1 39  1  0
  1 40  1  0
  3 41  1  0
  3 42  1  0
  3 43  1  0
  4 44  1  0
  4 45  1  0
  4 46  1  0
  5 47  1  0
  8 48  1  0
  9 49  1  1
 13 50  1  0
 13 51  1  0
 14 52  1  1
 15 53  1  1
 16 54  1  1
 19 55  1  0
 20 56  1  0
 21 57  1  0
 21 58  1  0
 22 59  1  0
 23 60  1  0
 23 61  1  0
 24 62  1  0
 24 63  1  0
 25 64  1  0
 25 65  1  0
 29 66  1  0
 29 67  1  0
 32 68  1  0
 32 69  1  0
 32 70  1  0
 33 71  1  0
 33 72  1  0
 33 73  1  0
 35 74  1  0
 35 75  1  0
 35 76  1  0
 36 77  1  0
 36 78  1  0
 36 79  1  0
 37 80  1  0
 37 81  1  0
 37 82  1  0
M  END
$$$$
