@<TRIPOS>MOLECULE
*****
 82 84 0 0 0
SMALL
GASTEIGER

@<TRIPOS>ATOM
      1 C          -4.7934    2.8824    2.0557 C.3     1  UNL1       -0.0442
      2 C          -3.6856    3.7177    1.4473 C.3     1  UNL1        0.0276
      3 C          -2.5345    3.7202    2.4072 C.3     1  UNL1       -0.0442
      4 C          -4.2524    5.1106    1.2756 C.3     1  UNL1       -0.0442
      5 N          -3.2784    3.1764    0.1677 N.am    1  UNL1       -0.2947
      6 C          -2.7993    1.8603   -0.0232 C.2     1  UNL1        0.3006
      7 O          -2.7030    1.1122    0.9690 O.2     1  UNL1       -0.2528
      8 N          -2.4170    1.3084   -1.2744 N.am    1  UNL1       -0.2876
      9 C          -1.9434   -0.1111   -1.3346 C.3     1  UNL1        0.1058
     10 C          -0.6820   -0.1621   -2.0772 C.2     1  UNL1        0.2371
     11 O          -0.3974    0.7596   -2.9351 O.2     1  UNL1       -0.2735
     12 N           0.2964   -1.1783   -1.9258 N.am    1  UNL1       -0.2878
     13 C           1.4719   -1.2233   -2.8009 C.3     1  UNL1        0.0192
     14 C           2.1953   -2.4913   -2.5464 C.3     1  UNL1       -0.0142
     15 C           1.5335   -3.1089   -1.3916 C.3     1  UNL1       -0.0037
     16 C           0.3811   -2.2053   -0.9513 C.3     1  UNL1        0.1058
     17 C           0.8413   -1.6768    0.3868 C.2     1  UNL1        0.2344
     18 O           0.3448   -2.2401    1.4082 O.2     1  UNL1       -0.2737
     19 N           1.7521   -0.6430    0.5529 N.am    1  UNL1       -0.3036
     20 C           2.2085   -0.1078    1.8490 C.3     1  UNL1        0.0909
     21 C           3.5266   -0.6904    2.1763 C.3     1  UNL1       -0.0242
     22 C           4.1466   -0.2210    3.4587 C.3     1  UNL1       -0.0390
     23 C           5.4729   -0.9874    3.7043 C.3     1  UNL1       -0.0501
     24 C           6.1291    0.2999    4.0495 C.3     1  UNL1       -0.0526
     25 C           5.0349    1.0247    3.3167 C.3     1  UNL1       -0.0501
     26 C           2.1176    1.3265    1.9602 C.2     1  UNL1        0.2369
     27 O           2.3453    1.8585    3.0784 O.2     1  UNL1       -0.2852
     28 C           1.7844    2.2416    0.8759 C.2     1  UNL1        0.2789
     29 N           1.7857    3.6691    1.0799 N.am    1  UNL1       -0.3229
     30 O           1.4770    1.9000   -0.2990 O.2     1  UNL1       -0.2672
     31 C           1.5408   -3.8115   -2.6760 C.3     1  UNL1       -0.0250
     32 C           0.3634   -3.9077   -3.6025 C.3     1  UNL1       -0.0592
     33 C           2.4555   -5.0271   -2.7870 C.3     1  UNL1       -0.0592
     34 C          -3.0668   -0.8741   -2.0438 C.3     1  UNL1       -0.0108
     35 C          -4.3199   -0.6511   -1.1728 C.3     1  UNL1       -0.0579
     36 C          -3.3892   -0.3650   -3.3979 C.3     1  UNL1       -0.0579
     37 C          -2.8637   -2.3557   -2.0344 C.3     1  UNL1       -0.0579
     38 H          -5.5474    2.5718    1.3329 H       1  UNL1        0.0250
     39 H          -4.3628    2.0020    2.6151 H       1  UNL1        0.0250
     40 H          -5.2637    3.5006    2.8389 H       1  UNL1        0.0250
     41 H          -2.7074    4.4989    3.2041 H       1  UNL1        0.0250
     42 H          -1.5459    3.9233    1.8991 H       1  UNL1        0.0250
     43 H          -2.4714    2.7597    2.9949 H       1  UNL1        0.0250
     44 H          -3.4609    5.8454    1.1278 H       1  UNL1        0.0250
     45 H          -5.0035    5.0826    0.4569 H       1  UNL1        0.0250
     46 H          -4.7878    5.3522    2.2187 H       1  UNL1        0.0250
     47 H          -3.3426    3.8038   -0.6534 H       1  UNL1        0.1507
     48 H          -2.4817    1.9060   -2.1120 H       1  UNL1        0.1510
     49 H          -1.8469   -0.4853   -0.3457 H       1  UNL1        0.0600
     50 H           2.0644   -0.3298   -2.6559 H       1  UNL1        0.0468
     51 H           1.1494   -1.2120   -3.8732 H       1  UNL1        0.0468
     52 H           3.2899   -2.4869   -2.7087 H       1  UNL1        0.0325
     53 H           2.2321   -3.5031   -0.6033 H       1  UNL1        0.0332
     54 H          -0.4701   -2.8687   -0.8218 H       1  UNL1        0.0600
     55 H           2.1637   -0.2263   -0.3118 H       1  UNL1        0.1495
     56 H           1.4833   -0.5635    2.5823 H       1  UNL1        0.0582
     57 H           3.5172   -1.8107    2.1721 H       1  UNL1        0.0290
     58 H           4.2589   -0.3358    1.3692 H       1  UNL1        0.0290
     59 H           3.5516   -0.1538    4.3479 H       1  UNL1        0.0301
     60 H           5.8840   -1.4028    2.7529 H       1  UNL1        0.0268
     61 H           5.4163   -1.6810    4.5515 H       1  UNL1        0.0268
     62 H           6.1456    0.5637    5.1287 H       1  UNL1        0.0265
     63 H           7.1556    0.4386    3.6363 H       1  UNL1        0.0265
     64 H           5.3685    1.2212    2.2755 H       1  UNL1        0.0268
     65 H           4.7069    1.9003    3.8936 H       1  UNL1        0.0268
     66 H           0.9159    4.2118    1.1703 H       1  UNL1        0.1453
     67 H           2.6951    4.1671    1.1402 H       1  UNL1        0.1453
     68 H           0.6754   -4.3761   -4.5468 H       1  UNL1        0.0235
     69 H           0.0245   -2.8970   -3.8523 H       1  UNL1        0.0235
     70 H          -0.5121   -4.4281   -3.1389 H       1  UNL1        0.0235
     71 H           2.9483   -5.0919   -3.7754 H       1  UNL1        0.0235
     72 H           1.9175   -5.9668   -2.5248 H       1  UNL1        0.0235
     73 H           3.2610   -4.9022   -2.0353 H       1  UNL1        0.0235
     74 H          -4.4921    0.4252   -0.9813 H       1  UNL1        0.0236
     75 H          -4.3021   -1.2845   -0.2667 H       1  UNL1        0.0236
     76 H          -5.2202   -0.9784   -1.7759 H       1  UNL1        0.0236
     77 H          -2.9883   -1.1112   -4.1430 H       1  UNL1        0.0236
     78 H          -2.9352    0.5844   -3.6815 H       1  UNL1        0.0236
     79 H          -4.5021   -0.3589   -3.6276 H       1  UNL1        0.0236
     80 H          -2.0564   -2.6477   -2.7127 H       1  UNL1        0.0236
     81 H          -3.7929   -2.8066   -2.4970 H       1  UNL1        0.0236
     82 H          -2.8103   -2.7789   -1.0098 H       1  UNL1        0.0236
@<TRIPOS>BOND
     1     1     2    1
     2     2     3    1
     3     2     4    1
     4     2     5    1
     5     5     6   am
     6     6     7    2
     7     6     8   am
     8     8     9    1
     9     9    10    1
    10    10    11    2
    11    10    12   am
    12    12    13    1
    13    13    14    1
    14    14    15    1
    15    15    16    1
    16    16    17    1
    17    17    18    2
    18    17    19   am
    19    19    20    1
    20    20    21    1
    21    21    22    1
    22    22    23    1
    23    23    24    1
    24    24    25    1
    25    20    26    1
    26    26    27    2
    27    26    28    1
    28    28    29   am
    29    28    30    2
    30    15    31    1
    31    31    32    1
    32    31    33    1
    33     9    34    1
    34    34    35    1
    35    34    36    1
    36    34    37    1
    37    16    12    1
    38    25    22    1
    39    31    14    1
    40     1    38    1
    41     1    39    1
    42     1    40    1
    43     3    41    1
    44     3    42    1
    45     3    43    1
    46     4    44    1
    47     4    45    1
    48     4    46    1
    49     5    47    1
    50     8    48    1
    51     9    49    1
    52    13    50    1
    53    13    51    1
    54    14    52    1
    55    15    53    1
    56    16    54    1
    57    19    55    1
    58    20    56    1
    59    21    57    1
    60    21    58    1
    61    22    59    1
    62    23    60    1
    63    23    61    1
    64    24    62    1
    65    24    63    1
    66    25    64    1
    67    25    65    1
    68    29    66    1
    69    29    67    1
    70    32    68    1
    71    32    69    1
    72    32    70    1
    73    33    71    1
    74    33    72    1
    75    33    73    1
    76    35    74    1
    77    35    75    1
    78    35    76    1
    79    36    77    1
    80    36    78    1
    81    36    79    1
    82    37    80    1
    83    37    81    1
    84    37    82    1
