
     RDKit          3D

 49 52  0  0  0  0  0  0  0  0999 V2000
   -2.9661   -1.5858    1.4604 C   0  0  0  0  0  0  0  0  0  0  0  0
   -2.3514   -0.4621    0.7075 C   0  0  1  0  0  0  0  0  0  0  0  0
   -0.8669   -0.6095    0.8085 C   0  0  0  0  0  0  0  0  0  0  0  0
   -0.1245   -0.8223   -0.3297 C   0  0  0  0  0  0  0  0  0  0  0  0
    1.2692   -0.9473   -0.2847 C   0  0  0  0  0  0  0  0  0  0  0  0
    2.0254   -1.1373   -1.4562 N   0  0  0  0  0  0  0  0  0  0  0  0
    3.4231   -1.2736   -1.3923 C   0  0  0  0  0  0  0  0  0  0  0  0
    4.0552   -2.4532   -1.6478 N   0  0  0  0  0  0  0  0  0  0  0  0
    5.3887   -2.5705   -1.5835 C   0  0  0  0  0  0  0  0  0  0  0  0
    6.1978   -1.5240   -1.2586 C   0  0  0  0  0  0  0  0  0  0  0  0
    5.5902   -0.3052   -0.9904 C   0  0  0  0  0  0  0  0  0  0  0  0
    6.4229    0.7458   -0.6571 C   0  0  0  0  0  0  0  0  0  0  0  0
    5.8124    1.9634   -0.3846 C   0  0  0  0  0  0  0  0  0  0  0  0
    6.8098    3.3210    0.0395 Cl  0  0  0  0  0  0  0  0  0  0  0  0
    4.4318    2.0444   -0.4636 C   0  0  0  0  0  0  0  0  0  0  0  0
    3.6362    1.0191   -0.7873 N   0  0  0  0  0  0  0  0  0  0  0  0
    4.2254   -0.1859   -1.0575 C   0  0  0  0  0  0  0  0  0  0  0  0
    1.8307   -0.8443    0.9658 C   0  0  0  0  0  0  0  0  0  0  0  0
    1.0933   -0.6305    2.1128 C   0  0  0  0  0  0  0  0  0  0  0  0
   -0.2882   -0.5081    2.0454 C   0  0  0  0  0  0  0  0  0  0  0  0
   -0.9916   -0.2969    3.1850 F   0  0  0  0  0  0  0  0  0  0  0  0
   -2.7745   -0.5649   -0.7634 C   0  0  0  0  0  0  0  0  0  0  0  0
   -4.5100   -0.2261   -0.8151 S   0  0  0  0  0  6  0  0  0  0  0  0
   -5.3183   -1.4987   -0.7290 O   0  0  0  0  0  0  0  0  0  0  0  0
   -4.8690    0.3818   -2.1597 O   0  0  0  0  0  0  0  0  0  0  0  0
   -4.9340    0.8290    0.5183 C   0  0  1  0  0  0  0  0  0  0  0  0
   -5.8798    1.9153    0.0260 C   0  0  0  0  0  0  0  0  0  0  0  0
   -5.6683    0.1022    1.4661 F   0  0  0  0  0  0  0  0  0  0  0  0
   -3.7619    1.4715    1.1428 C   0  0  0  0  0  0  0  0  0  0  0  0
   -3.9236    2.8099    1.6658 N   0  0  0  0  0  0  0  0  0  0  0  0
   -2.6578    0.8600    1.1994 N   0  0  0  0  0  0  0  0  0  0  0  0
   -3.5670   -1.2923    2.3410 H   0  0  0  0  0  0  0  0  0  0  0  0
   -2.1883   -2.2947    1.8828 H   0  0  0  0  0  0  0  0  0  0  0  0
   -3.5430   -2.2598    0.7622 H   0  0  0  0  0  0  0  0  0  0  0  0
   -0.5538   -0.9067   -1.3212 H   0  0  0  0  0  0  0  0  0  0  0  0
    1.5424   -1.1793   -2.3697 H   0  0  0  0  0  0  0  0  0  0  0  0
    5.8412   -3.5330   -1.7958 H   0  0  0  0  0  0  0  0  0  0  0  0
    7.2888   -1.6315   -1.2100 H   0  0  0  0  0  0  0  0  0  0  0  0
    7.5000    0.6540   -0.6053 H   0  0  0  0  0  0  0  0  0  0  0  0
    4.0372    3.0463   -0.2306 H   0  0  0  0  0  0  0  0  0  0  0  0
    2.9187   -0.9378    1.0729 H   0  0  0  0  0  0  0  0  0  0  0  0
    1.5415   -0.5505    3.1104 H   0  0  0  0  0  0  0  0  0  0  0  0
   -2.2829    0.2435   -1.3519 H   0  0  0  0  0  0  0  0  0  0  0  0
   -2.5505   -1.5733   -1.1044 H   0  0  0  0  0  0  0  0  0  0  0  0
   -5.7101    2.8623    0.6139 H   0  0  0  0  0  0  0  0  0  0  0  0
   -5.7321    2.1279   -1.0434 H   0  0  0  0  0  0  0  0  0  0  0  0
   -6.9374    1.6234    0.2045 H   0  0  0  0  0  0  0  0  0  0  0  0
   -3.5319    3.5750    1.0985 H   0  0  0  0  0  0  0  0  0  0  0  0
   -4.3992    3.0094    2.5499 H   0  0  0  0  0  0  0  0  0  0  0  0
  2  1  1  1
  2  3  1  0
  3  4  2  0
  4  5  1  0
  5  6  1  0
  6  7  1  0
  7  8  2  0
  8  9  1  0
  9 10  2  0
 10 11  1  0
 11 12  2  0
 12 13  1  0
 13 14  1  0
 13 15  2  0
 15 16  1  0
 16 17  2  0
  5 18  2  0
 18 19  1  0
 19 20  2  0
 20 21  1  0
  2 22  1  0
 22 23  1  0
 23 24  2  0
 23 25  2  0
 23 26  1  0
 26 27  1  0
 26 28  1  1
 26 29  1  0
 29 30  1  0
 29 31  2  0
 31  2  1  0
 20  3  1  0
 17  7  1  0
 17 11  1  0
  1 32  1  0
  1 33  1  0
  1 34  1  0
  4 35  1  0
  6 36  1  0
  9 37  1  0
 10 38  1  0
 12 39  1  0
 15 40  1  0
 18 41  1  0
 19 42  1  0
 22 43  1  0
 22 44  1  0
 27 45  1  0
 27 46  1  0
 27 47  1  0
 30 48  1  0
 30 49  1  0
M  END
$$$$
