@<TRIPOS>MOLECULE
*****
 49 52 0 0 0
SMALL
GASTEIGER

@<TRIPOS>ATOM
      1 C          -2.9661   -1.5858    1.4604 C.3     1  UNL1       -0.0112
      2 C          -2.3514   -0.4621    0.7075 C.3     1  UNL1        0.1961
      3 C          -0.8669   -0.6095    0.8085 C.ar    1  UNL1        0.0420
      4 C          -0.1245   -0.8223   -0.3297 C.ar    1  UNL1       -0.0301
      5 C           1.2692   -0.9473   -0.2847 C.ar    1  UNL1        0.0330
      6 N           2.0254   -1.1373   -1.4562 N.pl3   1  UNL1       -0.2977
      7 C           3.4231   -1.2736   -1.3923 C.ar    1  UNL1        0.1490
      8 N           4.0552   -2.4532   -1.6478 N.ar    1  UNL1       -0.2380
      9 C           5.3887   -2.5705   -1.5835 C.ar    1  UNL1        0.0304
     10 C           6.1978   -1.5240   -1.2586 C.ar    1  UNL1       -0.0342
     11 C           5.5902   -0.3052   -0.9904 C.ar    1  UNL1        0.0066
     12 C           6.4229    0.7458   -0.6571 C.ar    1  UNL1       -0.0326
     13 C           5.8124    1.9634   -0.3846 C.ar    1  UNL1        0.0596
     14 CL          6.8098    3.3210    0.0395 Cl      1  UNL1       -0.0820
     15 C           4.4318    2.0444   -0.4636 C.ar    1  UNL1        0.0467
     16 N           3.6362    1.0191   -0.7873 N.ar    1  UNL1       -0.2501
     17 C           4.2254   -0.1859   -1.0575 C.ar    1  UNL1        0.1109
     18 C           1.8307   -0.8443    0.9658 C.ar    1  UNL1       -0.0378
     19 C           1.0933   -0.6305    2.1128 C.ar    1  UNL1       -0.0243
     20 C          -0.2882   -0.5081    2.0454 C.ar    1  UNL1        0.1311
     21 F          -0.9916   -0.2969    3.1850 F       1  UNL1       -0.2050
     22 C          -2.7745   -0.5649   -0.7634 C.3     1  UNL1        0.1212
     23 S          -4.5100   -0.2261   -0.8151 S.O2    1  UNL1        0.0192
     24 O          -5.3183   -1.4987   -0.7290 O.2     1  UNL1       -0.1706
     25 O          -4.8690    0.3818   -2.1597 O.2     1  UNL1       -0.1706
     26 C          -4.9340    0.8290    0.5183 C.3     1  UNL1        0.3220
     27 C          -5.8798    1.9153    0.0260 C.3     1  UNL1        0.0013
     28 F          -5.6683    0.1022    1.4661 F       1  UNL1       -0.2044
     29 C          -3.7619    1.4715    1.1428 C.2     1  UNL1        0.3390
     30 N          -3.9236    2.8099    1.6658 N.pl3   1  UNL1       -0.2465
     31 N          -2.6578    0.8600    1.1994 N.2     1  UNL1       -0.0700
     32 H          -3.5670   -1.2923    2.3410 H       1  UNL1        0.0279
     33 H          -2.1883   -2.2947    1.8828 H       1  UNL1        0.0279
     34 H          -3.5430   -2.2598    0.7622 H       1  UNL1        0.0279
     35 H          -0.5538   -0.9067   -1.3212 H       1  UNL1        0.0641
     36 H           1.5424   -1.1793   -2.3697 H       1  UNL1        0.1536
     37 H           5.8412   -3.5330   -1.7958 H       1  UNL1        0.0830
     38 H           7.2888   -1.6315   -1.2100 H       1  UNL1        0.0639
     39 H           7.5000    0.6540   -0.6053 H       1  UNL1        0.0639
     40 H           4.0372    3.0463   -0.2306 H       1  UNL1        0.0844
     41 H           2.9187   -0.9378    1.0729 H       1  UNL1        0.0637
     42 H           1.5415   -0.5505    3.1104 H       1  UNL1        0.0647
     43 H          -2.2829    0.2435   -1.3519 H       1  UNL1        0.0551
     44 H          -2.5505   -1.5733   -1.1044 H       1  UNL1        0.0551
     45 H          -5.7101    2.8623    0.6139 H       1  UNL1        0.0283
     46 H          -5.7321    2.1279   -1.0434 H       1  UNL1        0.0283
     47 H          -6.9374    1.6234    0.2045 H       1  UNL1        0.0283
     48 H          -3.5319    3.5750    1.0985 H       1  UNL1        0.2882
     49 H          -4.3992    3.0094    2.5499 H       1  UNL1        0.2882
@<TRIPOS>BOND
     1     2     1    1
     2     2     3    1
     3     3     4   ar
     4     4     5   ar
     5     5     6    1
     6     6     7    1
     7     7     8   ar
     8     8     9   ar
     9     9    10   ar
    10    10    11   ar
    11    11    12   ar
    12    12    13   ar
    13    13    14    1
    14    13    15   ar
    15    15    16   ar
    16    16    17   ar
    17     5    18   ar
    18    18    19   ar
    19    19    20   ar
    20    20    21    1
    21     2    22    1
    22    22    23    1
    23    23    24    2
    24    23    25    2
    25    23    26    1
    26    26    27    1
    27    26    28    1
    28    26    29    1
    29    29    30    1
    30    29    31    2
    31    31     2    1
    32    20     3   ar
    33    17     7   ar
    34    17    11   ar
    35     1    32    1
    36     1    33    1
    37     1    34    1
    38     4    35    1
    39     6    36    1
    40     9    37    1
    41    10    38    1
    42    12    39    1
    43    15    40    1
    44    18    41    1
    45    19    42    1
    46    22    43    1
    47    22    44    1
    48    27    45    1
    49    27    46    1
    50    27    47    1
    51    30    48    1
    52    30    49    1
