
     RDKit          3D

 36 37  0  0  0  0  0  0  0  0999 V2000
   -4.7014   -0.5655    2.7877 O   0  0  0  0  0  0  0  0  0  0  0  0
   -3.7404   -0.2891    1.8284 C   0  0  0  0  0  0  0  0  0  0  0  0
   -3.7771    0.9332    1.5372 O   0  0  0  0  0  0  0  0  0  0  0  0
   -2.8882   -1.3845    1.3349 C   0  0  0  0  0  0  0  0  0  0  0  0
   -1.9639   -1.0431    0.3641 O   0  0  0  0  0  0  0  0  0  0  0  0
   -2.1424   -0.5356   -0.8789 C   0  0  0  0  0  0  0  0  0  0  0  0
   -3.4352   -0.3095   -1.2927 C   0  0  0  0  0  0  0  0  0  0  0  0
   -3.6560    0.2039   -2.5471 C   0  0  0  0  0  0  0  0  0  0  0  0
   -5.2828    0.5078   -3.1127 Cl  0  0  0  0  0  0  0  0  0  0  0  0
   -2.5901    0.4818   -3.3636 C   0  0  0  0  0  0  0  0  0  0  0  0
   -1.3203    0.2386   -2.9049 C   0  0  0  0  0  0  0  0  0  0  0  0
   -1.0423   -0.2726   -1.6628 C   0  0  0  0  0  0  0  0  0  0  0  0
    0.3482   -0.4740   -1.3243 C   0  0  0  0  0  0  0  0  0  0  0  0
    1.2278   -0.1741   -2.1731 O   0  0  0  0  0  0  0  0  0  0  0  0
    0.9670   -0.9659   -0.1741 N   0  0  0  0  0  0  0  0  0  0  0  0
    2.2365   -1.2451    0.3785 C   0  0  0  0  0  0  0  0  0  0  0  0
    3.1586   -0.1050    0.5650 C   0  0  0  0  0  0  0  0  0  0  0  0
    4.0138    0.5718   -0.2721 C   0  0  0  0  0  0  0  0  0  0  0  0
    4.0810    0.0838   -1.5148 F   0  0  0  0  0  0  0  0  0  0  0  0
    4.7580    1.6484    0.1446 C   0  0  0  0  0  0  0  0  0  0  0  0
    4.7095    2.1367    1.4317 C   0  0  0  0  0  0  0  0  0  0  0  0
    5.7831    3.6216    1.8729 Br  0  0  0  0  0  0  0  0  0  0  0  0
    3.8633    1.4849    2.3061 C   0  0  0  0  0  0  0  0  0  0  0  0
    3.1379    0.4230    1.8692 C   0  0  0  0  0  0  0  0  0  0  0  0
   -5.0136    0.0873    3.4888 H   0  0  0  0  0  0  0  0  0  0  0  0
   -2.4497   -1.8923    2.2189 H   0  0  0  0  0  0  0  0  0  0  0  0
   -3.5970   -2.1503    0.9088 H   0  0  0  0  0  0  0  0  0  0  0  0
   -4.3090   -0.5103   -0.7051 H   0  0  0  0  0  0  0  0  0  0  0  0
   -2.7853    0.8836   -4.3402 H   0  0  0  0  0  0  0  0  0  0  0  0
   -0.5396    0.4869   -3.6157 H   0  0  0  0  0  0  0  0  0  0  0  0
    0.2442   -1.2304    0.5698 H   0  0  0  0  0  0  0  0  0  0  0  0
    2.7434   -1.9638   -0.3671 H   0  0  0  0  0  0  0  0  0  0  0  0
    2.2291   -1.8500    1.3065 H   0  0  0  0  0  0  0  0  0  0  0  0
    5.3941    2.0879   -0.6321 H   0  0  0  0  0  0  0  0  0  0  0  0
    3.8339    1.8721    3.3045 H   0  0  0  0  0  0  0  0  0  0  0  0
    2.5049   -0.0052    2.6635 H   0  0  0  0  0  0  0  0  0  0  0  0
  1  2  1  0
  2  3  2  0
  2  4  1  0
  4  5  1  0
  5  6  1  0
  6  7  2  0
  7  8  1  0
  8  9  1  0
  8 10  2  0
 10 11  1  0
 11 12  2  0
 12 13  1  0
 13 14  2  0
 13 15  1  0
 15 16  1  0
 16 17  1  0
 17 18  2  0
 18 19  1  0
 18 20  1  0
 20 21  2  0
 21 22  1  0
 21 23  1  0
 23 24  2  0
 12  6  1  0
 24 17  1  0
  1 25  1  0
  4 26  1  0
  4 27  1  0
  7 28  1  0
 10 29  1  0
 11 30  1  0
 15 31  1  0
 16 32  1  0
 16 33  1  0
 20 34  1  0
 23 35  1  0
 24 36  1  0
M  END
$$$$
