
     RDKit          3D

 33 34  0  0  0  0  0  0  0  0999 V2000
    2.5338   -0.4449   -1.0356 C   0  0  0  0  0  0  0  0  0  0  0  0
    1.2846   -1.1269   -0.7617 N   0  0  0  0  0  0  0  0  0  0  0  0
    0.5245   -0.5021    0.2820 C   0  0  0  0  0  0  0  0  0  0  0  0
    1.4003   -0.4342    1.5318 C   0  0  0  0  0  0  0  0  0  0  0  0
   -0.6338   -1.3702    0.6400 C   0  0  0  0  0  0  0  0  0  0  0  0
   -1.4975   -1.6239   -0.5474 C   0  0  0  0  0  0  0  0  0  0  0  0
   -2.1952   -0.2972   -0.8477 C   0  0  0  0  0  0  0  0  0  0  0  0
   -1.6024    0.6125    0.1741 C   0  0  0  0  0  0  0  0  0  0  0  0
   -1.5356   -0.3547    1.3702 C   0  0  0  0  0  0  0  0  0  0  0  0
   -0.0982    0.8056   -0.0462 C   0  0  0  0  0  0  0  0  0  0  0  0
    0.1350    1.3424   -1.4143 C   0  0  0  0  0  0  0  0  0  0  0  0
    0.3371    1.8967    0.9221 C   0  0  0  0  0  0  0  0  0  0  0  0
    3.2715   -1.2522   -1.3019 H   0  0  0  0  0  0  0  0  0  0  0  0
    2.4310    0.1729   -1.9509 H   0  0  0  0  0  0  0  0  0  0  0  0
    2.8721    0.2284   -0.2478 H   0  0  0  0  0  0  0  0  0  0  0  0
    0.7934   -1.2090   -1.6756 H   0  0  0  0  0  0  0  0  0  0  0  0
    0.8361   -0.5516    2.4691 H   0  0  0  0  0  0  0  0  0  0  0  0
    2.0426   -1.3629    1.4930 H   0  0  0  0  0  0  0  0  0  0  0  0
    1.9908    0.4770    1.5878 H   0  0  0  0  0  0  0  0  0  0  0  0
   -0.4088   -2.2367    1.2572 H   0  0  0  0  0  0  0  0  0  0  0  0
   -0.9666   -2.0488   -1.3949 H   0  0  0  0  0  0  0  0  0  0  0  0
   -2.2840   -2.3967   -0.2586 H   0  0  0  0  0  0  0  0  0  0  0  0
   -3.2599   -0.4176   -0.6024 H   0  0  0  0  0  0  0  0  0  0  0  0
   -2.0344    0.0199   -1.8913 H   0  0  0  0  0  0  0  0  0  0  0  0
   -2.1428    1.5247    0.3927 H   0  0  0  0  0  0  0  0  0  0  0  0
   -2.5185   -0.8045    1.5037 H   0  0  0  0  0  0  0  0  0  0  0  0
   -1.0847    0.0752    2.2515 H   0  0  0  0  0  0  0  0  0  0  0  0
   -0.7364    2.0359   -1.6117 H   0  0  0  0  0  0  0  0  0  0  0  0
    0.0936    0.6274   -2.2383 H   0  0  0  0  0  0  0  0  0  0  0  0
    1.0082    2.0297   -1.4217 H   0  0  0  0  0  0  0  0  0  0  0  0
   -0.2596    2.8191    0.7502 H   0  0  0  0  0  0  0  0  0  0  0  0
    0.3278    1.5888    1.9733 H   0  0  0  0  0  0  0  0  0  0  0  0
    1.3756    2.1779    0.6493 H   0  0  0  0  0  0  0  0  0  0  0  0
  1  2  1  0
  2  3  1  0
  3  4  1  0
  3  5  1  0
  5  6  1  0
  6  7  1  0
  7  8  1  0
  8  9  1  0
  8 10  1  0
 10 11  1  0
 10 12  1  0
 10  3  1  0
  9  5  1  0
  1 13  1  0
  1 14  1  0
  1 15  1  0
  2 16  1  0
  4 17  1  0
  4 18  1  0
  4 19  1  0
  5 20  1  0
  6 21  1  0
  6 22  1  0
  7 23  1  0
  7 24  1  0
  8 25  1  0
  9 26  1  0
  9 27  1  0
 11 28  1  0
 11 29  1  0
 11 30  1  0
 12 31  1  0
 12 32  1  0
 12 33  1  0
M  END
$$$$
