
     RDKit          3D

 28 27  0  0  0  0  0  0  0  0999 V2000
   -3.8727    1.0450    0.5019 C   0  0  0  0  0  0  0  0  0  0  0  0
   -2.5639    1.9074   -0.3206 S   0  0  0  0  0  0  0  0  0  0  0  0
   -1.4921    2.2241    0.6781 O   0  0  0  0  0  0  0  0  0  0  0  0
   -2.9880    3.1797   -0.9558 O   0  0  0  0  0  0  0  0  0  0  0  0
   -1.8772    0.8241   -1.4350 O   0  0  0  0  0  0  0  0  0  0  0  0
   -1.1124   -0.0450   -0.6394 C   0  0  0  0  0  0  0  0  0  0  0  0
   -0.4190   -1.0879   -1.4461 C   0  0  0  0  0  0  0  0  0  0  0  0
    0.3643   -1.9907   -0.5355 C   0  0  0  0  0  0  0  0  0  0  0  0
    1.3968   -1.1893    0.2188 C   0  0  0  0  0  0  0  0  0  0  0  0
    2.2453   -0.5788   -0.7150 O   0  0  0  0  0  0  0  0  0  0  0  0
    3.4167    0.3265    0.0672 S   0  0  0  0  0  0  0  0  0  0  0  0
    2.6903    1.3518    1.3429 C   0  0  0  0  0  0  0  0  0  0  0  0
    4.0853    1.1615   -0.9670 O   0  0  0  0  0  0  0  0  0  0  0  0
    4.3622   -0.6099    0.7523 O   0  0  0  0  0  0  0  0  0  0  0  0
   -4.8221    1.3553    0.0219 H   0  0  0  0  0  0  0  0  0  0  0  0
   -3.8080   -0.0712    0.3583 H   0  0  0  0  0  0  0  0  0  0  0  0
   -3.8377    1.2873    1.5684 H   0  0  0  0  0  0  0  0  0  0  0  0
   -0.3510    0.5890   -0.1357 H   0  0  0  0  0  0  0  0  0  0  0  0
   -1.7827   -0.4902    0.1087 H   0  0  0  0  0  0  0  0  0  0  0  0
   -1.1163   -1.7096   -2.0502 H   0  0  0  0  0  0  0  0  0  0  0  0
    0.2852   -0.5935   -2.1644 H   0  0  0  0  0  0  0  0  0  0  0  0
    0.8379   -2.8403   -1.0904 H   0  0  0  0  0  0  0  0  0  0  0  0
   -0.3233   -2.4872    0.2120 H   0  0  0  0  0  0  0  0  0  0  0  0
    0.9782   -0.4434    0.9134 H   0  0  0  0  0  0  0  0  0  0  0  0
    1.9991   -1.8738    0.8894 H   0  0  0  0  0  0  0  0  0  0  0  0
    3.5527    1.8785    1.8210 H   0  0  0  0  0  0  0  0  0  0  0  0
    1.9997    2.1054    0.9253 H   0  0  0  0  0  0  0  0  0  0  0  0
    2.1527    0.7525    2.0755 H   0  0  0  0  0  0  0  0  0  0  0  0
  1  2  1  0
  2  3  2  0
  2  4  2  0
  2  5  1  0
  5  6  1  0
  6  7  1  0
  7  8  1  0
  8  9  1  0
  9 10  1  0
 10 11  1  0
 11 12  1  0
 11 13  2  0
 11 14  2  0
  1 15  1  0
  1 16  1  0
  1 17  1  0
  6 18  1  0
  6 19  1  0
  7 20  1  0
  7 21  1  0
  8 22  1  0
  8 23  1  0
  9 24  1  0
  9 25  1  0
 12 26  1  0
 12 27  1  0
 12 28  1  0
M  END
$$$$
