@<TRIPOS>MOLECULE
*****
 28 27 0 0 0
SMALL
GASTEIGER

@<TRIPOS>ATOM
      1 C          -3.8727    1.0450    0.5019 C.3     1  UNL1        0.0817
      2 S          -2.5639    1.9074   -0.3206 S.O2    1  UNL1        0.0793
      3 O          -1.4921    2.2241    0.6781 O.2     1  UNL1       -0.1475
      4 O          -2.9880    3.1797   -0.9558 O.2     1  UNL1       -0.1475
      5 O          -1.8772    0.8241   -1.4350 O.3     1  UNL1       -0.2387
      6 C          -1.1124   -0.0450   -0.6394 C.3     1  UNL1        0.0766
      7 C          -0.4190   -1.0879   -1.4461 C.3     1  UNL1       -0.0250
      8 C           0.3643   -1.9907   -0.5355 C.3     1  UNL1       -0.0250
      9 C           1.3968   -1.1893    0.2188 C.3     1  UNL1        0.0766
     10 O           2.2453   -0.5788   -0.7150 O.3     1  UNL1       -0.2387
     11 S           3.4167    0.3265    0.0672 S.O2    1  UNL1        0.0793
     12 C           2.6903    1.3518    1.3429 C.3     1  UNL1        0.0817
     13 O           4.0853    1.1615   -0.9670 O.2     1  UNL1       -0.1475
     14 O           4.3622   -0.6099    0.7523 O.2     1  UNL1       -0.1475
     15 H          -4.8221    1.3553    0.0219 H       1  UNL1        0.0489
     16 H          -3.8080   -0.0712    0.3583 H       1  UNL1        0.0489
     17 H          -3.8377    1.2873    1.5684 H       1  UNL1        0.0489
     18 H          -0.3510    0.5890   -0.1357 H       1  UNL1        0.0584
     19 H          -1.7827   -0.4902    0.1087 H       1  UNL1        0.0584
     20 H          -1.1163   -1.7096   -2.0502 H       1  UNL1        0.0289
     21 H           0.2852   -0.5935   -2.1644 H       1  UNL1        0.0289
     22 H           0.8379   -2.8403   -1.0904 H       1  UNL1        0.0289
     23 H          -0.3233   -2.4872    0.2120 H       1  UNL1        0.0289
     24 H           0.9782   -0.4434    0.9134 H       1  UNL1        0.0584
     25 H           1.9991   -1.8738    0.8894 H       1  UNL1        0.0584
     26 H           3.5527    1.8785    1.8210 H       1  UNL1        0.0489
     27 H           1.9997    2.1054    0.9253 H       1  UNL1        0.0489
     28 H           2.1527    0.7525    2.0755 H       1  UNL1        0.0489
@<TRIPOS>BOND
     1     1     2    1
     2     2     3    2
     3     2     4    2
     4     2     5    1
     5     5     6    1
     6     6     7    1
     7     7     8    1
     8     8     9    1
     9     9    10    1
    10    10    11    1
    11    11    12    1
    12    11    13    2
    13    11    14    2
    14     1    15    1
    15     1    16    1
    16     1    17    1
    17     6    18    1
    18     6    19    1
    19     7    20    1
    20     7    21    1
    21     8    22    1
    22     8    23    1
    23     9    24    1
    24     9    25    1
    25    12    26    1
    26    12    27    1
    27    12    28    1
