
     RDKit          3D

 57 59  0  0  0  0  0  0  0  0999 V2000
   -1.2435   -0.5333   -1.1482 C   0  0  2  0  0  0  0  0  0  0  0  0
   -1.5503    0.0279   -2.4209 N   0  0  0  0  0  0  0  0  0  0  0  0
   -2.3333   -0.4980   -0.1322 C   0  0  0  0  0  0  0  0  0  0  0  0
   -2.7400    0.8895    0.1401 C   0  0  0  0  0  0  0  0  0  0  0  0
   -2.7332    1.3859    1.4410 C   0  0  0  0  0  0  0  0  0  0  0  0
   -3.0969    2.6525    1.8219 C   0  0  0  0  0  0  0  0  0  0  0  0
   -3.5106    3.5293    0.8352 C   0  0  0  0  0  0  0  0  0  0  0  0
   -3.5457    3.1096   -0.4900 C   0  0  0  0  0  0  0  0  0  0  0  0
   -3.1601    1.8167   -0.7656 C   0  0  0  0  0  0  0  0  0  0  0  0
   -3.4950   -1.3556   -0.4358 C   0  0  0  0  0  0  0  0  0  0  0  0
   -4.0860   -1.5752   -1.6554 C   0  0  0  0  0  0  0  0  0  0  0  0
   -5.1580   -2.3819   -1.8679 C   0  0  0  0  0  0  0  0  0  0  0  0
   -5.7388   -3.0558   -0.8232 C   0  0  0  0  0  0  0  0  0  0  0  0
   -5.2192   -2.9040    0.4519 C   0  0  0  0  0  0  0  0  0  0  0  0
   -4.1187   -2.0617    0.6009 C   0  0  0  0  0  0  0  0  0  0  0  0
    0.0536   -0.0202   -0.6019 C   0  0  0  0  0  0  0  0  0  0  0  0
    0.4091    0.8433   -1.4450 O   0  0  0  0  0  0  0  0  0  0  0  0
    0.6715   -0.4607    0.5989 N   0  0  0  0  0  0  0  0  0  0  0  0
    0.4039   -1.4310    1.6532 C   0  0  0  0  0  0  0  0  0  0  0  0
    1.8056   -1.7018    2.2201 C   0  0  0  0  0  0  0  0  0  0  0  0
    2.3571   -0.3030    2.2433 C   0  0  0  0  0  0  0  0  0  0  0  0
    1.9354    0.2233    0.9133 C   0  0  1  0  0  0  0  0  0  0  0  0
    2.9270    0.0680   -0.1639 C   0  0  0  0  0  0  0  0  0  0  0  0
    2.7649   -0.5708   -1.2584 O   0  0  0  0  0  0  0  0  0  0  0  0
    4.1804    0.6731    0.0073 N   0  0  0  0  0  0  0  0  0  0  0  0
    5.1899    0.5472   -1.0285 C   0  0  0  0  0  0  0  0  0  0  0  0
    6.4376    1.2876   -0.5938 C   0  0  0  0  0  0  0  0  0  0  0  0
    7.5443    1.2055   -1.6225 C   0  0  0  0  0  0  0  0  0  0  0  0
   -1.0343   -1.6312   -1.3287 H   0  0  0  0  0  0  0  0  0  0  0  0
   -1.4093   -0.6568   -3.2237 H   0  0  0  0  0  0  0  0  0  0  0  0
   -1.0738    0.9291   -2.6491 H   0  0  0  0  0  0  0  0  0  0  0  0
   -1.8636   -0.9097    0.8260 H   0  0  0  0  0  0  0  0  0  0  0  0
   -2.4180    0.7505    2.2708 H   0  0  0  0  0  0  0  0  0  0  0  0
   -3.0734    2.9861    2.8409 H   0  0  0  0  0  0  0  0  0  0  0  0
   -3.8017    4.5273    1.0972 H   0  0  0  0  0  0  0  0  0  0  0  0
   -3.8693    3.7961   -1.2564 H   0  0  0  0  0  0  0  0  0  0  0  0
   -3.2155    1.5513   -1.8019 H   0  0  0  0  0  0  0  0  0  0  0  0
   -3.6535   -1.0579   -2.4999 H   0  0  0  0  0  0  0  0  0  0  0  0
   -5.5944   -2.5316   -2.8300 H   0  0  0  0  0  0  0  0  0  0  0  0
   -6.5811   -3.7153   -0.8657 H   0  0  0  0  0  0  0  0  0  0  0  0
   -5.5948   -3.3852    1.3510 H   0  0  0  0  0  0  0  0  0  0  0  0
   -3.6996   -1.9353    1.6108 H   0  0  0  0  0  0  0  0  0  0  0  0
   -0.0457   -2.3719    1.2767 H   0  0  0  0  0  0  0  0  0  0  0  0
   -0.1471   -0.9674    2.4953 H   0  0  0  0  0  0  0  0  0  0  0  0
    1.7543   -2.1736    3.1995 H   0  0  0  0  0  0  0  0  0  0  0  0
    2.2824   -2.3712    1.4894 H   0  0  0  0  0  0  0  0  0  0  0  0
    1.8031    0.2434    3.0303 H   0  0  0  0  0  0  0  0  0  0  0  0
    3.4506   -0.2738    2.4078 H   0  0  0  0  0  0  0  0  0  0  0  0
    1.7091    1.3273    0.9526 H   0  0  0  0  0  0  0  0  0  0  0  0
    4.3919    1.2228    0.8929 H   0  0  0  0  0  0  0  0  0  0  0  0
    5.4555   -0.5220   -1.1292 H   0  0  0  0  0  0  0  0  0  0  0  0
    4.8566    0.9908   -1.9875 H   0  0  0  0  0  0  0  0  0  0  0  0
    6.7864    0.9187    0.4065 H   0  0  0  0  0  0  0  0  0  0  0  0
    6.1871    2.3594   -0.4638 H   0  0  0  0  0  0  0  0  0  0  0  0
    7.1309    1.4231   -2.6104 H   0  0  0  0  0  0  0  0  0  0  0  0
    8.3440    1.8902   -1.2964 H   0  0  0  0  0  0  0  0  0  0  0  0
    7.9722    0.1806   -1.5539 H   0  0  0  0  0  0  0  0  0  0  0  0
  1  2  1  0
  1  3  1  0
  3  4  1  0
  4  5  2  0
  5  6  1  0
  6  7  2  0
  7  8  1  0
  8  9  2  0
  3 10  1  0
 10 11  2  0
 11 12  1  0
 12 13  2  0
 13 14  1  0
 14 15  2  0
  1 16  1  0
 16 17  2  0
 16 18  1  0
 18 19  1  0
 19 20  1  0
 20 21  1  0
 21 22  1  0
 22 23  1  0
 23 24  2  0
 23 25  1  0
 25 26  1  0
 26 27  1  0
 27 28  1  0
  9  4  1  0
 15 10  1  0
 22 18  1  0
  1 29  1  6
  2 30  1  0
  2 31  1  0
  3 32  1  0
  5 33  1  0
  6 34  1  0
  7 35  1  0
  8 36  1  0
  9 37  1  0
 11 38  1  0
 12 39  1  0
 13 40  1  0
 14 41  1  0
 15 42  1  0
 19 43  1  0
 19 44  1  0
 20 45  1  0
 20 46  1  0
 21 47  1  0
 21 48  1  0
 22 49  1  1
 25 50  1  0
 26 51  1  0
 26 52  1  0
 27 53  1  0
 27 54  1  0
 28 55  1  0
 28 56  1  0
 28 57  1  0
M  END
$$$$
