@<TRIPOS>MOLECULE
*****
 57 59 0 0 0
SMALL
GASTEIGER

@<TRIPOS>ATOM
      1 C          -1.2435   -0.5333   -1.1482 C.3     1  UNL1        0.0934
      2 N          -1.5503    0.0279   -2.4209 N.3     1  UNL1       -0.3192
      3 C          -2.3333   -0.4980   -0.1322 C.3     1  UNL1        0.0329
      4 C          -2.7400    0.8895    0.1401 C.ar    1  UNL1       -0.0380
      5 C          -2.7332    1.3859    1.4410 C.ar    1  UNL1       -0.0579
      6 C          -3.0969    2.6525    1.8219 C.ar    1  UNL1       -0.0615
      7 C          -3.5106    3.5293    0.8352 C.ar    1  UNL1       -0.0617
      8 C          -3.5457    3.1096   -0.4900 C.ar    1  UNL1       -0.0615
      9 C          -3.1601    1.8167   -0.7656 C.ar    1  UNL1       -0.0579
     10 C          -3.4950   -1.3556   -0.4358 C.ar    1  UNL1       -0.0380
     11 C          -4.0860   -1.5752   -1.6554 C.ar    1  UNL1       -0.0579
     12 C          -5.1580   -2.3819   -1.8679 C.ar    1  UNL1       -0.0615
     13 C          -5.7388   -3.0558   -0.8232 C.ar    1  UNL1       -0.0617
     14 C          -5.2192   -2.9040    0.4519 C.ar    1  UNL1       -0.0615
     15 C          -4.1187   -2.0617    0.6009 C.ar    1  UNL1       -0.0579
     16 C           0.0536   -0.0202   -0.6019 C.2     1  UNL1        0.2339
     17 O           0.4091    0.8433   -1.4450 O.2     1  UNL1       -0.2738
     18 N           0.6715   -0.4607    0.5989 N.am    1  UNL1       -0.2886
     19 C           0.4039   -1.4310    1.6532 C.3     1  UNL1        0.0156
     20 C           1.8056   -1.7018    2.2201 C.3     1  UNL1       -0.0350
     21 C           2.3571   -0.3030    2.2433 C.3     1  UNL1       -0.0243
     22 C           1.9354    0.2233    0.9133 C.3     1  UNL1        0.1022
     23 C           2.9270    0.0680   -0.1639 C.2     1  UNL1        0.2336
     24 O           2.7649   -0.5708   -1.2584 O.2     1  UNL1       -0.2738
     25 N           4.1804    0.6731    0.0073 N.am    1  UNL1       -0.3138
     26 C           5.1899    0.5472   -1.0285 C.3     1  UNL1        0.0114
     27 C           6.4376    1.2876   -0.5938 C.3     1  UNL1       -0.0402
     28 C           7.5443    1.2055   -1.6225 C.3     1  UNL1       -0.0639
     29 H          -1.0343   -1.6312   -1.3287 H       1  UNL1        0.0564
     30 H          -1.4093   -0.6568   -3.2237 H       1  UNL1        0.1189
     31 H          -1.0738    0.9291   -2.6491 H       1  UNL1        0.1189
     32 H          -1.8636   -0.9097    0.8260 H       1  UNL1        0.0417
     33 H          -2.4180    0.7505    2.2708 H       1  UNL1        0.0620
     34 H          -3.0734    2.9861    2.8409 H       1  UNL1        0.0618
     35 H          -3.8017    4.5273    1.0972 H       1  UNL1        0.0618
     36 H          -3.8693    3.7961   -1.2564 H       1  UNL1        0.0618
     37 H          -3.2155    1.5513   -1.8019 H       1  UNL1        0.0620
     38 H          -3.6535   -1.0579   -2.4999 H       1  UNL1        0.0620
     39 H          -5.5944   -2.5316   -2.8300 H       1  UNL1        0.0618
     40 H          -6.5811   -3.7153   -0.8657 H       1  UNL1        0.0618
     41 H          -5.5948   -3.3852    1.3510 H       1  UNL1        0.0618
     42 H          -3.6996   -1.9353    1.6108 H       1  UNL1        0.0620
     43 H          -0.0457   -2.3719    1.2767 H       1  UNL1        0.0465
     44 H          -0.1471   -0.9674    2.4953 H       1  UNL1        0.0465
     45 H           1.7543   -2.1736    3.1995 H       1  UNL1        0.0281
     46 H           2.2824   -2.3712    1.4894 H       1  UNL1        0.0281
     47 H           1.8031    0.2434    3.0303 H       1  UNL1        0.0288
     48 H           3.4506   -0.2738    2.4078 H       1  UNL1        0.0288
     49 H           1.7091    1.3273    0.9526 H       1  UNL1        0.0597
     50 H           4.3919    1.2228    0.8929 H       1  UNL1        0.1487
     51 H           5.4555   -0.5220   -1.1292 H       1  UNL1        0.0462
     52 H           4.8566    0.9908   -1.9875 H       1  UNL1        0.0462
     53 H           6.7864    0.9187    0.4065 H       1  UNL1        0.0278
     54 H           6.1871    2.3594   -0.4638 H       1  UNL1        0.0278
     55 H           7.1309    1.4231   -2.6104 H       1  UNL1        0.0230
     56 H           8.3440    1.8902   -1.2964 H       1  UNL1        0.0230
     57 H           7.9722    0.1806   -1.5539 H       1  UNL1        0.0230
@<TRIPOS>BOND
     1     1     2    1
     2     1     3    1
     3     3     4    1
     4     4     5   ar
     5     5     6   ar
     6     6     7   ar
     7     7     8   ar
     8     8     9   ar
     9     3    10    1
    10    10    11   ar
    11    11    12   ar
    12    12    13   ar
    13    13    14   ar
    14    14    15   ar
    15     1    16    1
    16    16    17    2
    17    16    18   am
    18    18    19    1
    19    19    20    1
    20    20    21    1
    21    21    22    1
    22    22    23    1
    23    23    24    2
    24    23    25   am
    25    25    26    1
    26    26    27    1
    27    27    28    1
    28     9     4   ar
    29    15    10   ar
    30    22    18    1
    31     1    29    1
    32     2    30    1
    33     2    31    1
    34     3    32    1
    35     5    33    1
    36     6    34    1
    37     7    35    1
    38     8    36    1
    39     9    37    1
    40    11    38    1
    41    12    39    1
    42    13    40    1
    43    14    41    1
    44    15    42    1
    45    19    43    1
    46    19    44    1
    47    20    45    1
    48    20    46    1
    49    21    47    1
    50    21    48    1
    51    22    49    1
    52    25    50    1
    53    26    51    1
    54    26    52    1
    55    27    53    1
    56    27    54    1
    57    28    55    1
    58    28    56    1
    59    28    57    1
