
     RDKit          3D

 69 75  0  0  0  0  0  0  0  0999 V2000
   -3.7736    3.6311   -0.3032 C   0  0  0  0  0  0  0  0  0  0  0  0
   -5.0411    2.8711   -0.2930 C   0  0  0  0  0  0  0  0  0  0  0  0
   -6.1548    3.2689   -1.0099 C   0  0  0  0  0  0  0  0  0  0  0  0
   -7.3192    2.5489   -0.9846 C   0  0  0  0  0  0  0  0  0  0  0  0
   -7.3289    1.4013   -0.2060 C   0  0  0  0  0  0  0  0  0  0  0  0
   -6.2403    1.0407    0.4755 N   0  0  0  0  0  0  0  0  0  0  0  0
   -5.0807    1.7218    0.4749 C   0  0  0  0  0  0  0  0  0  0  0  0
   -3.9603    1.2211    1.2634 C   0  0  0  0  0  0  0  0  0  0  0  0
   -2.9255    0.5763    0.4904 N   0  0  0  0  0  0  0  0  0  0  0  0
   -3.4810   -0.5448   -0.1919 C   0  0  0  0  0  0  0  0  0  0  0  0
   -2.5033   -1.5080   -0.7699 C   0  0  0  0  0  0  0  0  0  0  0  0
   -1.2025   -1.5778   -0.0500 C   0  0  0  0  0  0  0  0  0  0  0  0
   -1.3967   -1.1500    1.3677 C   0  0  0  0  0  0  0  0  0  0  0  0
   -1.8315    0.2800    1.3782 C   0  0  0  0  0  0  0  0  0  0  0  0
   -0.1201   -0.7707   -0.7224 C   0  0  0  0  0  0  0  0  0  0  0  0
   -0.3555    0.1641   -1.5152 O   0  0  0  0  0  0  0  0  0  0  0  0
    1.1340   -1.3086   -0.2568 N   0  0  0  0  0  0  0  0  0  0  0  0
    2.3632   -0.6137   -0.2287 C   0  0  0  0  0  0  0  0  0  0  0  0
    3.5183   -1.2244    0.1923 C   0  0  0  0  0  0  0  0  0  0  0  0
    4.7281   -0.5125    0.2222 C   0  0  0  0  0  0  0  0  0  0  0  0
    4.7984    0.8049   -0.1642 C   0  0  0  0  0  0  0  0  0  0  0  0
    6.0469    1.5601   -0.1361 C   0  0  0  0  0  0  0  0  0  0  0  0
    7.1915    0.7987   -0.3840 C   0  0  0  0  0  0  0  0  0  0  0  0
    8.3968    1.4847   -0.3588 C   0  0  0  0  0  0  0  0  0  0  0  0
    8.3954    2.8446   -0.0969 C   0  0  0  0  0  0  0  0  0  0  0  0
    9.6859    4.0303    0.0189 S   0  0  0  0  0  0  0  0  0  0  0  0
    8.5539    5.4782    0.3985 C   0  0  0  0  0  0  0  0  0  0  0  0
    7.4424    4.8644    0.3775 N   0  0  0  0  0  0  0  0  0  0  0  0
    7.2873    3.5990    0.1464 C   0  0  0  0  0  0  0  0  0  0  0  0
    6.0581    2.9001    0.1207 C   0  0  0  0  0  0  0  0  0  0  0  0
    3.6205    1.3796   -0.5790 C   0  0  0  0  0  0  0  0  0  0  0  0
    2.4255    0.6945   -0.6140 C   0  0  0  0  0  0  0  0  0  0  0  0
    0.8127   -2.6328    0.1504 C   0  0  0  0  0  0  0  0  0  0  0  0
    1.6136   -3.4894    0.6313 O   0  0  0  0  0  0  0  0  0  0  0  0
   -0.5927   -2.9045   -0.0550 N   0  0  0  0  0  0  0  0  0  0  0  0
   -1.1929   -4.1593   -0.2151 C   0  0  0  0  0  0  0  0  0  0  0  0
   -1.6495   -4.8628    0.8672 C   0  0  0  0  0  0  0  0  0  0  0  0
   -2.2354   -6.0937    0.6823 C   0  0  0  0  0  0  0  0  0  0  0  0
   -2.6620   -6.7600    1.6496 O   0  0  0  0  0  0  0  0  0  0  0  0
   -2.3550   -6.5944   -0.5517 N   0  0  0  0  0  0  0  0  0  0  0  0
   -1.9038   -5.8946   -1.5980 C   0  0  0  0  0  0  0  0  0  0  0  0
   -1.3360   -4.7025   -1.4240 N   0  0  0  0  0  0  0  0  0  0  0  0
   -3.4530    3.9565    0.6992 H   0  0  0  0  0  0  0  0  0  0  0  0
   -3.9374    4.5490   -0.9061 H   0  0  0  0  0  0  0  0  0  0  0  0
   -2.9625    3.0658   -0.8487 H   0  0  0  0  0  0  0  0  0  0  0  0
   -6.1296    4.1669   -1.6119 H   0  0  0  0  0  0  0  0  0  0  0  0
   -8.1932    2.8456   -1.5372 H   0  0  0  0  0  0  0  0  0  0  0  0
   -8.2651    0.8475   -0.2026 H   0  0  0  0  0  0  0  0  0  0  0  0
   -3.5328    2.0961    1.8304 H   0  0  0  0  0  0  0  0  0  0  0  0
   -4.3487    0.5453    2.0526 H   0  0  0  0  0  0  0  0  0  0  0  0
   -4.2028   -1.0461    0.4904 H   0  0  0  0  0  0  0  0  0  0  0  0
   -4.0832   -0.1331   -1.0553 H   0  0  0  0  0  0  0  0  0  0  0  0
   -2.3467   -1.3670   -1.8761 H   0  0  0  0  0  0  0  0  0  0  0  0
   -2.9728   -2.5334   -0.6998 H   0  0  0  0  0  0  0  0  0  0  0  0
   -0.4393   -1.2127    1.9243 H   0  0  0  0  0  0  0  0  0  0  0  0
   -2.1601   -1.7953    1.8193 H   0  0  0  0  0  0  0  0  0  0  0  0
   -2.0528    0.5605    2.4401 H   0  0  0  0  0  0  0  0  0  0  0  0
   -0.9299    0.9078    1.1140 H   0  0  0  0  0  0  0  0  0  0  0  0
    3.5049   -2.2610    0.5034 H   0  0  0  0  0  0  0  0  0  0  0  0
    5.6317   -1.0031    0.5555 H   0  0  0  0  0  0  0  0  0  0  0  0
    7.1735   -0.2427   -0.5825 H   0  0  0  0  0  0  0  0  0  0  0  0
    9.3551    1.0230   -0.5324 H   0  0  0  0  0  0  0  0  0  0  0  0
    8.9608    6.4604    0.5530 H   0  0  0  0  0  0  0  0  0  0  0  0
    5.1138    3.3949    0.2992 H   0  0  0  0  0  0  0  0  0  0  0  0
    3.6554    2.4253   -0.8908 H   0  0  0  0  0  0  0  0  0  0  0  0
    1.5590    1.2188   -0.9464 H   0  0  0  0  0  0  0  0  0  0  0  0
   -1.5726   -4.4929    1.8919 H   0  0  0  0  0  0  0  0  0  0  0  0
   -2.8057   -7.5454   -0.7116 H   0  0  0  0  0  0  0  0  0  0  0  0
   -1.9960   -6.2908   -2.5998 H   0  0  0  0  0  0  0  0  0  0  0  0
  1  2  1  0
  2  3  2  0
  3  4  1  0
  4  5  2  0
  5  6  1  0
  6  7  2  0
  7  8  1  0
  8  9  1  0
  9 10  1  0
 10 11  1  0
 11 12  1  0
 12 13  1  0
 13 14  1  0
 12 15  1  0
 15 16  2  0
 15 17  1  0
 17 18  1  0
 18 19  2  0
 19 20  1  0
 20 21  2  0
 21 22  1  0
 22 23  2  0
 23 24  1  0
 24 25  2  0
 25 26  1  0
 26 27  1  0
 27 28  2  0
 28 29  1  0
 29 30  2  0
 21 31  1  0
 31 32  2  0
 17 33  1  0
 33 34  2  0
 33 35  1  0
 35 36  1  0
 36 37  2  0
 37 38  1  0
 38 39  2  0
 38 40  1  0
 40 41  1  0
 41 42  2  0
  7  2  1  0
 14  9  1  0
 32 18  1  0
 42 36  1  0
 35 12  1  0
 30 22  1  0
 29 25  1  0
  1 43  1  0
  1 44  1  0
  1 45  1  0
  3 46  1  0
  4 47  1  0
  5 48  1  0
  8 49  1  0
  8 50  1  0
 10 51  1  0
 10 52  1  0
 11 53  1  0
 11 54  1  0
 13 55  1  0
 13 56  1  0
 14 57  1  0
 14 58  1  0
 19 59  1  0
 20 60  1  0
 23 61  1  0
 24 62  1  0
 27 63  1  0
 30 64  1  0
 31 65  1  0
 32 66  1  0
 37 67  1  0
 40 68  1  0
 41 69  1  0
M  END
$$$$
