@<TRIPOS>MOLECULE
*****
 69 75 0 0 0
SMALL
GASTEIGER

@<TRIPOS>ATOM
      1 C          -3.7736    3.6311   -0.3032 C.3     1  UNL1       -0.0380
      2 C          -5.0411    2.8711   -0.2930 C.ar    1  UNL1       -0.0279
      3 C          -6.1548    3.2689   -1.0099 C.ar    1  UNL1       -0.0557
      4 C          -7.3192    2.5489   -0.9846 C.ar    1  UNL1       -0.0433
      5 C          -7.3289    1.4013   -0.2060 C.ar    1  UNL1        0.0279
      6 N          -6.2403    1.0407    0.4755 N.ar    1  UNL1       -0.2583
      7 C          -5.0807    1.7218    0.4749 C.ar    1  UNL1        0.0581
      8 C          -3.9603    1.2211    1.2634 C.3     1  UNL1        0.0415
      9 N          -2.9255    0.5763    0.4904 N.3     1  UNL1       -0.2965
     10 C          -3.4810   -0.5448   -0.1919 C.3     1  UNL1        0.0017
     11 C          -2.5033   -1.5080   -0.7699 C.3     1  UNL1       -0.0095
     12 C          -1.2025   -1.5778   -0.0500 C.3     1  UNL1        0.1240
     13 C          -1.3967   -1.1500    1.3677 C.3     1  UNL1       -0.0095
     14 C          -1.8315    0.2800    1.3782 C.3     1  UNL1        0.0017
     15 C          -0.1201   -0.7707   -0.7224 C.2     1  UNL1        0.2516
     16 O          -0.3555    0.1641   -1.5152 O.2     1  UNL1       -0.2724
     17 N           1.1340   -1.3086   -0.2568 N.am    1  UNL1       -0.1920
     18 C           2.3632   -0.6137   -0.2287 C.ar    1  UNL1        0.0455
     19 C           3.5183   -1.2244    0.1923 C.ar    1  UNL1       -0.0392
     20 C           4.7281   -0.5125    0.2222 C.ar    1  UNL1       -0.0523
     21 C           4.7984    0.8049   -0.1642 C.ar    1  UNL1       -0.0177
     22 C           6.0469    1.5601   -0.1361 C.ar    1  UNL1       -0.0158
     23 C           7.1915    0.7987   -0.3840 C.ar    1  UNL1       -0.0529
     24 C           8.3968    1.4847   -0.3588 C.ar    1  UNL1       -0.0453
     25 C           8.3954    2.8446   -0.0969 C.ar    1  UNL1        0.0390
     26 S           9.6859    4.0303    0.0189 S.2     1  UNL1       -0.0754
     27 C           8.5539    5.4782    0.3985 C.ar    1  UNL1        0.0659
     28 N           7.4424    4.8644    0.3775 N.ar    1  UNL1       -0.2474
     29 C           7.2873    3.5990    0.1464 C.ar    1  UNL1        0.0787
     30 C           6.0581    2.9001    0.1207 C.ar    1  UNL1       -0.0275
     31 C           3.6205    1.3796   -0.5790 C.ar    1  UNL1       -0.0523
     32 C           2.4255    0.6945   -0.6140 C.ar    1  UNL1       -0.0392
     33 C           0.8127   -2.6328    0.1504 C.2     1  UNL1        0.3219
     34 O           1.6136   -3.4894    0.6313 O.2     1  UNL1       -0.2512
     35 N          -0.5927   -2.9045   -0.0550 N.am    1  UNL1       -0.2240
     36 C          -1.1929   -4.1593   -0.2151 C.ar    1  UNL1        0.1364
     37 C          -1.6495   -4.8628    0.8672 C.ar    1  UNL1        0.0432
     38 C          -2.2354   -6.0937    0.6823 C.ar    1  UNL1        0.2531
     39 O          -2.6620   -6.7600    1.6496 O.2     1  UNL1       -0.2678
     40 N          -2.3550   -6.5944   -0.5517 N.ar    1  UNL1       -0.3133
     41 C          -1.9038   -5.8946   -1.5980 C.ar    1  UNL1        0.0981
     42 N          -1.3360   -4.7025   -1.4240 N.ar    1  UNL1       -0.2220
     43 H          -3.4530    3.9565    0.6992 H       1  UNL1        0.0278
     44 H          -3.9374    4.5490   -0.9061 H       1  UNL1        0.0278
     45 H          -2.9625    3.0658   -0.8487 H       1  UNL1        0.0278
     46 H          -6.1296    4.1669   -1.6119 H       1  UNL1        0.0621
     47 H          -8.1932    2.8456   -1.5372 H       1  UNL1        0.0633
     48 H          -8.2651    0.8475   -0.2026 H       1  UNL1        0.0829
     49 H          -3.5328    2.0961    1.8304 H       1  UNL1        0.0491
     50 H          -4.3487    0.5453    2.0526 H       1  UNL1        0.0491
     51 H          -4.2028   -1.0461    0.4904 H       1  UNL1        0.0427
     52 H          -4.0832   -0.1331   -1.0553 H       1  UNL1        0.0427
     53 H          -2.3467   -1.3670   -1.8761 H       1  UNL1        0.0303
     54 H          -2.9728   -2.5334   -0.6998 H       1  UNL1        0.0303
     55 H          -0.4393   -1.2127    1.9243 H       1  UNL1        0.0303
     56 H          -2.1601   -1.7953    1.8193 H       1  UNL1        0.0303
     57 H          -2.0528    0.5605    2.4401 H       1  UNL1        0.0427
     58 H          -0.9299    0.9078    1.1140 H       1  UNL1        0.0427
     59 H           3.5049   -2.2610    0.5034 H       1  UNL1        0.0636
     60 H           5.6317   -1.0031    0.5555 H       1  UNL1        0.0624
     61 H           7.1735   -0.2427   -0.5825 H       1  UNL1        0.0624
     62 H           9.3551    1.0230   -0.5324 H       1  UNL1        0.0629
     63 H           8.9608    6.4604    0.5530 H       1  UNL1        0.0907
     64 H           5.1138    3.3949    0.2992 H       1  UNL1        0.0645
     65 H           3.6554    2.4253   -0.8908 H       1  UNL1        0.0624
     66 H           1.5590    1.2188   -0.9464 H       1  UNL1        0.0636
     67 H          -1.5726   -4.4929    1.8919 H       1  UNL1        0.0706
     68 H          -2.8057   -7.5454   -0.7116 H       1  UNL1        0.1698
     69 H          -1.9960   -6.2908   -2.5998 H       1  UNL1        0.1028
@<TRIPOS>BOND
     1     1     2    1
     2     2     3   ar
     3     3     4   ar
     4     4     5   ar
     5     5     6   ar
     6     6     7   ar
     7     7     8    1
     8     8     9    1
     9     9    10    1
    10    10    11    1
    11    11    12    1
    12    12    13    1
    13    13    14    1
    14    12    15    1
    15    15    16    2
    16    15    17   am
    17    17    18    1
    18    18    19   ar
    19    19    20   ar
    20    20    21   ar
    21    21    22    1
    22    22    23   ar
    23    23    24   ar
    24    24    25   ar
    25    25    26   ar
    26    26    27   ar
    27    27    28   ar
    28    28    29   ar
    29    29    30   ar
    30    21    31   ar
    31    31    32   ar
    32    17    33   am
    33    33    34    2
    34    33    35   am
    35    35    36    1
    36    36    37   ar
    37    37    38   ar
    38    38    39    2
    39    38    40   ar
    40    40    41   ar
    41    41    42   ar
    42     7     2   ar
    43    14     9    1
    44    32    18   ar
    45    42    36   ar
    46    35    12    1
    47    30    22   ar
    48    29    25   ar
    49     1    43    1
    50     1    44    1
    51     1    45    1
    52     3    46    1
    53     4    47    1
    54     5    48    1
    55     8    49    1
    56     8    50    1
    57    10    51    1
    58    10    52    1
    59    11    53    1
    60    11    54    1
    61    13    55    1
    62    13    56    1
    63    14    57    1
    64    14    58    1
    65    19    59    1
    66    20    60    1
    67    23    61    1
    68    24    62    1
    69    27    63    1
    70    30    64    1
    71    31    65    1
    72    32    66    1
    73    37    67    1
    74    40    68    1
    75    41    69    1
