@<TRIPOS>MOLECULE
*****
 48 48 0 0 0
SMALL
GASTEIGER

@<TRIPOS>ATOM
      1 CA         -3.6913    1.6734    0.8639 C.3     1  ILE1        0.1174
      2 CB         -4.2310    2.6375   -0.1746 C.3     1  ILE1       -0.0362
      3 N          -3.3487    0.4348    0.1962 N.am    1  ILE1       -0.3010
      4 C          -2.0108   -0.0217    0.1746 C.2     1  ILE1        0.2342
      5 O          -0.9024    0.4282    0.6438 O.2     1  ILE1       -0.2738
      6 CA         -1.0698   -1.0440   -0.2532 C.3     1  ILE1        0.1020
      7 N           0.2879   -0.6721    0.1757 N.am    1  ILE1       -0.3015
      8 C           1.3015   -0.3625   -0.7996 C.2     0  UNK0        0.2457
      9 O           1.0267   -0.4097   -2.0214 O.2     0  UNK0       -0.2728
     10 C           2.6887    0.0191   -0.4261 C.3     0  UNK0        0.1717
     11 O           3.6236   -0.8891   -1.1484 O.3     0  UNK0       -0.3467
     12 C           3.5496    0.5817   -1.3558 C.3     0  UNK0        0.1904
     13 C           4.8619    1.1668   -0.9800 C.2     0  UNK0        0.3394
     14 O           5.5077    1.9106   -1.7843 O.2     0  UNK0       -0.2478
     15 O           5.3320    0.8636    0.2672 O.3     0  UNK0       -0.4630
     16 C           6.5593    1.3315    0.7907 C.3     0  UNK0        0.0897
     17 C           6.6031    2.8452    0.8509 C.3     0  UNK0       -0.0306
     18 CB         -1.3474   -2.4508    0.0935 C.3     1  ILE1       -0.0171
     19 CG2        -1.4477   -2.7430    1.5614 C.3     1  ILE1       -0.0603
     20 CG1        -2.5201   -3.0845   -0.6042 C.3     1  ILE1       -0.0512
     21 CD1        -2.3377   -3.0781   -2.1198 C.3     1  ILE1       -0.0650
     22 C          -4.6606    1.4783    1.9729 C.2     1  ILE1        0.3250
     23 O          -5.0292    2.6312    2.6536 O.3     1  ILE1       -0.4793
     24 OXT        -5.1595    0.3630    2.3296 O.2     1  ILE1       -0.2489
     25 HA         -2.7875    2.1354    1.3049 H       1  ILE1        0.0611
     26 HB1        -3.4044    3.0073   -0.8086 H       1  ILE1        0.0253
     27 HB2        -4.9508    2.1083   -0.8339 H       1  ILE1        0.0253
     28 HB3        -4.7273    3.5113    0.3040 H       1  ILE1        0.0253
     29 H          -3.8067   -0.3181   -0.3358 H       1  ILE1        0.1496
     30 HA         -1.0035   -1.0018   -1.3809 H       1  ILE1        0.0597
     31 H           0.6417   -0.5969    1.1545 H       1  ILE1        0.1495
     32 H           2.8628    0.0409    0.6652 H       0  UNK0        0.0726
     33 H           3.2219    0.8633   -2.3783 H       0  UNK0        0.0745
     34 H           7.3625    1.0304    0.0713 H       0  UNK0        0.0694
     35 H           6.7734    0.8458    1.7426 H       0  UNK0        0.0694
     36 H           6.8881    3.2740   -0.1325 H       0  UNK0        0.0262
     37 H           7.4113    3.1387    1.5640 H       0  UNK0        0.0262
     38 H           5.6690    3.2857    1.2426 H       0  UNK0        0.0262
     39 HB         -0.4504   -3.0491   -0.2624 H       1  ILE1        0.0321
     40 HG21       -2.2415   -2.1801    2.0767 H       1  ILE1        0.0233
     41 HG22       -1.6959   -3.8209    1.6678 H       1  ILE1        0.0233
     42 HG23       -0.5061   -2.5918    2.1090 H       1  ILE1        0.0233
     43 HG11       -3.4946   -2.6619   -0.3797 H       1  ILE1        0.0266
     44 HG12       -2.5633   -4.1587   -0.2466 H       1  ILE1        0.0266
     45 HD11       -1.3386   -3.4195   -2.4335 H       1  ILE1        0.0230
     46 HD12       -2.4437   -2.0176   -2.4348 H       1  ILE1        0.0230
     47 HD13       -3.1541   -3.7179   -2.5181 H       1  ILE1        0.0230
     48 H          -5.8484    2.6837    3.2563 H       1  ILE1        0.2951
@<TRIPOS>BOND
     1     1     2    1
     2     1     3    1
     3     3     4   am
     4     4     5    2
     5     4     6    1
     6     6     7    1
     7     7     8   am
     8     8     9    2
     9     8    10    1
    10    10    11    1
    11    11    12    1
    12    12    13    1
    13    13    14    2
    14    13    15    1
    15    15    16    1
    16    16    17    1
    17     6    18    1
    18    18    19    1
    19    18    20    1
    20    20    21    1
    21     1    22    1
    22    22    23    1
    23    22    24    2
    24    12    10    1
    25     1    25    1
    26     2    26    1
    27     2    27    1
    28     2    28    1
    29     3    29    1
    30     6    30    1
    31     7    31    1
    32    10    32    1
    33    12    33    1
    34    16    34    1
    35    16    35    1
    36    17    36    1
    37    17    37    1
    38    17    38    1
    39    18    39    1
    40    19    40    1
    41    19    41    1
    42    19    42    1
    43    20    43    1
    44    20    44    1
    45    21    45    1
    46    21    46    1
    47    21    47    1
    48    23    48    1
