@<TRIPOS>MOLECULE
*****
 49 51 0 0 0
SMALL
GASTEIGER

@<TRIPOS>ATOM
      1 C          -5.0259   -0.8079   -0.1109 C.3     1  UNL1       -0.0288
      2 C          -4.1100    0.0337    0.7316 C.3     1  UNL1        0.1831
      3 C          -4.7834    0.3834    2.0725 C.3     1  UNL1       -0.0288
      4 C          -2.7975   -0.5856    1.0085 C.2     1  UNL1        0.3067
      5 N          -2.6212   -1.2313    2.2634 N.pl3   1  UNL1       -0.2488
      6 N          -1.8777   -0.5303    0.1429 N.2     1  UNL1       -0.0727
      7 C          -1.8691    0.0629   -1.1506 C.3     1  UNL1        0.1959
      8 C          -2.4461   -0.9512   -2.1453 C.3     1  UNL1       -0.0112
      9 C          -0.4423    0.3497   -1.5112 C.ar    1  UNL1        0.0420
     10 C           0.5887    0.0473   -0.6574 C.ar    1  UNL1       -0.0301
     11 C           1.9326    0.3066   -0.9726 C.ar    1  UNL1        0.0343
     12 N           2.9299   -0.0408   -0.0270 N.am    1  UNL1       -0.2802
     13 C           4.3122    0.1326   -0.1469 C.2     1  UNL1        0.2666
     14 O           4.7857    0.6471   -1.1822 O.2     1  UNL1       -0.2682
     15 C           5.2472   -0.2810    0.9317 C.ar    1  UNL1        0.1258
     16 C           6.6042   -0.0992    0.7886 C.ar    1  UNL1       -0.0285
     17 C           7.5226   -0.4571    1.7425 C.ar    1  UNL1       -0.0228
     18 C           7.0367   -1.0298    2.9024 C.ar    1  UNL1        0.1414
     19 F           7.9337   -1.3971    3.8728 F       1  UNL1       -0.2039
     20 C           5.6832   -1.2109    3.0447 C.ar    1  UNL1        0.0636
     21 N           4.8093   -0.8398    2.0705 N.ar    1  UNL1       -0.2475
     22 C           2.1369    0.8844   -2.1969 C.ar    1  UNL1       -0.0377
     23 C           1.0915    1.1990   -3.0800 C.ar    1  UNL1       -0.0243
     24 C          -0.2107    0.9293   -2.7344 C.ar    1  UNL1        0.1311
     25 F          -1.1926    1.2463   -3.6112 F       1  UNL1       -0.2050
     26 C          -2.5926    1.3714   -1.2920 C.3     1  UNL1        0.1183
     27 S          -3.8544    1.5779   -0.0842 S.O2    1  UNL1       -0.0101
     28 O          -5.1434    1.9282   -0.8050 O.2     1  UNL1       -0.1731
     29 O          -3.5037    2.6698    0.8953 O.2     1  UNL1       -0.1731
     30 H          -6.0595   -0.8073    0.3531 H       1  UNL1        0.0256
     31 H          -4.7157   -1.8519   -0.2238 H       1  UNL1        0.0256
     32 H          -5.1987   -0.3934   -1.1252 H       1  UNL1        0.0256
     33 H          -5.4458    1.2635    1.8975 H       1  UNL1        0.0256
     34 H          -3.9473    0.6203    2.7690 H       1  UNL1        0.0256
     35 H          -5.3522   -0.5200    2.3745 H       1  UNL1        0.0256
     36 H          -2.2236   -0.7052    3.0835 H       1  UNL1        0.2881
     37 H          -2.8881   -2.2422    2.3801 H       1  UNL1        0.2881
     38 H          -3.3342   -0.5207   -2.6079 H       1  UNL1        0.0279
     39 H          -1.6551   -1.1929   -2.8892 H       1  UNL1        0.0279
     40 H          -2.7428   -1.8415   -1.5655 H       1  UNL1        0.0279
     41 H           0.3869   -0.4121    0.3086 H       1  UNL1        0.0641
     42 H           2.6251   -0.4907    0.8987 H       1  UNL1        0.1552
     43 H           6.9661    0.3494   -0.1236 H       1  UNL1        0.0641
     44 H           8.5876   -0.3169    1.6356 H       1  UNL1        0.0647
     45 H           5.3456   -1.6651    3.9737 H       1  UNL1        0.0859
     46 H           3.1458    1.1138   -2.5094 H       1  UNL1        0.0637
     47 H           1.3249    1.6546   -4.0318 H       1  UNL1        0.0647
     48 H          -3.0701    1.4070   -2.3049 H       1  UNL1        0.0550
     49 H          -1.8928    2.2440   -1.1696 H       1  UNL1        0.0550
@<TRIPOS>BOND
     1     1     2    1
     2     2     3    1
     3     2     4    1
     4     4     5    1
     5     4     6    2
     6     6     7    1
     7     7     8    1
     8     7     9    1
     9     9    10   ar
    10    10    11   ar
    11    11    12    1
    12    12    13   am
    13    13    14    2
    14    13    15    1
    15    15    16   ar
    16    16    17   ar
    17    17    18   ar
    18    18    19    1
    19    18    20   ar
    20    20    21   ar
    21    11    22   ar
    22    22    23   ar
    23    23    24   ar
    24    24    25    1
    25     7    26    1
    26    26    27    1
    27    27    28    2
    28    27    29    2
    29    27     2    1
    30    24     9   ar
    31    21    15   ar
    32     1    30    1
    33     1    31    1
    34     1    32    1
    35     3    33    1
    36     3    34    1
    37     3    35    1
    38     5    36    1
    39     5    37    1
    40     8    38    1
    41     8    39    1
    42     8    40    1
    43    10    41    1
    44    12    42    1
    45    16    43    1
    46    17    44    1
    47    20    45    1
    48    22    46    1
    49    23    47    1
    50    26    48    1
    51    26    49    1
