@<TRIPOS>MOLECULE
*****
 32 35 0 0 0
SMALL
GASTEIGER

@<TRIPOS>ATOM
      1 C           4.5389    1.3374    0.2473 C.ar    1  UNL1       -0.0617
      2 C           3.9288    0.9813    1.4248 C.ar    1  UNL1       -0.0615
      3 C           2.9185    0.0522    1.4218 C.ar    1  UNL1       -0.0582
      4 C           2.4773   -0.5549    0.2620 C.ar    1  UNL1       -0.0415
      5 C           1.3928   -1.5330    0.3694 C.3     1  UNL1        0.0185
      6 C           0.0419   -0.9464    0.2420 C.ar    1  UNL1        0.0907
      7 N          -0.2095    0.3491    0.0466 N.ar    1  UNL1       -0.2461
      8 C          -1.5033    0.7829   -0.0569 C.ar    1  UNL1        0.0881
      9 C          -1.7518    2.1325   -0.2601 C.ar    1  UNL1       -0.0343
     10 C          -3.0490    2.5672   -0.3638 C.ar    1  UNL1       -0.0596
     11 C          -4.0797    1.6506   -0.2636 C.ar    1  UNL1       -0.0597
     12 C          -3.8415    0.3127   -0.0625 C.ar    1  UNL1       -0.0357
     13 C          -2.5325   -0.1264    0.0423 C.ar    1  UNL1        0.0748
     14 N          -2.2892   -1.4506    0.2416 N.ar    1  UNL1       -0.2786
     15 C          -3.1280   -2.4728    0.3632 C.ar    1  UNL1        0.1247
     16 N          -2.3464   -3.5717    0.5468 N.ar    1  UNL1       -0.1371
     17 N          -1.0887   -3.1851    0.5304 N.ar    1  UNL1       -0.1278
     18 C          -1.0199   -1.8343    0.3371 C.ar    1  UNL1        0.1832
     19 C           3.1011   -0.1854   -0.9113 C.ar    1  UNL1       -0.0582
     20 C           4.1283    0.7561   -0.9264 C.ar    1  UNL1       -0.0615
     21 H           5.3444    2.0710    0.2080 H       1  UNL1        0.0618
     22 H           4.2641    1.4470    2.3313 H       1  UNL1        0.0618
     23 H           2.4588   -0.2021    2.3895 H       1  UNL1        0.0620
     24 H           1.4638   -2.0869    1.3045 H       1  UNL1        0.0378
     25 H           1.4988   -2.2724   -0.4631 H       1  UNL1        0.0378
     26 H          -0.8977    2.8106   -0.3314 H       1  UNL1        0.0639
     27 H          -3.2786    3.6156   -0.5228 H       1  UNL1        0.0618
     28 H          -5.0905    2.0227   -0.3492 H       1  UNL1        0.0618
     29 H          -4.6361   -0.4220    0.0189 H       1  UNL1        0.0639
     30 H          -4.2067   -2.4449    0.3252 H       1  UNL1        0.1052
     31 H           2.7758   -0.6437   -1.8285 H       1  UNL1        0.0620
     32 H           4.6159    1.0433   -1.8531 H       1  UNL1        0.0618
@<TRIPOS>BOND
     1     1     2   ar
     2     2     3   ar
     3     3     4   ar
     4     4     5    1
     5     5     6    1
     6     6     7   ar
     7     7     8   ar
     8     8     9   ar
     9     9    10   ar
    10    10    11   ar
    11    11    12   ar
    12    12    13   ar
    13    13    14   ar
    14    14    15   ar
    15    15    16   ar
    16    16    17   ar
    17    17    18   ar
    18     4    19   ar
    19    19    20   ar
    20    20     1   ar
    21    18     6   ar
    22    13     8   ar
    23    18    14   ar
    24     1    21    1
    25     2    22    1
    26     3    23    1
    27     5    24    1
    28     5    25    1
    29     9    26    1
    30    10    27    1
    31    11    28    1
    32    12    29    1
    33    15    30    1
    34    19    31    1
    35    20    32    1
