
     RDKit          3D

 32 35  0  0  0  0  0  0  0  0999 V2000
    4.5389    1.3374    0.2473 C   0  0  0  0  0  0  0  0  0  0  0  0
    3.9288    0.9813    1.4248 C   0  0  0  0  0  0  0  0  0  0  0  0
    2.9185    0.0522    1.4218 C   0  0  0  0  0  0  0  0  0  0  0  0
    2.4773   -0.5549    0.2620 C   0  0  0  0  0  0  0  0  0  0  0  0
    1.3928   -1.5330    0.3694 C   0  0  0  0  0  0  0  0  0  0  0  0
    0.0419   -0.9464    0.2420 C   0  0  0  0  0  0  0  0  0  0  0  0
   -0.2095    0.3491    0.0466 N   0  0  0  0  0  0  0  0  0  0  0  0
   -1.5033    0.7829   -0.0569 C   0  0  0  0  0  0  0  0  0  0  0  0
   -1.7518    2.1325   -0.2601 C   0  0  0  0  0  0  0  0  0  0  0  0
   -3.0490    2.5672   -0.3638 C   0  0  0  0  0  0  0  0  0  0  0  0
   -4.0797    1.6506   -0.2636 C   0  0  0  0  0  0  0  0  0  0  0  0
   -3.8415    0.3127   -0.0625 C   0  0  0  0  0  0  0  0  0  0  0  0
   -2.5325   -0.1264    0.0423 C   0  0  0  0  0  0  0  0  0  0  0  0
   -2.2892   -1.4506    0.2416 N   0  0  0  0  0  0  0  0  0  0  0  0
   -3.1280   -2.4728    0.3632 C   0  0  0  0  0  0  0  0  0  0  0  0
   -2.3464   -3.5717    0.5468 N   0  0  0  0  0  0  0  0  0  0  0  0
   -1.0887   -3.1851    0.5304 N   0  0  0  0  0  0  0  0  0  0  0  0
   -1.0199   -1.8343    0.3371 C   0  0  0  0  0  0  0  0  0  0  0  0
    3.1011   -0.1854   -0.9113 C   0  0  0  0  0  0  0  0  0  0  0  0
    4.1283    0.7561   -0.9264 C   0  0  0  0  0  0  0  0  0  0  0  0
    5.3444    2.0710    0.2080 H   0  0  0  0  0  0  0  0  0  0  0  0
    4.2641    1.4470    2.3313 H   0  0  0  0  0  0  0  0  0  0  0  0
    2.4588   -0.2021    2.3895 H   0  0  0  0  0  0  0  0  0  0  0  0
    1.4638   -2.0869    1.3045 H   0  0  0  0  0  0  0  0  0  0  0  0
    1.4988   -2.2724   -0.4631 H   0  0  0  0  0  0  0  0  0  0  0  0
   -0.8977    2.8106   -0.3314 H   0  0  0  0  0  0  0  0  0  0  0  0
   -3.2786    3.6156   -0.5228 H   0  0  0  0  0  0  0  0  0  0  0  0
   -5.0905    2.0227   -0.3492 H   0  0  0  0  0  0  0  0  0  0  0  0
   -4.6361   -0.4220    0.0189 H   0  0  0  0  0  0  0  0  0  0  0  0
   -4.2067   -2.4449    0.3252 H   0  0  0  0  0  0  0  0  0  0  0  0
    2.7758   -0.6437   -1.8285 H   0  0  0  0  0  0  0  0  0  0  0  0
    4.6159    1.0433   -1.8531 H   0  0  0  0  0  0  0  0  0  0  0  0
  1  2  2  0
  2  3  1  0
  3  4  2  0
  4  5  1  0
  5  6  1  0
  6  7  2  0
  7  8  1  0
  8  9  2  0
  9 10  1  0
 10 11  2  0
 11 12  1  0
 12 13  2  0
 13 14  1  0
 14 15  1  0
 15 16  2  0
 16 17  1  0
 17 18  2  0
  4 19  1  0
 19 20  2  0
 20  1  1  0
 18  6  1  0
 13  8  1  0
 18 14  1  0
  1 21  1  0
  2 22  1  0
  3 23  1  0
  5 24  1  0
  5 25  1  0
  9 26  1  0
 10 27  1  0
 11 28  1  0
 12 29  1  0
 15 30  1  0
 19 31  1  0
 20 32  1  0
M  END
$$$$
