@<TRIPOS>MOLECULE
*****
 69 71 0 0 0
SMALL
GASTEIGER

@<TRIPOS>ATOM
      1 C           7.5350   -0.8530    0.3426 C.3     1  UNL1       -0.0307
      2 C           6.1961   -0.3258    0.8106 C.3     1  UNL1        0.0868
      3 O           6.0039    0.9372    0.2044 O.3     1  UNL1       -0.4914
      4 C           4.8744    1.7090    0.4138 C.ar    1  UNL1        0.1347
      5 C           4.7374    2.9475   -0.2086 C.ar    1  UNL1        0.1003
      6 C           3.5913    3.6868    0.0308 C.ar    1  UNL1       -0.0439
      7 C           2.5867    3.2411    0.8590 C.ar    1  UNL1       -0.0571
      8 C           2.6780    2.0159    1.4995 C.ar    1  UNL1       -0.0351
      9 C           1.7162    1.3756    2.4147 C.3     1  UNL1        0.0492
     10 C           0.6930    0.5839    1.6405 C.2     1  UNL1        0.2178
     11 O           1.2389    0.9246    0.5416 O.2     1  UNL1       -0.2754
     12 N          -0.3872   -0.1829    2.0916 N.am    1  UNL1       -0.3081
     13 C          -1.1981   -0.8311    1.0045 C.3     1  UNL1        0.0503
     14 C          -0.8931   -2.2919    1.1849 C.3     1  UNL1       -0.0279
     15 C          -1.4932   -3.2712    0.2719 C.3     1  UNL1       -0.0447
     16 C          -2.9756   -3.3040    0.3093 C.3     1  UNL1       -0.0626
     17 C          -0.9529   -4.6577    0.6001 C.3     1  UNL1       -0.0626
     18 C          -2.5779   -0.4414    1.2104 C.ar    1  UNL1       -0.0062
     19 C          -2.9535   -0.3967    2.5634 C.ar    1  UNL1       -0.0550
     20 C          -4.2207   -0.0663    2.9901 C.ar    1  UNL1       -0.0613
     21 C          -5.1597    0.2334    2.0313 C.ar    1  UNL1       -0.0600
     22 C          -4.7855    0.1878    0.7104 C.ar    1  UNL1       -0.0403
     23 C          -3.5268   -0.1384    0.2635 C.ar    1  UNL1        0.0347
     24 N          -3.2446   -0.1051   -1.1163 N.pl3   1  UNL1       -0.3296
     25 C          -4.4032   -0.2599   -1.9771 C.3     1  UNL1        0.0122
     26 C          -4.7279    1.1246   -2.4903 C.3     1  UNL1       -0.0372
     27 C          -3.5316    1.6135   -3.2858 C.3     1  UNL1       -0.0502
     28 C          -2.4683    0.5596   -3.3460 C.3     1  UNL1       -0.0372
     29 C          -2.0667    0.0867   -1.9335 C.3     1  UNL1        0.0122
     30 C           3.8424    1.3044    1.2341 C.ar    1  UNL1       -0.0155
     31 C           5.7681    3.4650   -1.0955 C.2     1  UNL1        0.3404
     32 O           6.9010    2.6967   -1.3125 O.3     1  UNL1       -0.4770
     33 O           5.7634    4.5629   -1.7154 O.2     1  UNL1       -0.2450
     34 H           7.7180   -1.8714    0.7646 H       1  UNL1        0.0262
     35 H           8.3719   -0.2181    0.7355 H       1  UNL1        0.0262
     36 H           7.6024   -0.8574   -0.7640 H       1  UNL1        0.0262
     37 H           5.4148   -1.0539    0.5917 H       1  UNL1        0.0694
     38 H           6.2759   -0.1809    1.9224 H       1  UNL1        0.0694
     39 H           3.4220    4.6537   -0.4191 H       1  UNL1        0.0627
     40 H           1.6644    3.7820    1.0824 H       1  UNL1        0.0621
     41 H           2.2366    0.7389    3.1318 H       1  UNL1        0.0407
     42 H           1.1764    2.1616    2.9827 H       1  UNL1        0.0407
     43 H          -0.3537   -0.1074    3.1069 H       1  UNL1        0.1493
     44 H          -0.7657   -0.5401    0.0456 H       1  UNL1        0.0549
     45 H          -1.1268   -2.6228    2.2379 H       1  UNL1        0.0289
     46 H           0.2351   -2.4503    1.1370 H       1  UNL1        0.0289
     47 H          -1.1040   -3.0505   -0.7584 H       1  UNL1        0.0296
     48 H          -3.3746   -4.3631    0.3461 H       1  UNL1        0.0232
     49 H          -3.4165   -2.8291    1.1973 H       1  UNL1        0.0232
     50 H          -3.3566   -2.8340   -0.6054 H       1  UNL1        0.0232
     51 H          -1.6849   -5.3616    0.1683 H       1  UNL1        0.0232
     52 H          -0.8397   -4.7226    1.6949 H       1  UNL1        0.0232
     53 H           0.0324   -4.8013    0.1170 H       1  UNL1        0.0232
     54 H          -2.2725   -0.6238    3.3845 H       1  UNL1        0.0621
     55 H          -4.4895   -0.0377    4.0385 H       1  UNL1        0.0618
     56 H          -6.1576    0.4927    2.3766 H       1  UNL1        0.0618
     57 H          -5.6359    0.4513    0.0654 H       1  UNL1        0.0636
     58 H          -4.1471   -0.8886   -2.8534 H       1  UNL1        0.0464
     59 H          -5.2673   -0.7461   -1.4767 H       1  UNL1        0.0464
     60 H          -5.5984    1.1039   -3.1630 H       1  UNL1        0.0280
     61 H          -4.8642    1.8618   -1.6756 H       1  UNL1        0.0280
     62 H          -3.0815    2.5429   -2.8447 H       1  UNL1        0.0266
     63 H          -3.7816    1.8787   -4.3307 H       1  UNL1        0.0266
     64 H          -2.6485   -0.2645   -4.0337 H       1  UNL1        0.0280
     65 H          -1.5434    1.0773   -3.7416 H       1  UNL1        0.0280
     66 H          -1.4708    0.9401   -1.5450 H       1  UNL1        0.0464
     67 H          -1.5051   -0.8374   -2.1274 H       1  UNL1        0.0464
     68 H           4.0083    0.3213    1.6946 H       1  UNL1        0.0657
     69 H           7.7686    3.1256   -1.6101 H       1  UNL1        0.2954
@<TRIPOS>BOND
     1     1     2    1
     2     2     3    1
     3     3     4    1
     4     4     5   ar
     5     5     6   ar
     6     6     7   ar
     7     7     8   ar
     8     8     9    1
     9     9    10    1
    10    10    11    2
    11    10    12   am
    12    12    13    1
    13    13    14    1
    14    14    15    1
    15    15    16    1
    16    15    17    1
    17    13    18    1
    18    18    19   ar
    19    19    20   ar
    20    20    21   ar
    21    21    22   ar
    22    22    23   ar
    23    23    24    1
    24    24    25    1
    25    25    26    1
    26    26    27    1
    27    27    28    1
    28    28    29    1
    29     8    30   ar
    30     5    31    1
    31    31    32    1
    32    31    33    2
    33    30     4   ar
    34    23    18   ar
    35    29    24    1
    36     1    34    1
    37     1    35    1
    38     1    36    1
    39     2    37    1
    40     2    38    1
    41     6    39    1
    42     7    40    1
    43     9    41    1
    44     9    42    1
    45    12    43    1
    46    13    44    1
    47    14    45    1
    48    14    46    1
    49    15    47    1
    50    16    48    1
    51    16    49    1
    52    16    50    1
    53    17    51    1
    54    17    52    1
    55    17    53    1
    56    19    54    1
    57    20    55    1
    58    21    56    1
    59    22    57    1
    60    25    58    1
    61    25    59    1
    62    26    60    1
    63    26    61    1
    64    27    62    1
    65    27    63    1
    66    28    64    1
    67    28    65    1
    68    29    66    1
    69    29    67    1
    70    30    68    1
    71    32    69    1
