
     RDKit          3D

 54 56  0  0  0  0  0  0  0  0999 V2000
    5.4897    2.1104    0.4274 C   0  0  0  0  0  0  0  0  0  0  0  0
    4.8933    0.8786    0.1679 O   0  0  0  0  0  0  0  0  0  0  0  0
    3.5369    0.6256    0.2787 C   0  0  0  0  0  0  0  0  0  0  0  0
    2.6711    1.6515    0.6773 C   0  0  0  0  0  0  0  0  0  0  0  0
    1.3188    1.4119    0.7926 C   0  0  0  0  0  0  0  0  0  0  0  0
    0.9297    0.1317    0.4924 C   0  0  0  0  0  0  0  0  0  0  0  0
    1.6813   -0.9561    0.0881 C   0  0  0  0  0  0  0  0  0  0  0  0
    1.2450   -2.2419   -0.2234 O   0  0  0  0  0  0  0  0  0  0  0  0
    0.8896   -2.6288   -1.5641 C   0  0  0  0  0  0  0  0  0  0  0  0
    3.0535   -0.6529   -0.0102 C   0  0  0  0  0  0  0  0  0  0  0  0
    3.9963   -1.5940   -0.3937 O   0  0  0  0  0  0  0  0  0  0  0  0
    4.3135   -1.7129   -1.7619 C   0  0  0  0  0  0  0  0  0  0  0  0
   -0.4597   -0.3450    0.6245 C   0  0  0  0  0  0  0  0  0  0  0  0
   -0.2750   -1.6751    1.0928 C   0  0  0  0  0  0  0  0  0  0  0  0
   -1.2328   -2.6641    0.9534 C   0  0  0  0  0  0  0  0  0  0  0  0
   -2.4161   -2.6440    0.2613 C   0  0  0  0  0  0  0  0  0  0  0  0
   -2.8886   -3.7926   -0.3301 O   0  0  0  0  0  0  0  0  0  0  0  0
   -2.1592   -4.9884   -0.2308 C   0  0  0  0  0  0  0  0  0  0  0  0
   -3.2144   -1.5070    0.1007 C   0  0  0  0  0  0  0  0  0  0  0  0
   -4.4420   -1.7099   -0.0688 O   0  0  0  0  0  0  0  0  0  0  0  0
   -2.8959   -0.1714    0.0939 C   0  0  0  0  0  0  0  0  0  0  0  0
   -1.6560    0.3529    0.3737 C   0  0  0  0  0  0  0  0  0  0  0  0
   -1.7258    1.8506    0.3880 C   0  0  0  0  0  0  0  0  0  0  0  0
   -0.8995    2.3369    1.5247 C   0  0  0  0  0  0  0  0  0  0  0  0
    0.5492    2.6106    1.2034 C   0  0  0  0  0  0  0  0  0  0  0  0
   -3.0680    2.3465    0.3701 N   0  0  0  0  0  0  0  0  0  0  0  0
   -3.5146    3.1312   -0.7544 C   0  0  0  0  0  0  0  0  0  0  0  0
   -4.9103    3.6321   -0.7449 C   0  0  0  0  0  0  0  0  0  0  0  0
   -2.8012    3.4298   -1.7598 O   0  0  0  0  0  0  0  0  0  0  0  0
    4.8376    2.9130   -0.0056 H   0  0  0  0  0  0  0  0  0  0  0  0
    6.4632    2.2400   -0.1047 H   0  0  0  0  0  0  0  0  0  0  0  0
    5.6165    2.2748    1.5175 H   0  0  0  0  0  0  0  0  0  0  0  0
    3.0356    2.6378    0.8995 H   0  0  0  0  0  0  0  0  0  0  0  0
    0.7889   -3.7384   -1.5822 H   0  0  0  0  0  0  0  0  0  0  0  0
   -0.1405   -2.2176   -1.7768 H   0  0  0  0  0  0  0  0  0  0  0  0
    1.5338   -2.2015   -2.3253 H   0  0  0  0  0  0  0  0  0  0  0  0
    3.6547   -1.0470   -2.3522 H   0  0  0  0  0  0  0  0  0  0  0  0
    5.3418   -1.3111   -1.9134 H   0  0  0  0  0  0  0  0  0  0  0  0
    4.1934   -2.7483   -2.1391 H   0  0  0  0  0  0  0  0  0  0  0  0
    0.7061   -1.8192    1.6032 H   0  0  0  0  0  0  0  0  0  0  0  0
   -0.9853   -3.5691    1.4780 H   0  0  0  0  0  0  0  0  0  0  0  0
   -1.0957   -4.7940   -0.0807 H   0  0  0  0  0  0  0  0  0  0  0  0
   -2.6336   -5.5583    0.6176 H   0  0  0  0  0  0  0  0  0  0  0  0
   -2.3338   -5.6521   -1.1150 H   0  0  0  0  0  0  0  0  0  0  0  0
   -3.6025    0.6094   -0.1378 H   0  0  0  0  0  0  0  0  0  0  0  0
   -1.2339    2.1854   -0.5477 H   0  0  0  0  0  0  0  0  0  0  0  0
   -1.3193    3.2226    2.0425 H   0  0  0  0  0  0  0  0  0  0  0  0
   -0.8767    1.5535    2.3394 H   0  0  0  0  0  0  0  0  0  0  0  0
    1.0128    3.0298    2.1298 H   0  0  0  0  0  0  0  0  0  0  0  0
    0.6260    3.4296    0.4579 H   0  0  0  0  0  0  0  0  0  0  0  0
   -3.7716    2.1714    1.1502 H   0  0  0  0  0  0  0  0  0  0  0  0
   -5.2034    3.9906    0.2803 H   0  0  0  0  0  0  0  0  0  0  0  0
   -5.5509    2.7640   -0.9956 H   0  0  0  0  0  0  0  0  0  0  0  0
   -5.0722    4.4184   -1.5082 H   0  0  0  0  0  0  0  0  0  0  0  0
  1  2  1  0
  2  3  1  0
  3  4  2  0
  4  5  1  0
  5  6  2  0
  6  7  1  0
  7  8  1  0
  8  9  1  0
  7 10  2  0
 10 11  1  0
 11 12  1  0
  6 13  1  0
 13 14  2  0
 14 15  1  0
 15 16  2  0
 16 17  1  0
 17 18  1  0
 16 19  1  0
 19 20  2  0
 19 21  1  0
 21 22  2  0
 22 23  1  0
 23 24  1  0
 24 25  1  0
 23 26  1  0
 26 27  1  0
 27 28  1  0
 27 29  2  0
 10  3  1  0
 22 13  1  0
 25  5  1  0
  1 30  1  0
  1 31  1  0
  1 32  1  0
  4 33  1  0
  9 34  1  0
  9 35  1  0
  9 36  1  0
 12 37  1  0
 12 38  1  0
 12 39  1  0
 14 40  1  0
 15 41  1  0
 18 42  1  0
 18 43  1  0
 18 44  1  0
 21 45  1  0
 23 46  1  0
 24 47  1  0
 24 48  1  0
 25 49  1  0
 25 50  1  0
 26 51  1  0
 28 52  1  0
 28 53  1  0
 28 54  1  0
M  END
$$$$
