@<TRIPOS>MOLECULE
*****
 67 71 0 0 0
SMALL
GASTEIGER

@<TRIPOS>ATOM
      1 C          -3.1360   -5.2705   -1.6940 C.3     1  UNL1       -0.0025
      2 C          -3.1113   -3.9723   -0.8410 C.1     1  UNL1       -0.1027
      3 C          -3.0866   -3.0151   -0.1889 C.1     1  UNL1       -0.0673
      4 C          -3.0465   -1.8442    0.6100 C.3     1  UNL1        0.1320
      5 O          -3.2162   -2.2456    2.0026 O.3     1  UNL1       -0.3760
      6 C          -4.2885   -0.9913    0.3578 C.3     1  UNL1       -0.0118
      7 C          -3.7901    0.3632    0.9484 C.3     1  UNL1       -0.0455
      8 C          -2.5076    0.4209    0.2386 C.3     1  UNL1       -0.0254
      9 C          -1.4841    1.4076    0.5723 C.3     1  UNL1       -0.0150
     10 C          -1.9266    2.8253    0.7692 C.3     1  UNL1       -0.0422
     11 C          -2.2599    3.5233   -0.4954 C.3     1  UNL1       -0.0268
     12 C          -0.9334    3.6406   -1.2225 C.2     1  UNL1       -0.0409
     13 C          -0.4502    4.7373   -1.6701 C.2     1  UNL1       -0.0158
     14 C           0.8588    4.7154   -2.3661 C.2     1  UNL1        0.1567
     15 O           1.1971    5.6758   -3.0459 O.2     1  UNL1       -0.2927
     16 C           1.7135    3.4788   -2.1886 C.3     1  UNL1        0.0139
     17 C           0.7423    2.3295   -2.4905 C.3     1  UNL1       -0.0204
     18 C          -0.2271    2.3454   -1.3498 C.2     1  UNL1       -0.0436
     19 C          -0.4969    1.2959   -0.5913 C.2     1  UNL1       -0.0553
     20 C           0.0304   -0.0292   -0.8878 C.3     1  UNL1        0.0066
     21 C           1.3260   -0.4031   -0.2772 C.ar    1  UNL1       -0.0401
     22 C           1.8890   -1.6283   -0.3930 C.ar    1  UNL1       -0.0563
     23 C           3.0810   -1.9542    0.1743 C.ar    1  UNL1       -0.0404
     24 C           3.8028   -0.9832    0.9255 C.ar    1  UNL1        0.0292
     25 N           5.0116   -1.3073    1.5331 N.pl3   1  UNL1       -0.3360
     26 C           5.8041   -0.3392    2.2361 C.3     1  UNL1        0.0004
     27 C           5.5030   -2.6732    1.4685 C.3     1  UNL1        0.0004
     28 C           3.2406    0.2814    1.0486 C.ar    1  UNL1       -0.0404
     29 C           2.0161    0.5327    0.4454 C.ar    1  UNL1       -0.0563
     30 C          -0.9552   -1.1642   -0.6464 C.3     1  UNL1       -0.0332
     31 C          -1.8760   -0.9560    0.5097 C.3     1  UNL1        0.0122
     32 C          -1.1469   -1.0068    1.8386 C.3     1  UNL1       -0.0557
     33 H          -3.3810   -6.0888   -0.9429 H       1  UNL1        0.0362
     34 H          -2.1296   -5.3798   -2.0494 H       1  UNL1        0.0362
     35 H          -3.9487   -5.2433   -2.4067 H       1  UNL1        0.0362
     36 H          -3.6890   -3.1433    1.9732 H       1  UNL1        0.2114
     37 H          -5.1833   -1.3448    0.8525 H       1  UNL1        0.0303
     38 H          -4.3486   -0.8612   -0.7394 H       1  UNL1        0.0303
     39 H          -3.7538    0.3298    2.0333 H       1  UNL1        0.0269
     40 H          -4.4999    1.1235    0.5219 H       1  UNL1        0.0269
     41 H          -2.7389    0.4082   -0.8717 H       1  UNL1        0.0313
     42 H          -0.8506    1.1313    1.4367 H       1  UNL1        0.0349
     43 H          -1.0490    3.3752    1.2108 H       1  UNL1        0.0274
     44 H          -2.7627    2.8573    1.4553 H       1  UNL1        0.0274
     45 H          -2.9556    2.8993   -1.1172 H       1  UNL1        0.0313
     46 H          -2.6628    4.5132   -0.2855 H       1  UNL1        0.0313
     47 H          -1.0131    5.6756   -1.5560 H       1  UNL1        0.0655
     48 H           1.9737    3.3589   -1.1384 H       1  UNL1        0.0348
     49 H           2.5259    3.5623   -2.9133 H       1  UNL1        0.0348
     50 H           0.2369    2.5798   -3.4351 H       1  UNL1        0.0317
     51 H           1.2973    1.3961   -2.6218 H       1  UNL1        0.0317
     52 H           0.2184   -0.1180   -2.0017 H       1  UNL1        0.0394
     53 H           1.3894   -2.4062   -0.9551 H       1  UNL1        0.0621
     54 H           3.5529   -2.9166    0.0957 H       1  UNL1        0.0636
     55 H           6.4280   -0.8631    3.0322 H       1  UNL1        0.0428
     56 H           6.5623    0.0749    1.4960 H       1  UNL1        0.0428
     57 H           5.2877    0.4979    2.6853 H       1  UNL1        0.0428
     58 H           6.5263   -2.7601    1.8578 H       1  UNL1        0.0428
     59 H           4.7920   -3.3583    1.9805 H       1  UNL1        0.0428
     60 H           5.5358   -2.9544    0.3831 H       1  UNL1        0.0428
     61 H           3.7588    1.0441    1.6060 H       1  UNL1        0.0636
     62 H           1.6152    1.5695    0.5751 H       1  UNL1        0.0621
     63 H          -0.4577   -2.1272   -0.4769 H       1  UNL1        0.0281
     64 H          -1.5923   -1.3079   -1.5709 H       1  UNL1        0.0281
     65 H          -1.5541   -0.2990    2.5698 H       1  UNL1        0.0236
     66 H          -1.3526   -2.0142    2.2881 H       1  UNL1        0.0236
     67 H          -0.0546   -1.0003    1.6985 H       1  UNL1        0.0236
@<TRIPOS>BOND
     1     1     2    1
     2     2     3    3
     3     4     3    1
     4     4     5    1
     5     4     6    1
     6     6     7    1
     7     7     8    1
     8     8     9    1
     9     9    10    1
    10    10    11    1
    11    11    12    1
    12    12    13    2
    13    13    14    1
    14    14    15    2
    15    14    16    1
    16    16    17    1
    17    17    18    1
    18    18    19    2
    19    19    20    1
    20    20    21    1
    21    21    22   ar
    22    22    23   ar
    23    23    24   ar
    24    24    25    1
    25    25    26    1
    26    25    27    1
    27    24    28   ar
    28    28    29   ar
    29    20    30    1
    30    30    31    1
    31    31    32    1
    32    31     4    1
    33    31     8    1
    34    19     9    1
    35    29    21   ar
    36    18    12    1
    37     1    33    1
    38     1    34    1
    39     1    35    1
    40     5    36    1
    41     6    37    1
    42     6    38    1
    43     7    39    1
    44     7    40    1
    45     8    41    1
    46     9    42    1
    47    10    43    1
    48    10    44    1
    49    11    45    1
    50    11    46    1
    51    13    47    1
    52    16    48    1
    53    16    49    1
    54    17    50    1
    55    17    51    1
    56    20    52    1
    57    22    53    1
    58    23    54    1
    59    26    55    1
    60    26    56    1
    61    26    57    1
    62    27    58    1
    63    27    59    1
    64    27    60    1
    65    28    61    1
    66    29    62    1
    67    30    63    1
    68    30    64    1
    69    32    65    1
    70    32    66    1
    71    32    67    1
