@<TRIPOS>MOLECULE
*****
 47 50 0 0 0
SMALL
GASTEIGER

@<TRIPOS>ATOM
      1 C          -0.1488    1.0650    2.9569 C.3     1  UNL1       -0.0410
      2 C           0.5352    0.2198    1.9300 C.3     1  UNL1        0.0621
      3 N           1.4906    0.9041    1.1119 N.pl3   1  UNL1       -0.3199
      4 C           2.3057    0.2126    0.1547 C.ar    1  UNL1        0.1418
      5 N           2.2000   -1.1166   -0.0109 N.ar    1  UNL1       -0.2195
      6 C           2.9496   -1.7971   -0.9012 C.ar    1  UNL1        0.1202
      7 N           3.8370   -1.1155   -1.6515 N.ar    1  UNL1       -0.2197
      8 C           3.9804    0.2046   -1.5255 C.ar    1  UNL1        0.1388
      9 N           4.9165    0.8987   -2.3226 N.pl3   1  UNL1       -0.3420
     10 C           3.2138    0.8775   -0.6196 C.ar    1  UNL1        0.1307
     11 C           3.3045    2.3141   -0.4151 C.1     1  UNL1        0.1061
     12 N           3.3915    3.4402   -0.2667 N.1     1  UNL1       -0.1906
     13 C          -0.4262   -0.6282    1.1702 C.ar    1  UNL1        0.0730
     14 N          -0.5031   -1.9708    1.4094 N.ar    1  UNL1       -0.2489
     15 C          -1.3481   -2.7835    0.7479 C.ar    1  UNL1        0.0750
     16 C          -1.4217   -4.1286    0.9913 C.ar    1  UNL1       -0.0329
     17 C          -2.2947   -4.9108    0.2947 C.ar    1  UNL1       -0.0244
     18 C          -3.1122   -4.3289   -0.6681 C.ar    1  UNL1        0.1242
     19 F          -3.9653   -5.1378   -1.3383 F       1  UNL1       -0.2055
     20 C          -3.0361   -2.9752   -0.9110 C.ar    1  UNL1       -0.0138
     21 C          -2.1577   -2.1864   -0.2105 C.ar    1  UNL1        0.0451
     22 C          -2.1063   -0.8354   -0.4773 C.ar    1  UNL1        0.1355
     23 O          -2.9108   -0.2285   -1.4328 O.3     1  UNL1       -0.5054
     24 C          -1.2233   -0.0375    0.2263 C.ar    1  UNL1        0.0473
     25 C          -1.1756    1.3844   -0.0469 C.ar    1  UNL1       -0.0126
     26 C          -1.9258    2.3030    0.6493 C.ar    1  UNL1       -0.0539
     27 C          -1.8437    3.6368    0.3256 C.ar    1  UNL1       -0.0612
     28 C          -1.0323    4.1193   -0.6819 C.ar    1  UNL1       -0.0617
     29 C          -0.2843    3.1919   -1.3742 C.ar    1  UNL1       -0.0612
     30 C          -0.3608    1.8431   -1.0544 C.ar    1  UNL1       -0.0539
     31 H           0.0264    2.1654    2.7802 H       1  UNL1        0.0251
     32 H          -1.2109    0.8038    3.0312 H       1  UNL1        0.0251
     33 H           0.2625    0.9126    3.9979 H       1  UNL1        0.0251
     34 H           1.1597   -0.5202    2.5333 H       1  UNL1        0.0560
     35 H           1.6082    1.9346    1.2034 H       1  UNL1        0.1481
     36 H           2.8871   -2.8632   -1.0561 H       1  UNL1        0.1048
     37 H           5.8880    0.5476   -2.3697 H       1  UNL1        0.1437
     38 H           4.6156    1.7395   -2.8411 H       1  UNL1        0.1437
     39 H          -0.7864   -4.5635    1.7356 H       1  UNL1        0.0640
     40 H          -2.3631   -5.9955    0.4818 H       1  UNL1        0.0647
     41 H          -3.6636   -2.5088   -1.6542 H       1  UNL1        0.0654
     42 H          -3.9084   -0.3060   -1.4699 H       1  UNL1        0.2922
     43 H          -2.5844    1.9707    1.4554 H       1  UNL1        0.0624
     44 H          -2.4412    4.3802    0.8784 H       1  UNL1        0.0618
     45 H          -0.9636    5.1686   -0.9410 H       1  UNL1        0.0618
     46 H           0.3698    3.5555   -2.1821 H       1  UNL1        0.0618
     47 H           0.2563    1.1447   -1.6426 H       1  UNL1        0.0624
@<TRIPOS>BOND
     1     1     2    1
     2     2     3    1
     3     3     4    1
     4     4     5   ar
     5     5     6   ar
     6     6     7   ar
     7     7     8   ar
     8     8     9    1
     9     8    10   ar
    10    10    11    1
    11    11    12    3
    12     2    13    1
    13    13    14   ar
    14    14    15   ar
    15    15    16   ar
    16    16    17   ar
    17    17    18   ar
    18    18    19    1
    19    18    20   ar
    20    20    21   ar
    21    21    22   ar
    22    22    23    1
    23    22    24   ar
    24    24    25    1
    25    25    26   ar
    26    26    27   ar
    27    27    28   ar
    28    28    29   ar
    29    29    30   ar
    30    10     4   ar
    31    24    13   ar
    32    30    25   ar
    33    21    15   ar
    34     1    31    1
    35     1    32    1
    36     1    33    1
    37     2    34    1
    38     3    35    1
    39     6    36    1
    40     9    37    1
    41     9    38    1
    42    16    39    1
    43    17    40    1
    44    20    41    1
    45    23    42    1
    46    26    43    1
    47    27    44    1
    48    28    45    1
    49    29    46    1
    50    30    47    1
