
     RDKit          3D

 47 50  0  0  0  0  0  0  0  0999 V2000
   -0.1488    1.0650    2.9569 C   0  0  0  0  0  0  0  0  0  0  0  0
    0.5352    0.2198    1.9300 C   0  0  0  0  0  0  0  0  0  0  0  0
    1.4906    0.9041    1.1119 N   0  0  0  0  0  0  0  0  0  0  0  0
    2.3057    0.2126    0.1547 C   0  0  0  0  0  0  0  0  0  0  0  0
    2.2000   -1.1166   -0.0109 N   0  0  0  0  0  0  0  0  0  0  0  0
    2.9496   -1.7971   -0.9012 C   0  0  0  0  0  0  0  0  0  0  0  0
    3.8370   -1.1155   -1.6515 N   0  0  0  0  0  0  0  0  0  0  0  0
    3.9804    0.2046   -1.5255 C   0  0  0  0  0  0  0  0  0  0  0  0
    4.9165    0.8987   -2.3226 N   0  0  0  0  0  0  0  0  0  0  0  0
    3.2138    0.8775   -0.6196 C   0  0  0  0  0  0  0  0  0  0  0  0
    3.3045    2.3141   -0.4151 C   0  0  0  0  0  0  0  0  0  0  0  0
    3.3915    3.4402   -0.2667 N   0  0  0  0  0  0  0  0  0  0  0  0
   -0.4262   -0.6282    1.1702 C   0  0  0  0  0  0  0  0  0  0  0  0
   -0.5031   -1.9708    1.4094 N   0  0  0  0  0  0  0  0  0  0  0  0
   -1.3481   -2.7835    0.7479 C   0  0  0  0  0  0  0  0  0  0  0  0
   -1.4217   -4.1286    0.9913 C   0  0  0  0  0  0  0  0  0  0  0  0
   -2.2947   -4.9108    0.2947 C   0  0  0  0  0  0  0  0  0  0  0  0
   -3.1122   -4.3289   -0.6681 C   0  0  0  0  0  0  0  0  0  0  0  0
   -3.9653   -5.1378   -1.3383 F   0  0  0  0  0  0  0  0  0  0  0  0
   -3.0361   -2.9752   -0.9110 C   0  0  0  0  0  0  0  0  0  0  0  0
   -2.1577   -2.1864   -0.2105 C   0  0  0  0  0  0  0  0  0  0  0  0
   -2.1063   -0.8354   -0.4773 C   0  0  0  0  0  0  0  0  0  0  0  0
   -2.9108   -0.2285   -1.4328 O   0  0  0  0  0  0  0  0  0  0  0  0
   -1.2233   -0.0375    0.2263 C   0  0  0  0  0  0  0  0  0  0  0  0
   -1.1756    1.3844   -0.0469 C   0  0  0  0  0  0  0  0  0  0  0  0
   -1.9258    2.3030    0.6493 C   0  0  0  0  0  0  0  0  0  0  0  0
   -1.8437    3.6368    0.3256 C   0  0  0  0  0  0  0  0  0  0  0  0
   -1.0323    4.1193   -0.6819 C   0  0  0  0  0  0  0  0  0  0  0  0
   -0.2843    3.1919   -1.3742 C   0  0  0  0  0  0  0  0  0  0  0  0
   -0.3608    1.8431   -1.0544 C   0  0  0  0  0  0  0  0  0  0  0  0
    0.0264    2.1654    2.7802 H   0  0  0  0  0  0  0  0  0  0  0  0
   -1.2109    0.8038    3.0312 H   0  0  0  0  0  0  0  0  0  0  0  0
    0.2625    0.9126    3.9979 H   0  0  0  0  0  0  0  0  0  0  0  0
    1.1597   -0.5202    2.5333 H   0  0  0  0  0  0  0  0  0  0  0  0
    1.6082    1.9346    1.2034 H   0  0  0  0  0  0  0  0  0  0  0  0
    2.8871   -2.8632   -1.0561 H   0  0  0  0  0  0  0  0  0  0  0  0
    5.8880    0.5476   -2.3697 H   0  0  0  0  0  0  0  0  0  0  0  0
    4.6156    1.7395   -2.8411 H   0  0  0  0  0  0  0  0  0  0  0  0
   -0.7864   -4.5635    1.7356 H   0  0  0  0  0  0  0  0  0  0  0  0
   -2.3631   -5.9955    0.4818 H   0  0  0  0  0  0  0  0  0  0  0  0
   -3.6636   -2.5088   -1.6542 H   0  0  0  0  0  0  0  0  0  0  0  0
   -3.9084   -0.3060   -1.4699 H   0  0  0  0  0  0  0  0  0  0  0  0
   -2.5844    1.9707    1.4554 H   0  0  0  0  0  0  0  0  0  0  0  0
   -2.4412    4.3802    0.8784 H   0  0  0  0  0  0  0  0  0  0  0  0
   -0.9636    5.1686   -0.9410 H   0  0  0  0  0  0  0  0  0  0  0  0
    0.3698    3.5555   -2.1821 H   0  0  0  0  0  0  0  0  0  0  0  0
    0.2563    1.1447   -1.6426 H   0  0  0  0  0  0  0  0  0  0  0  0
  1  2  1  0
  2  3  1  0
  3  4  1  0
  4  5  2  0
  5  6  1  0
  6  7  2  0
  7  8  1  0
  8  9  1  0
  8 10  2  0
 10 11  1  0
 11 12  3  0
  2 13  1  0
 13 14  2  0
 14 15  1  0
 15 16  2  0
 16 17  1  0
 17 18  2  0
 18 19  1  0
 18 20  1  0
 20 21  2  0
 21 22  1  0
 22 23  1  0
 22 24  2  0
 24 25  1  0
 25 26  2  0
 26 27  1  0
 27 28  2  0
 28 29  1  0
 29 30  2  0
 10  4  1  0
 24 13  1  0
 30 25  1  0
 21 15  1  0
  1 31  1  0
  1 32  1  0
  1 33  1  0
  2 34  1  0
  3 35  1  0
  6 36  1  0
  9 37  1  0
  9 38  1  0
 16 39  1  0
 17 40  1  0
 20 41  1  0
 23 42  1  0
 26 43  1  0
 27 44  1  0
 28 45  1  0
 29 46  1  0
 30 47  1  0
M  END
$$$$
