
     RDKit          3D

 36 39  0  0  0  0  0  0  0  0999 V2000
    1.6846   -3.7847   -1.5725 O   0  0  0  0  0  0  0  0  0  0  0  0
    1.2544   -2.7753   -0.9523 C   0  0  0  0  0  0  0  0  0  0  0  0
   -0.0493   -2.6170   -0.6323 N   0  0  0  0  0  0  0  0  0  0  0  0
   -0.4930   -1.5340    0.0298 C   0  0  0  0  0  0  0  0  0  0  0  0
   -1.8817   -1.3027    0.4043 C   0  0  0  0  0  0  0  0  0  0  0  0
   -2.6843   -0.6059   -0.5423 N   0  0  0  0  0  0  0  0  0  0  0  0
   -4.0255   -0.4841    0.0294 C   0  0  0  0  0  0  0  0  0  0  0  0
   -4.0338    0.9221    0.6342 C   0  0  0  0  0  0  0  0  0  0  0  0
   -3.2680    1.6933   -0.3899 C   0  0  1  0  0  0  0  0  0  0  0  0
   -2.6012    2.7895    0.1948 O   0  0  0  0  0  0  0  0  0  0  0  0
   -2.2886    0.6798   -0.9277 C   0  0  0  0  0  0  0  0  0  0  0  0
    0.4301   -0.6293    0.3498 N   0  0  0  0  0  0  0  0  0  0  0  0
    1.7217   -0.7106    0.0734 C   0  0  0  0  0  0  0  0  0  0  0  0
    2.1869   -1.8145   -0.6039 C   0  0  0  0  0  0  0  0  0  0  0  0
    3.4905   -1.6978   -0.7760 O   0  0  0  0  0  0  0  0  0  0  0  0
    3.9499   -0.5831   -0.2596 C   0  0  0  0  0  0  0  0  0  0  0  0
    5.2060   -0.0027   -0.1739 C   0  0  0  0  0  0  0  0  0  0  0  0
    5.3415    1.2132    0.4553 C   0  0  0  0  0  0  0  0  0  0  0  0
    4.2423    1.8536    0.9976 C   0  0  0  0  0  0  0  0  0  0  0  0
    4.4277    3.5374    1.8694 Br  0  0  0  0  0  0  0  0  0  0  0  0
    2.9839    1.2873    0.9200 C   0  0  0  0  0  0  0  0  0  0  0  0
    2.8407    0.0681    0.2904 C   0  0  0  0  0  0  0  0  0  0  0  0
   -0.7102   -3.3677   -0.9168 H   0  0  0  0  0  0  0  0  0  0  0  0
   -2.3818   -2.2829    0.6055 H   0  0  0  0  0  0  0  0  0  0  0  0
   -1.9524   -0.7502    1.3872 H   0  0  0  0  0  0  0  0  0  0  0  0
   -4.1767   -1.1810    0.8614 H   0  0  0  0  0  0  0  0  0  0  0  0
   -4.8146   -0.6005   -0.7257 H   0  0  0  0  0  0  0  0  0  0  0  0
   -3.5628    0.8943    1.6242 H   0  0  0  0  0  0  0  0  0  0  0  0
   -5.0577    1.3322    0.6929 H   0  0  0  0  0  0  0  0  0  0  0  0
   -3.9318    2.1061   -1.1699 H   0  0  0  0  0  0  0  0  0  0  0  0
   -2.6854    3.5971   -0.3639 H   0  0  0  0  0  0  0  0  0  0  0  0
   -2.3400    0.7644   -2.0527 H   0  0  0  0  0  0  0  0  0  0  0  0
   -1.2850    1.0103   -0.6503 H   0  0  0  0  0  0  0  0  0  0  0  0
    6.0544   -0.5043   -0.5964 H   0  0  0  0  0  0  0  0  0  0  0  0
    6.3109    1.7212    0.5537 H   0  0  0  0  0  0  0  0  0  0  0  0
    2.0983    1.7584    1.3328 H   0  0  0  0  0  0  0  0  0  0  0  0
  1  2  2  0
  2  3  1  0
  3  4  1  0
  4  5  1  0
  5  6  1  0
  6  7  1  0
  7  8  1  0
  8  9  1  0
  9 10  1  0
  9 11  1  0
  4 12  2  0
 12 13  1  0
 13 14  2  0
 14 15  1  0
 15 16  1  0
 16 17  2  0
 17 18  1  0
 18 19  2  0
 19 20  1  0
 19 21  1  0
 21 22  2  0
 14  2  1  0
 22 16  1  0
 11  6  1  0
 22 13  1  0
  3 23  1  0
  5 24  1  0
  5 25  1  0
  7 26  1  0
  7 27  1  0
  8 28  1  0
  8 29  1  0
  9 30  1  6
 10 31  1  0
 11 32  1  0
 11 33  1  0
 17 34  1  0
 18 35  1  0
 21 36  1  0
M  END
$$$$
