@<TRIPOS>MOLECULE
*****
 36 39 0 0 0
SMALL
GASTEIGER

@<TRIPOS>ATOM
      1 O           1.6846   -3.7847   -1.5725 O.2     1  UNL1       -0.2638
      2 C           1.2544   -2.7753   -0.9523 C.ar    1  UNL1        0.2947
      3 N          -0.0493   -2.6170   -0.6323 N.ar    1  UNL1       -0.3068
      4 C          -0.4930   -1.5340    0.0298 C.ar    1  UNL1        0.1247
      5 C          -1.8817   -1.3027    0.4043 C.3     1  UNL1        0.0571
      6 N          -2.6843   -0.6059   -0.5423 N.3     1  UNL1       -0.2927
      7 C          -4.0255   -0.4841    0.0294 C.3     1  UNL1        0.0018
      8 C          -4.0338    0.9221    0.6342 C.3     1  UNL1       -0.0128
      9 C          -3.2680    1.6933   -0.3899 C.3     1  UNL1        0.0691
     10 O          -2.6012    2.7895    0.1948 O.3     1  UNL1       -0.3905
     11 C          -2.2886    0.6798   -0.9277 C.3     1  UNL1        0.0254
     12 N           0.4301   -0.6293    0.3498 N.ar    1  UNL1       -0.2286
     13 C           1.7217   -0.7106    0.0734 C.ar    1  UNL1        0.1241
     14 C           2.1869   -1.8145   -0.6039 C.ar    1  UNL1        0.2183
     15 O           3.4905   -1.6978   -0.7760 O.2     1  UNL1       -0.4477
     16 C           3.9499   -0.5831   -0.2596 C.ar    1  UNL1        0.1381
     17 C           5.2060   -0.0027   -0.1739 C.ar    1  UNL1       -0.0176
     18 C           5.3415    1.2132    0.4553 C.ar    1  UNL1       -0.0442
     19 C           4.2423    1.8536    0.9976 C.ar    1  UNL1        0.0187
     20 BR          4.4277    3.5374    1.8694 Br      1  UNL1       -0.0503
     21 C           2.9839    1.2873    0.9200 C.ar    1  UNL1       -0.0349
     22 C           2.8407    0.0681    0.2904 C.ar    1  UNL1        0.0475
     23 H          -0.7102   -3.3677   -0.9168 H       1  UNL1        0.1702
     24 H          -2.3818   -2.2829    0.6055 H       1  UNL1        0.0506
     25 H          -1.9524   -0.7502    1.3872 H       1  UNL1        0.0506
     26 H          -4.1767   -1.1810    0.8614 H       1  UNL1        0.0427
     27 H          -4.8146   -0.6005   -0.7257 H       1  UNL1        0.0427
     28 H          -3.5628    0.8943    1.6242 H       1  UNL1        0.0303
     29 H          -5.0577    1.3322    0.6929 H       1  UNL1        0.0303
     30 H          -3.9318    2.1061   -1.1699 H       1  UNL1        0.0606
     31 H          -2.6854    3.5971   -0.3639 H       1  UNL1        0.2098
     32 H          -2.3400    0.7644   -2.0527 H       1  UNL1        0.0452
     33 H          -1.2850    1.0103   -0.6503 H       1  UNL1        0.0452
     34 H           6.0544   -0.5043   -0.5964 H       1  UNL1        0.0655
     35 H           6.3109    1.7212    0.5537 H       1  UNL1        0.0630
     36 H           2.0983    1.7584    1.3328 H       1  UNL1        0.0636
@<TRIPOS>BOND
     1     1     2    2
     2     2     3   ar
     3     3     4   ar
     4     4     5    1
     5     5     6    1
     6     6     7    1
     7     7     8    1
     8     8     9    1
     9     9    10    1
    10     9    11    1
    11     4    12   ar
    12    12    13   ar
    13    13    14   ar
    14    14    15   ar
    15    15    16   ar
    16    16    17   ar
    17    17    18   ar
    18    18    19   ar
    19    19    20    1
    20    19    21   ar
    21    21    22   ar
    22    14     2   ar
    23    22    16   ar
    24    11     6    1
    25    22    13   ar
    26     3    23    1
    27     5    24    1
    28     5    25    1
    29     7    26    1
    30     7    27    1
    31     8    28    1
    32     8    29    1
    33     9    30    1
    34    10    31    1
    35    11    32    1
    36    11    33    1
    37    17    34    1
    38    18    35    1
    39    21    36    1
