@<TRIPOS>MOLECULE
*****
 44 47 0 0 0
SMALL
GASTEIGER

@<TRIPOS>ATOM
      1 O          -1.5121   -1.1615    1.5591 O.3     1  UNL1       -0.3832
      2 C          -1.8690   -0.5982    0.3434 C.3     1  UNL1        0.1031
      3 C          -3.2300   -0.0196    0.5151 C.ar    1  UNL1       -0.0125
      4 C          -3.6937    0.3809    1.7578 C.ar    1  UNL1       -0.0529
      5 C          -4.9295    0.9409    1.9738 C.ar    1  UNL1       -0.0232
      6 C          -5.7420    1.1014    0.8532 C.ar    1  UNL1        0.1584
      7 F          -6.9734    1.6461    1.0034 F       1  UNL1       -0.2025
      8 C          -5.2860    0.7033   -0.3911 C.ar    1  UNL1        0.1587
      9 F          -6.0685    0.8573   -1.5042 F       1  UNL1       -0.2025
     10 C          -4.0401    0.1438   -0.5835 C.ar    1  UNL1       -0.0177
     11 C          -1.7881   -1.6162   -0.7279 C.3     1  UNL1       -0.0065
     12 C          -1.3754   -1.2323   -2.0738 C.3     1  UNL1       -0.0011
     13 N          -0.9038    0.0686   -2.3234 N.3     1  UNL1       -0.3151
     14 C          -1.0373    1.0571   -1.3317 C.3     1  UNL1        0.0087
     15 C          -0.8411    0.4890    0.0814 C.3     1  UNL1        0.0663
     16 C           0.4959   -0.1511    0.0705 C.ar    1  UNL1        0.1591
     17 O           0.8359   -1.3801   -0.1402 O.2     1  UNL1       -0.3575
     18 N           2.1409   -1.5606   -0.0623 N.ar    1  UNL1       -0.0768
     19 C           2.7427   -0.3859    0.2201 C.ar    1  UNL1        0.1290
     20 C           4.1633   -0.1183    0.3988 C.ar    1  UNL1        0.0245
     21 C           4.6400    0.4971    1.5332 C.ar    1  UNL1       -0.0509
     22 C           5.9865    0.7262    1.6595 C.ar    1  UNL1       -0.0597
     23 C           6.9249    0.3768    0.7089 C.ar    1  UNL1       -0.0419
     24 C           6.4367   -0.2485   -0.4419 C.ar    1  UNL1        0.0599
     25 CL          7.6129   -0.7024   -1.6668 Cl      1  UNL1       -0.0820
     26 C           5.0942   -0.4758   -0.5661 C.ar    1  UNL1        0.0685
     27 CL          4.5774   -1.2706   -2.0590 Cl      1  UNL1       -0.0814
     28 C           1.7022    0.5258    0.3065 C.ar    1  UNL1        0.0880
     29 BR          1.8618    2.3651    0.6781 Br      1  UNL1       -0.0444
     30 H          -2.1883   -1.8084    1.8174 H       1  UNL1        0.2106
     31 H          -3.0752    0.2633    2.6651 H       1  UNL1        0.0622
     32 H          -5.3141    1.2586    2.9287 H       1  UNL1        0.0647
     33 H          -3.7188   -0.1470   -1.5833 H       1  UNL1        0.0651
     34 H          -2.8305   -2.0647   -0.7935 H       1  UNL1        0.0309
     35 H          -1.1966   -2.5065   -0.3401 H       1  UNL1        0.0309
     36 H          -0.5562   -1.9412   -2.4132 H       1  UNL1        0.0425
     37 H          -2.1724   -1.4556   -2.8470 H       1  UNL1        0.0425
     38 H          -0.0893    0.1117   -2.9401 H       1  UNL1        0.1220
     39 H          -0.2125    1.7920   -1.4543 H       1  UNL1        0.0432
     40 H          -1.9753    1.6551   -1.3629 H       1  UNL1        0.0432
     41 H          -0.8994    1.2978    0.8124 H       1  UNL1        0.0425
     42 H           3.9734    0.8041    2.3322 H       1  UNL1        0.0625
     43 H           6.3510    1.2144    2.5636 H       1  UNL1        0.0618
     44 H           7.9789    0.5681    0.8350 H       1  UNL1        0.0633
@<TRIPOS>BOND
     1     2     1    1
     2     2     3    1
     3     3     4   ar
     4     4     5   ar
     5     5     6   ar
     6     6     7    1
     7     6     8   ar
     8     8     9    1
     9     8    10   ar
    10     2    11    1
    11    11    12    1
    12    12    13    1
    13    13    14    1
    14    14    15    1
    15    15    16    1
    16    16    17   ar
    17    17    18   ar
    18    18    19   ar
    19    19    20    1
    20    20    21   ar
    21    21    22   ar
    22    22    23   ar
    23    23    24   ar
    24    24    25    1
    25    24    26   ar
    26    26    27    1
    27    19    28   ar
    28    28    29    1
    29    15     2    1
    30    28    16   ar
    31    10     3   ar
    32    26    20   ar
    33     1    30    1
    34     4    31    1
    35     5    32    1
    36    10    33    1
    37    11    34    1
    38    11    35    1
    39    12    36    1
    40    12    37    1
    41    13    38    1
    42    14    39    1
    43    14    40    1
    44    15    41    1
    45    21    42    1
    46    22    43    1
    47    23    44    1
