@<TRIPOS>MOLECULE
*****
 40 43 0 0 0
SMALL
GASTEIGER

@<TRIPOS>ATOM
      1 C           7.0872    0.5190   -0.4315 C.3     1  UNL1        0.0004
      2 N           5.6459    0.3674   -0.5222 N.am    1  UNL1       -0.3144
      3 C           4.8826    0.2854    0.6565 C.2     1  UNL1        0.2439
      4 O           5.4881    0.3478    1.7783 O.2     1  UNL1       -0.2702
      5 C           3.4390    0.1335    0.5935 C.ar    1  UNL1        0.0373
      6 C           2.7301    0.0583    1.7978 C.ar    1  UNL1       -0.0490
      7 C           1.3667   -0.0855    1.8475 C.ar    1  UNL1       -0.0533
      8 C           0.6692   -0.1587    0.6682 C.ar    1  UNL1       -0.0175
      9 C          -0.7169   -0.3049    0.6353 C.ar    1  UNL1       -0.0477
     10 C          -1.4278   -0.3796   -0.5240 C.ar    1  UNL1       -0.0096
     11 C          -2.8918   -0.5346   -0.5957 C.3     1  UNL1        0.1337
     12 O          -3.3196   -0.8140   -1.8707 O.3     1  UNL1       -0.3777
     13 C          -3.3899   -1.6632    0.3060 C.3     1  UNL1        0.0039
     14 C          -4.8767   -1.2849    0.3770 C.3     1  UNL1        0.0278
     15 N          -4.7777    0.1542    0.5055 N.ar    1  UNL1       -0.3312
     16 C          -5.4309    1.2215    0.9917 C.ar    1  UNL1        0.0962
     17 N          -4.7213    2.3212    0.7488 N.ar    1  UNL1       -0.2437
     18 C          -3.6035    1.9640    0.1024 C.ar    1  UNL1        0.0518
     19 C          -3.6405    0.6121   -0.0484 C.ar    1  UNL1        0.0745
     20 C          -0.7321   -0.3058   -1.7239 C.ar    1  UNL1       -0.0549
     21 C           0.6354   -0.1615   -1.7546 C.ar    1  UNL1       -0.0537
     22 C           1.3146   -0.0902   -0.5457 C.ar    1  UNL1       -0.0171
     23 C           2.7074    0.0567   -0.5507 C.ar    1  UNL1       -0.0419
     24 H           7.4748   -0.2232    0.2732 H       1  UNL1        0.0426
     25 H           7.5734    0.4725   -1.4229 H       1  UNL1        0.0426
     26 H           7.3076    1.5234   -0.0116 H       1  UNL1        0.0426
     27 H           5.2130    0.3230   -1.4501 H       1  UNL1        0.1487
     28 H           3.3009    0.1184    2.7209 H       1  UNL1        0.0625
     29 H           0.8118   -0.1440    2.7814 H       1  UNL1        0.0624
     30 H          -1.2583   -0.3622    1.5703 H       1  UNL1        0.0627
     31 H          -3.8233   -0.0449   -2.2339 H       1  UNL1        0.2111
     32 H          -3.0127   -1.5370    1.3433 H       1  UNL1        0.0317
     33 H          -3.2334   -2.6528   -0.1204 H       1  UNL1        0.0317
     34 H          -5.3164   -1.4970   -0.6269 H       1  UNL1        0.0493
     35 H          -5.3945   -1.7732    1.1983 H       1  UNL1        0.0493
     36 H          -6.3915    1.1871    1.5041 H       1  UNL1        0.1029
     37 H          -2.8573    2.7027   -0.2060 H       1  UNL1        0.0849
     38 H          -1.2453   -0.3599   -2.6902 H       1  UNL1        0.0621
     39 H           1.2039   -0.1008   -2.6727 H       1  UNL1        0.0624
     40 H           3.2099    0.1098   -1.5034 H       1  UNL1        0.0631
@<TRIPOS>BOND
     1     1     2    1
     2     2     3   am
     3     3     4    2
     4     3     5    1
     5     5     6   ar
     6     6     7   ar
     7     7     8   ar
     8     8     9   ar
     9     9    10   ar
    10    10    11    1
    11    11    12    1
    12    11    13    1
    13    13    14    1
    14    14    15    1
    15    15    16   ar
    16    16    17   ar
    17    17    18   ar
    18    18    19   ar
    19    10    20   ar
    20    20    21   ar
    21    21    22   ar
    22    22    23   ar
    23    23     5   ar
    24    22     8   ar
    25    19    11    1
    26    19    15   ar
    27     1    24    1
    28     1    25    1
    29     1    26    1
    30     2    27    1
    31     6    28    1
    32     7    29    1
    33     9    30    1
    34    12    31    1
    35    13    32    1
    36    13    33    1
    37    14    34    1
    38    14    35    1
    39    16    36    1
    40    18    37    1
    41    20    38    1
    42    21    39    1
    43    23    40    1
