@<TRIPOS>MOLECULE
*****
 37 39 0 0 0
SMALL
GASTEIGER

@<TRIPOS>ATOM
      1 C          -1.4209   -0.7131    0.6064 C.3     1  UNL1        0.0432
      2 C          -1.7247   -2.1279    1.0503 C.3     1  UNL1       -0.0425
      3 N          -0.4016   -0.6578   -0.3924 N.pl3   1  UNL1       -0.3327
      4 C           0.2081    0.4180   -1.0907 C.2     1  UNL1        0.1042
      5 C           1.3363    0.9596   -0.4636 C.2     1  UNL1        0.1076
      6 N           2.3024    1.0350    0.5885 N.pl3   1  UNL1       -0.3098
      7 C           3.5044    0.2767    0.5173 C.ar    1  UNL1        0.0343
      8 C           3.7024   -0.5238   -0.5886 C.ar    1  UNL1       -0.0224
      9 C           4.9098   -1.2302   -0.5705 C.ar    1  UNL1        0.0293
     10 N           5.8072   -1.1404    0.4387 N.ar    1  UNL1       -0.2631
     11 C           5.5984   -0.3490    1.5195 C.ar    1  UNL1        0.0293
     12 C           4.4179    0.3636    1.5373 C.ar    1  UNL1       -0.0224
     13 C           1.4880    1.8673   -1.4866 C.2     1  UNL1        0.2500
     14 O           2.0340    2.8207   -2.0997 O.2     1  UNL1       -0.2817
     15 C           0.3856    1.3358   -2.0969 C.2     1  UNL1        0.2497
     16 O          -0.4945    1.2370   -3.0162 O.2     1  UNL1       -0.2817
     17 C          -2.6957   -0.0955    0.1780 C.ar    1  UNL1       -0.0276
     18 C          -2.8545    1.1434   -0.3991 C.ar    1  UNL1       -0.0568
     19 C          -4.0576    1.6863   -0.7927 C.ar    1  UNL1       -0.0614
     20 C          -5.2148    0.9604   -0.6094 C.ar    1  UNL1       -0.0617
     21 C          -5.1540   -0.2931   -0.0375 C.ar    1  UNL1       -0.0614
     22 C          -3.9141   -0.7708    0.3311 C.ar    1  UNL1       -0.0568
     23 H          -1.0983   -0.1614    1.5296 H       1  UNL1        0.0545
     24 H          -2.3017   -2.0686    1.9956 H       1  UNL1        0.0251
     25 H          -0.7659   -2.6381    1.3488 H       1  UNL1        0.0251
     26 H          -2.1896   -2.7332    0.2702 H       1  UNL1        0.0251
     27 H          -0.0141   -1.6099   -0.6823 H       1  UNL1        0.1468
     28 H           2.1063    1.6608    1.4132 H       1  UNL1        0.1523
     29 H           3.0383   -0.6366   -1.4104 H       1  UNL1        0.0651
     30 H           5.2159   -1.9056   -1.3698 H       1  UNL1        0.0830
     31 H           6.2600   -0.2287    2.3512 H       1  UNL1        0.0830
     32 H           4.1784    1.0218    2.3727 H       1  UNL1        0.0651
     33 H          -1.9822    1.7397   -0.5525 H       1  UNL1        0.0621
     34 H          -4.0989    2.6614   -1.2368 H       1  UNL1        0.0618
     35 H          -6.1565    1.3619   -0.9070 H       1  UNL1        0.0618
     36 H          -6.0403   -0.8906    0.1216 H       1  UNL1        0.0618
     37 H          -3.9133   -1.7751    0.7834 H       1  UNL1        0.0621
@<TRIPOS>BOND
     1     1     2    1
     2     1     3    1
     3     3     4    1
     4     4     5    2
     5     5     6    1
     6     6     7    1
     7     7     8   ar
     8     8     9   ar
     9     9    10   ar
    10    10    11   ar
    11    11    12   ar
    12     5    13    1
    13    13    14    2
    14    13    15    1
    15    15    16    2
    16     1    17    1
    17    17    18   ar
    18    18    19   ar
    19    19    20   ar
    20    20    21   ar
    21    21    22   ar
    22    15     4    1
    23    22    17   ar
    24    12     7   ar
    25     1    23    1
    26     2    24    1
    27     2    25    1
    28     2    26    1
    29     3    27    1
    30     6    28    1
    31     8    29    1
    32     9    30    1
    33    11    31    1
    34    12    32    1
    35    18    33    1
    36    19    34    1
    37    20    35    1
    38    21    36    1
    39    22    37    1
