@<TRIPOS>MOLECULE
*****
 51 54 0 0 0
SMALL
GASTEIGER

@<TRIPOS>ATOM
      1 C           7.7347    1.0078    1.8402 C.3     1  UNL1       -0.0063
      2 C           6.3276    0.6750    1.4207 C.ar    1  UNL1        0.1074
      3 N           5.2293    0.6995    2.1978 N.ar    1  UNL1       -0.2325
      4 C           4.1311    0.3460    1.5073 C.ar    1  UNL1        0.0910
      5 C           2.7855    0.2071    1.8139 C.ar    1  UNL1       -0.0128
      6 C           1.8891   -0.1870    0.8491 C.ar    1  UNL1        0.0369
      7 N           0.5079   -0.3402    1.1470 N.pl3   1  UNL1       -0.2880
      8 C          -0.0477   -0.0849    2.4514 C.3     1  UNL1        0.0071
      9 C          -0.3633   -0.7725    0.1091 C.ar    1  UNL1        0.1303
     10 C          -0.4720   -2.1552   -0.0897 C.ar    1  UNL1       -0.0031
     11 C          -1.2973   -2.6096   -1.0862 C.ar    1  UNL1        0.0345
     12 N          -1.9758   -1.7174   -1.8410 N.ar    1  UNL1       -0.2225
     13 C          -1.8549   -0.3968   -1.6309 C.ar    1  UNL1        0.2212
     14 N          -2.5475    0.5721   -2.4072 N.pl3   1  UNL1       -0.2835
     15 C          -3.8777    0.8849   -2.0785 C.ar    1  UNL1        0.0354
     16 C          -4.5971    1.8588   -2.7424 C.ar    1  UNL1       -0.0404
     17 C          -5.8923    2.1072   -2.3803 C.ar    1  UNL1       -0.0582
     18 C          -6.5105    1.3987   -1.3518 C.ar    1  UNL1       -0.0352
     19 C          -5.8031    0.4229   -0.6808 C.ar    1  UNL1        0.1068
     20 S          -6.4950   -0.5200    0.6187 S.O2    1  UNL1        0.0560
     21 N          -6.2540    0.1901    2.1557 N.3     1  UNL1       -0.2035
     22 O          -7.9377   -0.8259    0.3346 O.2     1  UNL1       -0.1533
     23 O          -5.7855   -1.8671    0.6130 O.2     1  UNL1       -0.1533
     24 C          -4.5111    0.2070   -1.0746 C.ar    1  UNL1       -0.0141
     25 N          -1.0502    0.0596   -0.6584 N.ar    1  UNL1       -0.1990
     26 C           2.3454   -0.4433   -0.4310 C.ar    1  UNL1       -0.0382
     27 C           3.6780   -0.3114   -0.7565 C.ar    1  UNL1       -0.0343
     28 C           4.5749    0.0846    0.2170 C.ar    1  UNL1        0.0687
     29 N           5.9084    0.2939    0.2021 N.ar    1  UNL1       -0.3308
     30 C           6.7321    0.1176   -0.9922 C.3     1  UNL1        0.0135
     31 H           7.7717    1.8480    2.5426 H       1  UNL1        0.0307
     32 H           8.2403    0.0971    2.2488 H       1  UNL1        0.0307
     33 H           8.2938    1.3301    0.9407 H       1  UNL1        0.0307
     34 H           2.4184    0.4035    2.8058 H       1  UNL1        0.0658
     35 H           0.3105    0.8659    2.9014 H       1  UNL1        0.0432
     36 H           0.2362   -0.9626    3.1031 H       1  UNL1        0.0432
     37 H          -1.1490   -0.1002    2.3894 H       1  UNL1        0.0432
     38 H           0.0808   -2.8363    0.5288 H       1  UNL1        0.0667
     39 H          -1.4354   -3.6712   -1.3033 H       1  UNL1        0.0832
     40 H          -2.0850    1.0629   -3.2249 H       1  UNL1        0.1550
     41 H          -4.1140    2.4146   -3.5481 H       1  UNL1        0.0636
     42 H          -6.4432    2.8706   -2.9071 H       1  UNL1        0.0619
     43 H          -7.5328    1.6121   -1.0846 H       1  UNL1        0.0637
     44 H          -5.3478   -0.1302    2.5384 H       1  UNL1        0.1442
     45 H          -6.2954    1.2154    2.1819 H       1  UNL1        0.1442
     46 H          -3.9584   -0.5757   -0.5279 H       1  UNL1        0.0656
     47 H           1.6668   -0.7540   -1.2110 H       1  UNL1        0.0637
     48 H           3.9739   -0.5257   -1.7723 H       1  UNL1        0.0639
     49 H           6.6538   -0.9610   -1.2860 H       1  UNL1        0.0456
     50 H           6.3687    0.7829   -1.8063 H       1  UNL1        0.0456
     51 H           7.7747    0.3922   -0.7855 H       1  UNL1        0.0456
@<TRIPOS>BOND
     1     1     2    1
     2     2     3   ar
     3     3     4   ar
     4     4     5   ar
     5     5     6   ar
     6     6     7    1
     7     7     8    1
     8     7     9    1
     9     9    10   ar
    10    10    11   ar
    11    11    12   ar
    12    12    13   ar
    13    13    14    1
    14    14    15    1
    15    15    16   ar
    16    16    17   ar
    17    17    18   ar
    18    18    19   ar
    19    19    20    1
    20    20    21    1
    21    20    22    2
    22    20    23    2
    23    19    24   ar
    24    13    25   ar
    25     6    26   ar
    26    26    27   ar
    27    27    28   ar
    28    28    29   ar
    29    29    30    1
    30    29     2   ar
    31    28     4   ar
    32    25     9   ar
    33    24    15   ar
    34     1    31    1
    35     1    32    1
    36     1    33    1
    37     5    34    1
    38     8    35    1
    39     8    36    1
    40     8    37    1
    41    10    38    1
    42    11    39    1
    43    14    40    1
    44    16    41    1
    45    17    42    1
    46    18    43    1
    47    21    44    1
    48    21    45    1
    49    24    46    1
    50    26    47    1
    51    27    48    1
    52    30    49    1
    53    30    50    1
    54    30    51    1
