
     RDKit          3D

 51 54  0  0  0  0  0  0  0  0999 V2000
    7.7347    1.0078    1.8402 C   0  0  0  0  0  0  0  0  0  0  0  0
    6.3276    0.6750    1.4207 C   0  0  0  0  0  0  0  0  0  0  0  0
    5.2293    0.6995    2.1978 N   0  0  0  0  0  0  0  0  0  0  0  0
    4.1311    0.3460    1.5073 C   0  0  0  0  0  0  0  0  0  0  0  0
    2.7855    0.2071    1.8139 C   0  0  0  0  0  0  0  0  0  0  0  0
    1.8891   -0.1870    0.8491 C   0  0  0  0  0  0  0  0  0  0  0  0
    0.5079   -0.3402    1.1470 N   0  0  0  0  0  0  0  0  0  0  0  0
   -0.0477   -0.0849    2.4514 C   0  0  0  0  0  0  0  0  0  0  0  0
   -0.3633   -0.7725    0.1091 C   0  0  0  0  0  0  0  0  0  0  0  0
   -0.4720   -2.1552   -0.0897 C   0  0  0  0  0  0  0  0  0  0  0  0
   -1.2973   -2.6096   -1.0862 C   0  0  0  0  0  0  0  0  0  0  0  0
   -1.9758   -1.7174   -1.8410 N   0  0  0  0  0  0  0  0  0  0  0  0
   -1.8549   -0.3968   -1.6309 C   0  0  0  0  0  0  0  0  0  0  0  0
   -2.5475    0.5721   -2.4072 N   0  0  0  0  0  0  0  0  0  0  0  0
   -3.8777    0.8849   -2.0785 C   0  0  0  0  0  0  0  0  0  0  0  0
   -4.5971    1.8588   -2.7424 C   0  0  0  0  0  0  0  0  0  0  0  0
   -5.8923    2.1072   -2.3803 C   0  0  0  0  0  0  0  0  0  0  0  0
   -6.5105    1.3987   -1.3518 C   0  0  0  0  0  0  0  0  0  0  0  0
   -5.8031    0.4229   -0.6808 C   0  0  0  0  0  0  0  0  0  0  0  0
   -6.4950   -0.5200    0.6187 S   0  0  0  0  0  6  0  0  0  0  0  0
   -6.2540    0.1901    2.1557 N   0  0  0  0  0  0  0  0  0  0  0  0
   -7.9377   -0.8259    0.3346 O   0  0  0  0  0  0  0  0  0  0  0  0
   -5.7855   -1.8671    0.6130 O   0  0  0  0  0  0  0  0  0  0  0  0
   -4.5111    0.2070   -1.0746 C   0  0  0  0  0  0  0  0  0  0  0  0
   -1.0502    0.0596   -0.6584 N   0  0  0  0  0  0  0  0  0  0  0  0
    2.3454   -0.4433   -0.4310 C   0  0  0  0  0  0  0  0  0  0  0  0
    3.6780   -0.3114   -0.7565 C   0  0  0  0  0  0  0  0  0  0  0  0
    4.5749    0.0846    0.2170 C   0  0  0  0  0  0  0  0  0  0  0  0
    5.9084    0.2939    0.2021 N   0  0  0  0  0  0  0  0  0  0  0  0
    6.7321    0.1176   -0.9922 C   0  0  0  0  0  0  0  0  0  0  0  0
    7.7717    1.8480    2.5426 H   0  0  0  0  0  0  0  0  0  0  0  0
    8.2403    0.0971    2.2488 H   0  0  0  0  0  0  0  0  0  0  0  0
    8.2938    1.3301    0.9407 H   0  0  0  0  0  0  0  0  0  0  0  0
    2.4184    0.4035    2.8058 H   0  0  0  0  0  0  0  0  0  0  0  0
    0.3105    0.8659    2.9014 H   0  0  0  0  0  0  0  0  0  0  0  0
    0.2362   -0.9626    3.1031 H   0  0  0  0  0  0  0  0  0  0  0  0
   -1.1490   -0.1002    2.3894 H   0  0  0  0  0  0  0  0  0  0  0  0
    0.0808   -2.8363    0.5288 H   0  0  0  0  0  0  0  0  0  0  0  0
   -1.4354   -3.6712   -1.3033 H   0  0  0  0  0  0  0  0  0  0  0  0
   -2.0850    1.0629   -3.2249 H   0  0  0  0  0  0  0  0  0  0  0  0
   -4.1140    2.4146   -3.5481 H   0  0  0  0  0  0  0  0  0  0  0  0
   -6.4432    2.8706   -2.9071 H   0  0  0  0  0  0  0  0  0  0  0  0
   -7.5328    1.6121   -1.0846 H   0  0  0  0  0  0  0  0  0  0  0  0
   -5.3478   -0.1302    2.5384 H   0  0  0  0  0  0  0  0  0  0  0  0
   -6.2954    1.2154    2.1819 H   0  0  0  0  0  0  0  0  0  0  0  0
   -3.9584   -0.5757   -0.5279 H   0  0  0  0  0  0  0  0  0  0  0  0
    1.6668   -0.7540   -1.2110 H   0  0  0  0  0  0  0  0  0  0  0  0
    3.9739   -0.5257   -1.7723 H   0  0  0  0  0  0  0  0  0  0  0  0
    6.6538   -0.9610   -1.2860 H   0  0  0  0  0  0  0  0  0  0  0  0
    6.3687    0.7829   -1.8063 H   0  0  0  0  0  0  0  0  0  0  0  0
    7.7747    0.3922   -0.7855 H   0  0  0  0  0  0  0  0  0  0  0  0
  1  2  1  0
  2  3  2  0
  3  4  1  0
  4  5  2  0
  5  6  1  0
  6  7  1  0
  7  8  1  0
  7  9  1  0
  9 10  2  0
 10 11  1  0
 11 12  2  0
 12 13  1  0
 13 14  1  0
 14 15  1  0
 15 16  2  0
 16 17  1  0
 17 18  2  0
 18 19  1  0
 19 20  1  0
 20 21  1  0
 20 22  2  0
 20 23  2  0
 19 24  2  0
 13 25  2  0
  6 26  2  0
 26 27  1  0
 27 28  2  0
 28 29  1  0
 29 30  1  0
 29  2  1  0
 28  4  1  0
 25  9  1  0
 24 15  1  0
  1 31  1  0
  1 32  1  0
  1 33  1  0
  5 34  1  0
  8 35  1  0
  8 36  1  0
  8 37  1  0
 10 38  1  0
 11 39  1  0
 14 40  1  0
 16 41  1  0
 17 42  1  0
 18 43  1  0
 21 44  1  0
 21 45  1  0
 24 46  1  0
 26 47  1  0
 27 48  1  0
 30 49  1  0
 30 50  1  0
 30 51  1  0
M  END
$$$$
