@<TRIPOS>MOLECULE
*****
 43 45 0 0 0
SMALL
GASTEIGER

@<TRIPOS>ATOM
      1 O           1.5020   -0.8266    0.8851 O.2     1  UNL1       -0.2523
      2 C           0.8118   -0.1040    0.1271 C.2     1  UNL1        0.3064
      3 N           1.4886    0.6652   -0.8524 N.am    1  UNL1       -0.2693
      4 C           2.9025    0.5797   -0.9256 C.ar    1  UNL1        0.0350
      5 C           3.4588   -0.3809   -1.7495 C.ar    1  UNL1       -0.0370
      6 C           4.8134   -0.5215   -1.8700 C.ar    1  UNL1       -0.0179
      7 C           5.6480    0.3125   -1.1546 C.ar    1  UNL1        0.1301
      8 O           7.0201    0.1807   -1.2675 O.3     1  UNL1       -0.4057
      9 C           7.6831   -0.6910   -0.3801 C.3     1  UNL1        0.5752
     10 F           7.1541   -1.9669   -0.5738 F       1  UNL1       -0.1328
     11 F           7.5365   -0.2956    0.9269 F       1  UNL1       -0.1328
     12 F           9.0356   -0.7597   -0.6482 F       1  UNL1       -0.1328
     13 C           5.1128    1.2799   -0.3249 C.ar    1  UNL1       -0.0179
     14 C           3.7453    1.4187   -0.2059 C.ar    1  UNL1       -0.0370
     15 N          -0.6013   -0.0888    0.2822 N.am    1  UNL1       -0.2852
     16 C          -1.3515    0.7761   -0.6343 C.3     1  UNL1        0.0180
     17 C          -2.6821    1.0134    0.0507 C.3     1  UNL1       -0.0162
     18 C          -3.3635   -0.3613    0.0874 C.3     1  UNL1        0.0368
     19 N          -4.7555   -0.1083    0.4695 N.ar    1  UNL1       -0.3502
     20 C          -5.7896   -0.9545    0.3107 C.ar    1  UNL1        0.0049
     21 C          -6.9519   -0.3878    0.7819 C.ar    1  UNL1       -0.0442
     22 C          -6.6255    0.8591    1.2514 C.ar    1  UNL1       -0.0442
     23 C          -5.2685    0.9935    1.0420 C.ar    1  UNL1        0.0049
     24 C          -2.6496   -1.1929    1.1092 C.3     1  UNL1       -0.0162
     25 C          -1.2124   -0.8839    1.2838 C.3     1  UNL1        0.0180
     26 H           0.9602    1.2792   -1.5035 H       1  UNL1        0.1564
     27 H           2.8057   -1.0284   -2.3051 H       1  UNL1        0.0637
     28 H           5.2135   -1.2848   -2.5248 H       1  UNL1        0.0655
     29 H           5.7784    1.9274    0.2306 H       1  UNL1        0.0655
     30 H           3.3304    2.1715    0.4397 H       1  UNL1        0.0637
     31 H          -0.8740    1.7631   -0.7504 H       1  UNL1        0.0466
     32 H          -1.5288    0.2885   -1.6001 H       1  UNL1        0.0466
     33 H          -3.2977    1.7689   -0.4339 H       1  UNL1        0.0300
     34 H          -2.4696    1.2465    1.1311 H       1  UNL1        0.0300
     35 H          -3.3121   -0.7844   -0.9360 H       1  UNL1        0.0528
     36 H          -5.7179   -1.9499   -0.1295 H       1  UNL1        0.0809
     37 H          -7.9370   -0.8016    0.7986 H       1  UNL1        0.0632
     38 H          -7.2659    1.6136    1.7003 H       1  UNL1        0.0632
     39 H          -4.6609    1.8704    1.2979 H       1  UNL1        0.0809
     40 H          -2.7617   -2.2586    0.8206 H       1  UNL1        0.0300
     41 H          -3.2336   -1.0881    2.0704 H       1  UNL1        0.0300
     42 H          -0.5970   -1.8260    1.3879 H       1  UNL1        0.0466
     43 H          -1.0929   -0.3800    2.2851 H       1  UNL1        0.0466
@<TRIPOS>BOND
     1     1     2    2
     2     2     3   am
     3     3     4    1
     4     4     5   ar
     5     5     6   ar
     6     6     7   ar
     7     7     8    1
     8     8     9    1
     9     9    10    1
    10     9    11    1
    11     9    12    1
    12     7    13   ar
    13    13    14   ar
    14     2    15   am
    15    15    16    1
    16    16    17    1
    17    17    18    1
    18    18    19    1
    19    19    20   ar
    20    20    21   ar
    21    21    22   ar
    22    22    23   ar
    23    18    24    1
    24    24    25    1
    25    14     4   ar
    26    25    15    1
    27    23    19   ar
    28     3    26    1
    29     5    27    1
    30     6    28    1
    31    13    29    1
    32    14    30    1
    33    16    31    1
    34    16    32    1
    35    17    33    1
    36    17    34    1
    37    18    35    1
    38    20    36    1
    39    21    37    1
    40    22    38    1
    41    23    39    1
    42    24    40    1
    43    24    41    1
    44    25    42    1
    45    25    43    1
