@<TRIPOS>MOLECULE
*****
 64 68 0 0 0
SMALL
GASTEIGER

@<TRIPOS>ATOM
      1 N          -6.6914    2.6422   -0.4939 N.pl3   1  UNL1       -0.3566
      2 C          -7.0720    1.5128    0.2823 C.ar    1  UNL1        0.0464
      3 C          -8.2380    1.6274    1.0012 C.ar    1  UNL1        0.0484
      4 N          -8.7040    0.6228    1.7923 N.ar    1  UNL1       -0.2614
      5 C          -7.9821   -0.4844    1.8436 C.ar    1  UNL1        0.0279
      6 C          -6.8255   -0.6415    1.1510 C.ar    1  UNL1       -0.0384
      7 C          -6.2997    0.3547    0.3226 C.ar    1  UNL1       -0.0207
      8 C          -5.0688    0.2044   -0.4220 C.3     1  UNL1       -0.0139
      9 C          -3.8440    0.5588    0.3976 C.3     1  UNL1       -0.0447
     10 C          -2.6529    0.6095   -0.5243 C.3     1  UNL1       -0.0368
     11 C          -2.5764   -0.5811   -1.3980 C.3     1  UNL1        0.0106
     12 N          -1.2913   -1.1570   -1.5644 N.3     1  UNL1       -0.2958
     13 C          -0.6117   -1.5909   -0.3555 C.3     1  UNL1        0.0189
     14 C           0.6507   -1.5013   -1.2701 C.3     1  UNL1        0.0486
     15 N           1.8428   -1.2503   -0.5463 N.am    1  UNL1       -0.3087
     16 C           2.7393   -2.3282   -0.3566 C.2     1  UNL1        0.2304
     17 O           2.4558   -3.4881   -0.8294 O.2     1  UNL1       -0.2741
     18 C           4.0224   -2.2031    0.3783 C.3     1  UNL1        0.0870
     19 N           4.2985   -0.9414    0.8337 N.pl3   1  UNL1       -0.3199
     20 C           4.5686    0.2929    1.2793 C.ar    1  UNL1        0.1301
     21 N           3.9220    1.0542    2.1425 N.ar    1  UNL1       -0.2203
     22 C           4.3516    2.2848    2.5119 C.ar    1  UNL1        0.1187
     23 N           5.4871    2.7900    1.9952 N.ar    1  UNL1       -0.2353
     24 C           6.2198    2.1067    1.1135 C.ar    1  UNL1        0.0760
     25 C           7.3761    2.6443    0.5986 C.ar    1  UNL1       -0.0350
     26 C           8.1011    1.8943   -0.3166 C.ar    1  UNL1       -0.0481
     27 C           7.6971    0.6489   -0.7119 C.ar    1  UNL1        0.0556
     28 C           8.4461   -0.1897   -1.6918 C.3     1  UNL1        0.4174
     29 F           9.1767    0.6337   -2.5326 F       1  UNL1       -0.1659
     30 F           7.5765   -0.9231   -2.5046 F       1  UNL1       -0.1659
     31 F           9.2490   -1.1024   -1.0271 F       1  UNL1       -0.1659
     32 C           6.5147    0.1456   -0.1598 C.ar    1  UNL1       -0.0376
     33 C           5.7815    0.8698    0.7464 C.ar    1  UNL1        0.0406
     34 C          -0.1440   -0.3471   -1.8156 C.3     1  UNL1        0.0189
     35 C          -3.4770   -1.6673   -0.8553 C.3     1  UNL1       -0.0368
     36 C          -4.9052   -1.1907   -0.9622 C.3     1  UNL1       -0.0447
     37 H          -7.3566    3.4706   -0.5164 H       1  UNL1        0.1424
     38 H          -5.8023    2.6961   -1.0324 H       1  UNL1        0.1424
     39 H          -8.8663    2.5153    0.9909 H       1  UNL1        0.0848
     40 H          -8.3470   -1.3077    2.4840 H       1  UNL1        0.0829
     41 H          -6.3081   -1.5802    1.2725 H       1  UNL1        0.0636
     42 H          -5.1205    0.9365   -1.2904 H       1  UNL1        0.0349
     43 H          -3.7085   -0.2235    1.1624 H       1  UNL1        0.0272
     44 H          -3.9825    1.5281    0.9366 H       1  UNL1        0.0272
     45 H          -2.7215    1.5570   -1.1236 H       1  UNL1        0.0280
     46 H          -1.7666    0.7604    0.1284 H       1  UNL1        0.0280
     47 H          -2.9223   -0.2776   -2.4311 H       1  UNL1        0.0462
     48 H          -0.8253   -2.6043   -0.0166 H       1  UNL1        0.0445
     49 H          -0.4737   -0.8285    0.4325 H       1  UNL1        0.0445
     50 H           0.6436   -2.4057   -1.9115 H       1  UNL1        0.0523
     51 H           2.0591   -0.3071   -0.1679 H       1  UNL1        0.1491
     52 H           3.9548   -2.9284    1.2515 H       1  UNL1        0.0557
     53 H           4.8505   -2.7090   -0.2223 H       1  UNL1        0.0557
     54 H           3.0911   -0.9664    1.5386 H       1  UNL1        0.1480
     55 H           3.7798    2.8509    3.2246 H       1  UNL1        0.1048
     56 H           7.7218    3.6071    0.8736 H       1  UNL1        0.0639
     57 H           9.0323    2.2797   -0.7607 H       1  UNL1        0.0624
     58 H           6.1431   -0.8239   -0.4316 H       1  UNL1        0.0631
     59 H           0.0613   -0.1530   -2.8921 H       1  UNL1        0.0445
     60 H          -0.0684    0.5778   -1.1931 H       1  UNL1        0.0445
     61 H          -3.3383   -2.5711   -1.5106 H       1  UNL1        0.0280
     62 H          -3.1752   -1.8772    0.1844 H       1  UNL1        0.0280
     63 H          -5.1327   -1.2007   -2.0636 H       1  UNL1        0.0272
     64 H          -5.5148   -1.9253   -0.4184 H       1  UNL1        0.0272
@<TRIPOS>BOND
     1     1     2    1
     2     2     3   ar
     3     3     4   ar
     4     4     5   ar
     5     5     6   ar
     6     6     7   ar
     7     7     8    1
     8     8     9    1
     9     9    10    1
    10    10    11    1
    11    11    12    1
    12    12    13    1
    13    13    14    1
    14    14    15    1
    15    15    16   am
    16    16    17    2
    17    16    18    1
    18    18    19    1
    19    19    20    1
    20    20    21   ar
    21    21    22   ar
    22    22    23   ar
    23    23    24   ar
    24    24    25   ar
    25    25    26   ar
    26    26    27   ar
    27    27    28    1
    28    28    29    1
    29    28    30    1
    30    28    31    1
    31    27    32   ar
    32    32    33   ar
    33    14    34    1
    34    11    35    1
    35    35    36    1
    36     7     2   ar
    37    36     8    1
    38    34    12    1
    39    33    20   ar
    40    33    24   ar
    41     1    37    1
    42     1    38    1
    43     3    39    1
    44     5    40    1
    45     6    41    1
    46     8    42    1
    47     9    43    1
    48     9    44    1
    49    10    45    1
    50    10    46    1
    51    11    47    1
    52    13    48    1
    53    13    49    1
    54    14    50    1
    55    15    51    1
    56    18    52    1
    57    18    53    1
    58    19    54    1
    59    22    55    1
    60    25    56    1
    61    26    57    1
    62    32    58    1
    63    34    59    1
    64    34    60    1
    65    35    61    1
    66    35    62    1
    67    36    63    1
    68    36    64    1
