
     RDKit          3D

 64 68  0  0  0  0  0  0  0  0999 V2000
   -6.6914    2.6422   -0.4939 N   0  0  0  0  0  0  0  0  0  0  0  0
   -7.0720    1.5128    0.2823 C   0  0  0  0  0  0  0  0  0  0  0  0
   -8.2380    1.6274    1.0012 C   0  0  0  0  0  0  0  0  0  0  0  0
   -8.7040    0.6228    1.7923 N   0  0  0  0  0  0  0  0  0  0  0  0
   -7.9821   -0.4844    1.8436 C   0  0  0  0  0  0  0  0  0  0  0  0
   -6.8255   -0.6415    1.1510 C   0  0  0  0  0  0  0  0  0  0  0  0
   -6.2997    0.3547    0.3226 C   0  0  0  0  0  0  0  0  0  0  0  0
   -5.0688    0.2044   -0.4220 C   0  0  1  0  0  0  0  0  0  0  0  0
   -3.8440    0.5588    0.3976 C   0  0  0  0  0  0  0  0  0  0  0  0
   -2.6529    0.6095   -0.5243 C   0  0  0  0  0  0  0  0  0  0  0  0
   -2.5764   -0.5811   -1.3980 C   0  0  1  0  0  0  0  0  0  0  0  0
   -1.2913   -1.1570   -1.5644 N   0  0  0  0  0  0  0  0  0  0  0  0
   -0.6117   -1.5909   -0.3555 C   0  0  0  0  0  0  0  0  0  0  0  0
    0.6507   -1.5013   -1.2701 C   0  0  0  0  0  0  0  0  0  0  0  0
    1.8428   -1.2503   -0.5463 N   0  0  0  0  0  0  0  0  0  0  0  0
    2.7393   -2.3282   -0.3566 C   0  0  0  0  0  0  0  0  0  0  0  0
    2.4558   -3.4881   -0.8294 O   0  0  0  0  0  0  0  0  0  0  0  0
    4.0224   -2.2031    0.3783 C   0  0  0  0  0  0  0  0  0  0  0  0
    4.2985   -0.9414    0.8337 N   0  0  0  0  0  0  0  0  0  0  0  0
    4.5686    0.2929    1.2793 C   0  0  0  0  0  0  0  0  0  0  0  0
    3.9220    1.0542    2.1425 N   0  0  0  0  0  0  0  0  0  0  0  0
    4.3516    2.2848    2.5119 C   0  0  0  0  0  0  0  0  0  0  0  0
    5.4871    2.7900    1.9952 N   0  0  0  0  0  0  0  0  0  0  0  0
    6.2198    2.1067    1.1135 C   0  0  0  0  0  0  0  0  0  0  0  0
    7.3761    2.6443    0.5986 C   0  0  0  0  0  0  0  0  0  0  0  0
    8.1011    1.8943   -0.3166 C   0  0  0  0  0  0  0  0  0  0  0  0
    7.6971    0.6489   -0.7119 C   0  0  0  0  0  0  0  0  0  0  0  0
    8.4461   -0.1897   -1.6918 C   0  0  0  0  0  0  0  0  0  0  0  0
    9.1767    0.6337   -2.5326 F   0  0  0  0  0  0  0  0  0  0  0  0
    7.5765   -0.9231   -2.5046 F   0  0  0  0  0  0  0  0  0  0  0  0
    9.2490   -1.1024   -1.0271 F   0  0  0  0  0  0  0  0  0  0  0  0
    6.5147    0.1456   -0.1598 C   0  0  0  0  0  0  0  0  0  0  0  0
    5.7815    0.8698    0.7464 C   0  0  0  0  0  0  0  0  0  0  0  0
   -0.1440   -0.3471   -1.8156 C   0  0  0  0  0  0  0  0  0  0  0  0
   -3.4770   -1.6673   -0.8553 C   0  0  0  0  0  0  0  0  0  0  0  0
   -4.9052   -1.1907   -0.9622 C   0  0  0  0  0  0  0  0  0  0  0  0
   -7.3566    3.4706   -0.5164 H   0  0  0  0  0  0  0  0  0  0  0  0
   -5.8023    2.6961   -1.0324 H   0  0  0  0  0  0  0  0  0  0  0  0
   -8.8663    2.5153    0.9909 H   0  0  0  0  0  0  0  0  0  0  0  0
   -8.3470   -1.3077    2.4840 H   0  0  0  0  0  0  0  0  0  0  0  0
   -6.3081   -1.5802    1.2725 H   0  0  0  0  0  0  0  0  0  0  0  0
   -5.1205    0.9365   -1.2904 H   0  0  0  0  0  0  0  0  0  0  0  0
   -3.7085   -0.2235    1.1624 H   0  0  0  0  0  0  0  0  0  0  0  0
   -3.9825    1.5281    0.9366 H   0  0  0  0  0  0  0  0  0  0  0  0
   -2.7215    1.5570   -1.1236 H   0  0  0  0  0  0  0  0  0  0  0  0
   -1.7666    0.7604    0.1284 H   0  0  0  0  0  0  0  0  0  0  0  0
   -2.9223   -0.2776   -2.4311 H   0  0  0  0  0  0  0  0  0  0  0  0
   -0.8253   -2.6043   -0.0166 H   0  0  0  0  0  0  0  0  0  0  0  0
   -0.4737   -0.8285    0.4325 H   0  0  0  0  0  0  0  0  0  0  0  0
    0.6436   -2.4057   -1.9115 H   0  0  0  0  0  0  0  0  0  0  0  0
    2.0591   -0.3071   -0.1679 H   0  0  0  0  0  0  0  0  0  0  0  0
    3.9548   -2.9284    1.2515 H   0  0  0  0  0  0  0  0  0  0  0  0
    4.8505   -2.7090   -0.2223 H   0  0  0  0  0  0  0  0  0  0  0  0
    3.0911   -0.9664    1.5386 H   0  0  0  0  0  0  0  0  0  0  0  0
    3.7798    2.8509    3.2246 H   0  0  0  0  0  0  0  0  0  0  0  0
    7.7218    3.6071    0.8736 H   0  0  0  0  0  0  0  0  0  0  0  0
    9.0323    2.2797   -0.7607 H   0  0  0  0  0  0  0  0  0  0  0  0
    6.1431   -0.8239   -0.4316 H   0  0  0  0  0  0  0  0  0  0  0  0
    0.0613   -0.1530   -2.8921 H   0  0  0  0  0  0  0  0  0  0  0  0
   -0.0684    0.5778   -1.1931 H   0  0  0  0  0  0  0  0  0  0  0  0
   -3.3383   -2.5711   -1.5106 H   0  0  0  0  0  0  0  0  0  0  0  0
   -3.1752   -1.8772    0.1844 H   0  0  0  0  0  0  0  0  0  0  0  0
   -5.1327   -1.2007   -2.0636 H   0  0  0  0  0  0  0  0  0  0  0  0
   -5.5148   -1.9253   -0.4184 H   0  0  0  0  0  0  0  0  0  0  0  0
  1  2  1  0
  2  3  2  0
  3  4  1  0
  4  5  2  0
  5  6  1  0
  6  7  2  0
  7  8  1  0
  8  9  1  0
  9 10  1  0
 10 11  1  0
 11 12  1  0
 12 13  1  0
 13 14  1  0
 14 15  1  0
 15 16  1  0
 16 17  2  0
 16 18  1  0
 18 19  1  0
 19 20  1  0
 20 21  2  0
 21 22  1  0
 22 23  2  0
 23 24  1  0
 24 25  2  0
 25 26  1  0
 26 27  2  0
 27 28  1  0
 28 29  1  0
 28 30  1  0
 28 31  1  0
 27 32  1  0
 32 33  2  0
 14 34  1  0
 11 35  1  0
 35 36  1  0
  7  2  1  0
 36  8  1  0
 34 12  1  0
 33 20  1  0
 33 24  1  0
  1 37  1  0
  1 38  1  0
  3 39  1  0
  5 40  1  0
  6 41  1  0
  8 42  1  6
  9 43  1  0
  9 44  1  0
 10 45  1  0
 10 46  1  0
 11 47  1  6
 13 48  1  0
 13 49  1  0
 14 50  1  0
 15 51  1  0
 18 52  1  0
 18 53  1  0
 19 54  1  0
 22 55  1  0
 25 56  1  0
 26 57  1  0
 32 58  1  0
 34 59  1  0
 34 60  1  0
 35 61  1  0
 35 62  1  0
 36 63  1  0
 36 64  1  0
M  END
$$$$
