@<TRIPOS>MOLECULE
*****
 37 39 0 0 0
SMALL
GASTEIGER

@<TRIPOS>ATOM
      1 N           6.8253    1.7482    0.6459 N.1     1  UNL1       -0.1908
      2 C           5.8073    1.3275    0.3238 C.1     1  UNL1        0.1006
      3 C           4.5094    0.8185   -0.0861 C.ar    1  UNL1        0.0704
      4 C           3.5067    1.7516   -0.2883 C.ar    1  UNL1       -0.0409
      5 C           2.2444    1.3119   -0.6822 C.ar    1  UNL1       -0.0346
      6 C           2.0130   -0.0373   -0.8639 C.ar    1  UNL1        0.0733
      7 N           0.6901   -0.4412   -1.2717 N.2     1  UNL1       -0.1990
      8 C          -0.2906   -0.1279   -0.4614 C.2     1  UNL1        0.2866
      9 O          -0.2607    0.5471    0.7572 O.2     1  UNL1       -0.4510
     10 C          -1.5632    0.5726    1.3093 C.3     1  UNL1        0.2179
     11 C          -1.7967    1.8215    2.1300 C.3     1  UNL1        0.4284
     12 F          -1.6519    2.9422    1.3688 F       1  UNL1       -0.1668
     13 F          -0.8350    1.7701    3.1481 F       1  UNL1       -0.1668
     14 F          -3.0451    1.8060    2.7182 F       1  UNL1       -0.1668
     15 C          -2.4180    0.5558    0.0461 C.3     1  UNL1        0.0990
     16 C          -3.7853   -0.0064    0.2632 C.3     1  UNL1        0.0790
     17 O          -4.6951    0.8189   -0.4341 O.3     1  UNL1       -0.3898
     18 C          -3.7525   -1.3802   -0.3459 C.3     1  UNL1       -0.0090
     19 C          -2.6100   -1.3120   -1.3630 C.3     1  UNL1        0.0192
     20 N          -1.6714   -0.4528   -0.7116 N.pl3   1  UNL1       -0.2759
     21 C           3.0380   -0.9353   -0.6523 C.ar    1  UNL1       -0.0054
     22 C           2.7890   -2.3850   -0.8477 C.3     1  UNL1       -0.0363
     23 C           4.2990   -0.5250   -0.2614 C.ar    1  UNL1        0.0632
     24 CL          5.5938   -1.6755    0.0044 Cl      1  UNL1       -0.0819
     25 H           3.7008    2.8200   -0.1414 H       1  UNL1        0.0631
     26 H           1.4995    2.0963   -0.8246 H       1  UNL1        0.0639
     27 H          -1.7955   -0.3362    1.8805 H       1  UNL1        0.0846
     28 H          -2.3882    1.5381   -0.4530 H       1  UNL1        0.0566
     29 H          -4.0839   -0.0143    1.3364 H       1  UNL1        0.0613
     30 H          -4.7165    0.5742   -1.4128 H       1  UNL1        0.2099
     31 H          -4.7176   -1.6535   -0.8561 H       1  UNL1        0.0306
     32 H          -3.4916   -2.1355    0.4338 H       1  UNL1        0.0306
     33 H          -2.9920   -0.7730   -2.2607 H       1  UNL1        0.0466
     34 H          -2.2214   -2.3245   -1.5875 H       1  UNL1        0.0466
     35 H           1.7389   -2.5953   -1.0722 H       1  UNL1        0.0279
     36 H           3.1046   -2.8763    0.1157 H       1  UNL1        0.0279
     37 H           3.4224   -2.8331   -1.6440 H       1  UNL1        0.0279
@<TRIPOS>BOND
     1     1     2    3
     2     2     3    1
     3     3     4   ar
     4     4     5   ar
     5     5     6   ar
     6     6     7    1
     7     7     8    2
     8     8     9    1
     9     9    10    1
    10    10    11    1
    11    11    12    1
    12    11    13    1
    13    11    14    1
    14    10    15    1
    15    15    16    1
    16    16    17    1
    17    16    18    1
    18    18    19    1
    19    19    20    1
    20     6    21   ar
    21    21    22    1
    22    21    23   ar
    23    23    24    1
    24    23     3   ar
    25    20     8    1
    26    20    15    1
    27     4    25    1
    28     5    26    1
    29    10    27    1
    30    15    28    1
    31    16    29    1
    32    17    30    1
    33    18    31    1
    34    18    32    1
    35    19    33    1
    36    19    34    1
    37    22    35    1
    38    22    36    1
    39    22    37    1
