
     RDKit          3D

 37 39  0  0  0  0  0  0  0  0999 V2000
    6.8253    1.7482    0.6459 N   0  0  0  0  0  0  0  0  0  0  0  0
    5.8073    1.3275    0.3238 C   0  0  0  0  0  0  0  0  0  0  0  0
    4.5094    0.8185   -0.0861 C   0  0  0  0  0  0  0  0  0  0  0  0
    3.5067    1.7516   -0.2883 C   0  0  0  0  0  0  0  0  0  0  0  0
    2.2444    1.3119   -0.6822 C   0  0  0  0  0  0  0  0  0  0  0  0
    2.0130   -0.0373   -0.8639 C   0  0  0  0  0  0  0  0  0  0  0  0
    0.6901   -0.4412   -1.2717 N   0  0  0  0  0  0  0  0  0  0  0  0
   -0.2906   -0.1279   -0.4614 C   0  0  0  0  0  0  0  0  0  0  0  0
   -0.2607    0.5471    0.7572 O   0  0  0  0  0  0  0  0  0  0  0  0
   -1.5632    0.5726    1.3093 C   0  0  1  0  0  0  0  0  0  0  0  0
   -1.7967    1.8215    2.1300 C   0  0  0  0  0  0  0  0  0  0  0  0
   -1.6519    2.9422    1.3688 F   0  0  0  0  0  0  0  0  0  0  0  0
   -0.8350    1.7701    3.1481 F   0  0  0  0  0  0  0  0  0  0  0  0
   -3.0451    1.8060    2.7182 F   0  0  0  0  0  0  0  0  0  0  0  0
   -2.4180    0.5558    0.0461 C   0  0  2  0  0  0  0  0  0  0  0  0
   -3.7853   -0.0064    0.2632 C   0  0  1  0  0  0  0  0  0  0  0  0
   -4.6951    0.8189   -0.4341 O   0  0  0  0  0  0  0  0  0  0  0  0
   -3.7525   -1.3802   -0.3459 C   0  0  0  0  0  0  0  0  0  0  0  0
   -2.6100   -1.3120   -1.3630 C   0  0  0  0  0  0  0  0  0  0  0  0
   -1.6714   -0.4528   -0.7116 N   0  0  0  0  0  0  0  0  0  0  0  0
    3.0380   -0.9353   -0.6523 C   0  0  0  0  0  0  0  0  0  0  0  0
    2.7890   -2.3850   -0.8477 C   0  0  0  0  0  0  0  0  0  0  0  0
    4.2990   -0.5250   -0.2614 C   0  0  0  0  0  0  0  0  0  0  0  0
    5.5938   -1.6755    0.0044 Cl  0  0  0  0  0  0  0  0  0  0  0  0
    3.7008    2.8200   -0.1414 H   0  0  0  0  0  0  0  0  0  0  0  0
    1.4995    2.0963   -0.8246 H   0  0  0  0  0  0  0  0  0  0  0  0
   -1.7955   -0.3362    1.8805 H   0  0  0  0  0  0  0  0  0  0  0  0
   -2.3882    1.5381   -0.4530 H   0  0  0  0  0  0  0  0  0  0  0  0
   -4.0839   -0.0143    1.3364 H   0  0  0  0  0  0  0  0  0  0  0  0
   -4.7165    0.5742   -1.4128 H   0  0  0  0  0  0  0  0  0  0  0  0
   -4.7176   -1.6535   -0.8561 H   0  0  0  0  0  0  0  0  0  0  0  0
   -3.4916   -2.1355    0.4338 H   0  0  0  0  0  0  0  0  0  0  0  0
   -2.9920   -0.7730   -2.2607 H   0  0  0  0  0  0  0  0  0  0  0  0
   -2.2214   -2.3245   -1.5875 H   0  0  0  0  0  0  0  0  0  0  0  0
    1.7389   -2.5953   -1.0722 H   0  0  0  0  0  0  0  0  0  0  0  0
    3.1046   -2.8763    0.1157 H   0  0  0  0  0  0  0  0  0  0  0  0
    3.4224   -2.8331   -1.6440 H   0  0  0  0  0  0  0  0  0  0  0  0
  1  2  3  0
  2  3  1  0
  3  4  2  0
  4  5  1  0
  5  6  2  0
  6  7  1  0
  7  8  2  0
  8  9  1  0
  9 10  1  0
 10 11  1  0
 11 12  1  0
 11 13  1  0
 11 14  1  0
 10 15  1  0
 15 16  1  0
 16 17  1  0
 16 18  1  0
 18 19  1  0
 19 20  1  0
  6 21  1  0
 21 22  1  0
 21 23  2  0
 23 24  1  0
 23  3  1  0
 20  8  1  0
 20 15  1  0
  4 25  1  0
  5 26  1  0
 10 27  1  1
 15 28  1  6
 16 29  1  1
 17 30  1  0
 18 31  1  0
 18 32  1  0
 19 33  1  0
 19 34  1  0
 22 35  1  0
 22 36  1  0
 22 37  1  0
M  END
$$$$
