@<TRIPOS>MOLECULE
*****
 39 41 0 0 0
SMALL
GASTEIGER

@<TRIPOS>ATOM
      1 C          -1.1508    3.5767   -0.2478 C.3     1  UNL1       -0.0420
      2 C          -0.5255    2.8887    0.9377 C.3     1  UNL1        0.0520
      3 N          -0.6479    1.4451    0.7121 N.am    1  UNL1       -0.3041
      4 C          -1.3761    0.6124    1.5865 C.2     1  UNL1        0.2497
      5 O          -1.9148    1.2274    2.5887 O.2     1  UNL1       -0.2700
      6 C          -1.5713   -0.8091    1.4742 C.ar    1  UNL1        0.0985
      7 C          -2.3283   -1.4866    2.4551 C.ar    1  UNL1       -0.0430
      8 C          -2.5274   -2.8417    2.3770 C.ar    1  UNL1       -0.0426
      9 C          -2.0033   -3.5891    1.3505 C.ar    1  UNL1        0.0314
     10 N          -1.2918   -2.9392    0.4323 N.ar    1  UNL1       -0.2204
     11 C          -1.0704   -1.5770    0.4775 C.ar    1  UNL1        0.2327
     12 O          -0.3171   -1.0034   -0.5301 O.3     1  UNL1       -0.4373
     13 C           0.1799   -1.8143   -1.5316 C.ar    1  UNL1        0.1306
     14 C          -0.5102   -2.1049   -2.6886 C.ar    1  UNL1       -0.0166
     15 C           0.0314   -2.9270   -3.6694 C.ar    1  UNL1       -0.0230
     16 C           1.2684   -3.4643   -3.4990 C.ar    1  UNL1        0.1236
     17 F           1.7867   -4.2587   -4.4550 F       1  UNL1       -0.2055
     18 C           1.9858   -3.1896   -2.3453 C.ar    1  UNL1       -0.0230
     19 C           1.4236   -2.3648   -1.3784 C.ar    1  UNL1       -0.0166
     20 C           0.8841    3.3005    1.0953 C.ar    1  UNL1        0.0097
     21 C           2.0178    2.9571    0.3714 C.ar    1  UNL1       -0.0498
     22 C           3.1738    3.4832    0.7445 C.ar    1  UNL1       -0.0544
     23 C           3.2937    4.3258    1.7825 C.ar    1  UNL1       -0.0240
     24 S           1.5378    4.4212    2.3500 S.2     1  UNL1       -0.0998
     25 H          -1.0285    4.6769   -0.2142 H       1  UNL1        0.0251
     26 H          -0.7523    3.1372   -1.1850 H       1  UNL1        0.0251
     27 H          -2.2388    3.3256   -0.2289 H       1  UNL1        0.0251
     28 H          -1.1243    3.1239    1.8446 H       1  UNL1        0.0551
     29 H          -0.1839    1.0380   -0.1128 H       1  UNL1        0.1496
     30 H          -2.7327   -0.8761    3.2581 H       1  UNL1        0.0627
     31 H          -3.1103   -3.3416    3.1365 H       1  UNL1        0.0633
     32 H          -2.1525   -4.6733    1.2732 H       1  UNL1        0.0831
     33 H          -1.5050   -1.6668   -2.8141 H       1  UNL1        0.0655
     34 H          -0.5423   -3.1234   -4.5470 H       1  UNL1        0.0647
     35 H           2.9630   -3.6249   -2.2327 H       1  UNL1        0.0647
     36 H           2.0128   -2.1752   -0.4935 H       1  UNL1        0.0655
     37 H           1.8634    2.2416   -0.4954 H       1  UNL1        0.0626
     38 H           4.1173    3.2176    0.1671 H       1  UNL1        0.0623
     39 H           4.0663    4.8519    2.2539 H       1  UNL1        0.0693
@<TRIPOS>BOND
     1     1     2    1
     2     2     3    1
     3     3     4   am
     4     4     5    2
     5     4     6    1
     6     6     7   ar
     7     7     8   ar
     8     8     9   ar
     9     9    10   ar
    10    10    11   ar
    11    11    12    1
    12    12    13    1
    13    13    14   ar
    14    14    15   ar
    15    15    16   ar
    16    16    17    1
    17    16    18   ar
    18    18    19   ar
    19     2    20    1
    20    20    21   ar
    21    21    22   ar
    22    22    23   ar
    23    23    24   ar
    24    11     6   ar
    25    19    13   ar
    26    24    20   ar
    27     1    25    1
    28     1    26    1
    29     1    27    1
    30     2    28    1
    31     3    29    1
    32     7    30    1
    33     8    31    1
    34     9    32    1
    35    14    33    1
    36    15    34    1
    37    18    35    1
    38    19    36    1
    39    21    37    1
    40    22    38    1
    41    23    39    1
