
     RDKit          3D

 39 41  0  0  0  0  0  0  0  0999 V2000
   -1.1508    3.5767   -0.2478 C   0  0  0  0  0  0  0  0  0  0  0  0
   -0.5255    2.8887    0.9377 C   0  0  1  0  0  0  0  0  0  0  0  0
   -0.6479    1.4451    0.7121 N   0  0  0  0  0  0  0  0  0  0  0  0
   -1.3761    0.6124    1.5865 C   0  0  0  0  0  0  0  0  0  0  0  0
   -1.9148    1.2274    2.5887 O   0  0  0  0  0  0  0  0  0  0  0  0
   -1.5713   -0.8091    1.4742 C   0  0  0  0  0  0  0  0  0  0  0  0
   -2.3283   -1.4866    2.4551 C   0  0  0  0  0  0  0  0  0  0  0  0
   -2.5274   -2.8417    2.3770 C   0  0  0  0  0  0  0  0  0  0  0  0
   -2.0033   -3.5891    1.3505 C   0  0  0  0  0  0  0  0  0  0  0  0
   -1.2918   -2.9392    0.4323 N   0  0  0  0  0  0  0  0  0  0  0  0
   -1.0704   -1.5770    0.4775 C   0  0  0  0  0  0  0  0  0  0  0  0
   -0.3171   -1.0034   -0.5301 O   0  0  0  0  0  0  0  0  0  0  0  0
    0.1799   -1.8143   -1.5316 C   0  0  0  0  0  0  0  0  0  0  0  0
   -0.5102   -2.1049   -2.6886 C   0  0  0  0  0  0  0  0  0  0  0  0
    0.0314   -2.9270   -3.6694 C   0  0  0  0  0  0  0  0  0  0  0  0
    1.2684   -3.4643   -3.4990 C   0  0  0  0  0  0  0  0  0  0  0  0
    1.7867   -4.2587   -4.4550 F   0  0  0  0  0  0  0  0  0  0  0  0
    1.9858   -3.1896   -2.3453 C   0  0  0  0  0  0  0  0  0  0  0  0
    1.4236   -2.3648   -1.3784 C   0  0  0  0  0  0  0  0  0  0  0  0
    0.8841    3.3005    1.0953 C   0  0  0  0  0  0  0  0  0  0  0  0
    2.0178    2.9571    0.3714 C   0  0  0  0  0  0  0  0  0  0  0  0
    3.1738    3.4832    0.7445 C   0  0  0  0  0  0  0  0  0  0  0  0
    3.2937    4.3258    1.7825 C   0  0  0  0  0  0  0  0  0  0  0  0
    1.5378    4.4212    2.3500 S   0  0  0  0  0  0  0  0  0  0  0  0
   -1.0285    4.6769   -0.2142 H   0  0  0  0  0  0  0  0  0  0  0  0
   -0.7523    3.1372   -1.1850 H   0  0  0  0  0  0  0  0  0  0  0  0
   -2.2388    3.3256   -0.2289 H   0  0  0  0  0  0  0  0  0  0  0  0
   -1.1243    3.1239    1.8446 H   0  0  0  0  0  0  0  0  0  0  0  0
   -0.1839    1.0380   -0.1128 H   0  0  0  0  0  0  0  0  0  0  0  0
   -2.7327   -0.8761    3.2581 H   0  0  0  0  0  0  0  0  0  0  0  0
   -3.1103   -3.3416    3.1365 H   0  0  0  0  0  0  0  0  0  0  0  0
   -2.1525   -4.6733    1.2732 H   0  0  0  0  0  0  0  0  0  0  0  0
   -1.5050   -1.6668   -2.8141 H   0  0  0  0  0  0  0  0  0  0  0  0
   -0.5423   -3.1234   -4.5470 H   0  0  0  0  0  0  0  0  0  0  0  0
    2.9630   -3.6249   -2.2327 H   0  0  0  0  0  0  0  0  0  0  0  0
    2.0128   -2.1752   -0.4935 H   0  0  0  0  0  0  0  0  0  0  0  0
    1.8634    2.2416   -0.4954 H   0  0  0  0  0  0  0  0  0  0  0  0
    4.1173    3.2176    0.1671 H   0  0  0  0  0  0  0  0  0  0  0  0
    4.0663    4.8519    2.2539 H   0  0  0  0  0  0  0  0  0  0  0  0
  1  2  1  0
  2  3  1  0
  3  4  1  0
  4  5  2  0
  4  6  1  0
  6  7  2  0
  7  8  1  0
  8  9  2  0
  9 10  1  0
 10 11  2  0
 11 12  1  0
 12 13  1  0
 13 14  2  0
 14 15  1  0
 15 16  2  0
 16 17  1  0
 16 18  1  0
 18 19  2  0
  2 20  1  0
 20 21  2  0
 21 22  1  0
 22 23  2  0
 23 24  1  0
 11  6  1  0
 19 13  1  0
 24 20  1  0
  1 25  1  0
  1 26  1  0
  1 27  1  0
  2 28  1  1
  3 29  1  0
  7 30  1  0
  8 31  1  0
  9 32  1  0
 14 33  1  0
 15 34  1  0
 18 35  1  0
 19 36  1  0
 21 37  1  0
 22 38  1  0
 23 39  1  0
M  END
$$$$
