
     RDKit          3D

 50 50  0  0  0  0  0  0  0  0999 V2000
   -6.7842    1.7253   -1.6109 C   0  0  0  0  0  0  0  0  0  0  0  0
   -5.5542    1.2823   -0.8789 C   0  0  0  0  0  0  0  0  0  0  0  0
   -5.5844    0.2600   -0.0962 C   0  0  0  0  0  0  0  0  0  0  0  0
   -6.7998   -0.4285    0.4297 C   0  0  0  0  0  0  0  0  0  0  0  0
   -4.3562   -0.1199    0.6389 C   0  0  0  0  0  0  0  0  0  0  0  0
   -4.4434   -1.1875    1.3810 O   0  0  0  0  0  0  0  0  0  0  0  0
   -3.2431    0.7114    0.4121 C   0  0  0  0  0  0  0  0  0  0  0  0
   -2.0227    0.2489    1.0552 C   0  0  0  0  0  0  0  0  0  0  0  0
   -1.5761   -0.7350    1.7095 C   0  0  0  0  0  0  0  0  0  0  0  0
    0.0019   -0.4531    2.0784 C   0  0  0  0  0  0  0  0  0  0  0  0
    0.5799   -1.6408    1.3469 C   0  0  0  0  0  0  0  0  0  0  0  0
    1.8696   -1.8079    1.1207 C   0  0  0  0  0  0  0  0  0  0  0  0
    3.0954   -1.9562    0.8862 C   0  0  0  0  0  0  0  0  0  0  0  0
    4.5093   -2.1147    0.6316 C   0  0  0  0  0  0  0  0  0  0  0  0
    4.6726   -1.4410   -0.7568 C   0  0  0  0  0  0  0  0  0  0  0  0
    6.0197   -1.6236   -1.3267 C   0  0  0  0  0  0  0  0  0  0  0  0
    7.0813   -1.0699   -0.7152 C   0  0  0  0  0  0  0  0  0  0  0  0
    8.1560   -0.5273   -0.0818 C   0  0  0  0  0  0  0  0  0  0  0  0
    9.1480   -0.0304    0.5068 C   0  0  0  0  0  0  0  0  0  0  0  0
   10.3180    0.1283   -0.2265 O   0  0  0  0  0  0  0  0  0  0  0  0
   -3.2912    1.8005   -0.4292 C   0  0  0  0  0  0  0  0  0  0  0  0
   -2.1361    2.7683   -0.2930 C   0  0  0  0  0  0  0  0  0  0  0  0
   -4.4021    2.0991   -1.0803 C   0  0  0  0  0  0  0  0  0  0  0  0
   -4.4920    3.1669   -1.9998 O   0  0  0  0  0  0  0  0  0  0  0  0
   -7.4217    2.3055   -0.8885 H   0  0  0  0  0  0  0  0  0  0  0  0
   -6.5569    2.2897   -2.5206 H   0  0  0  0  0  0  0  0  0  0  0  0
   -7.3087    0.7983   -1.8768 H   0  0  0  0  0  0  0  0  0  0  0  0
   -6.6463   -1.5048    0.3045 H   0  0  0  0  0  0  0  0  0  0  0  0
   -7.7308   -0.0902   -0.0000 H   0  0  0  0  0  0  0  0  0  0  0  0
   -6.7494   -0.1940    1.5882 H   0  0  0  0  0  0  0  0  0  0  0  0
   -5.1167   -1.8566    1.5319 H   0  0  0  0  0  0  0  0  0  0  0  0
   -1.2412    1.0728    1.0583 H   0  0  0  0  0  0  0  0  0  0  0  0
   -1.8987   -1.6514    2.0654 H   0  0  0  0  0  0  0  0  0  0  0  0
    0.2338    0.4773    1.4403 H   0  0  0  0  0  0  0  0  0  0  0  0
    0.0126   -0.3735    3.0760 H   0  0  0  0  0  0  0  0  0  0  0  0
    0.1502   -1.2445    0.1882 H   0  0  0  0  0  0  0  0  0  0  0  0
   -0.0693   -2.5499    1.3166 H   0  0  0  0  0  0  0  0  0  0  0  0
    5.1532   -1.5486    1.3740 H   0  0  0  0  0  0  0  0  0  0  0  0
    4.8471   -3.1416    0.6420 H   0  0  0  0  0  0  0  0  0  0  0  0
    4.6506   -0.3258   -0.4251 H   0  0  0  0  0  0  0  0  0  0  0  0
    3.7821   -1.6350   -1.3335 H   0  0  0  0  0  0  0  0  0  0  0  0
    5.9578   -1.2508   -2.4100 H   0  0  0  0  0  0  0  0  0  0  0  0
    6.1793   -2.8051   -1.4330 H   0  0  0  0  0  0  0  0  0  0  0  0
    8.8575    1.0806    0.9333 H   0  0  0  0  0  0  0  0  0  0  0  0
    9.4415   -0.5089    1.5525 H   0  0  0  0  0  0  0  0  0  0  0  0
   10.0964    0.8462   -0.9825 H   0  0  0  0  0  0  0  0  0  0  0  0
   -1.2269    2.5413   -0.7760 H   0  0  0  0  0  0  0  0  0  0  0  0
   -2.5686    3.7981   -0.5230 H   0  0  0  0  0  0  0  0  0  0  0  0
   -1.9220    2.8344    0.8187 H   0  0  0  0  0  0  0  0  0  0  0  0
   -3.6709    3.5812   -2.4395 H   0  0  0  0  0  0  0  0  0  0  0  0
  1  2  1  0
  2  3  2  0
  3  4  1  0
  3  5  1  0
  5  6  1  0
  5  7  2  0
  7  8  1  0
  8  9  2  3
  9 10  1  0
 10 11  1  0
 11 12  1  0
 12 13  3  0
 13 14  1  0
 14 15  1  0
 15 16  1  0
 16 17  1  0
 17 18  3  0
 18 19  1  0
 19 20  1  0
  7 21  1  0
 21 22  1  0
 21 23  2  0
 23 24  1  0
 23  2  1  0
  1 25  1  0
  1 26  1  0
  1 27  1  0
  4 28  1  0
  4 29  1  0
  4 30  1  0
  6 31  1  0
  8 32  1  0
  9 33  1  0
 10 34  1  0
 10 35  1  0
 11 36  1  0
 11 37  1  0
 14 38  1  0
 14 39  1  0
 15 40  1  0
 15 41  1  0
 16 42  1  0
 16 43  1  0
 19 44  1  0
 19 45  1  0
 20 46  1  0
 22 47  1  0
 22 48  1  0
 22 49  1  0
 24 50  1  0
M  END
$$$$
