@<TRIPOS>MOLECULE
*****
 50 50 0 0 0
SMALL
GASTEIGER

@<TRIPOS>ATOM
      1 C          -6.7842    1.7253   -1.6109 C.3     1  UNL1       -0.0359
      2 C          -5.5542    1.2823   -0.8789 C.ar    1  UNL1       -0.0024
      3 C          -5.5844    0.2600   -0.0962 C.ar    1  UNL1       -0.0021
      4 C          -6.7998   -0.4285    0.4297 C.3     1  UNL1       -0.0359
      5 C          -4.3562   -0.1199    0.6389 C.ar    1  UNL1        0.1276
      6 O          -4.4434   -1.1875    1.3810 O.3     1  UNL1       -0.5059
      7 C          -3.2431    0.7114    0.4121 C.ar    1  UNL1        0.0228
      8 C          -2.0227    0.2489    1.0552 C.2     1  UNL1       -0.0546
      9 C          -1.5761   -0.7350    1.7095 C.2     1  UNL1       -0.0824
     10 C           0.0019   -0.4531    2.0784 C.3     1  UNL1       -0.0236
     11 C           0.5799   -1.6408    1.3469 C.3     1  UNL1        0.0126
     12 C           1.8696   -1.8079    1.1207 C.1     1  UNL1       -0.1019
     13 C           3.0954   -1.9562    0.8862 C.1     1  UNL1       -0.1022
     14 C           4.5093   -2.1147    0.6316 C.3     1  UNL1        0.0100
     15 C           4.6726   -1.4410   -0.7568 C.3     1  UNL1       -0.0313
     16 C           6.0197   -1.6236   -1.3267 C.3     1  UNL1        0.0101
     17 C           7.0813   -1.0699   -0.7152 C.1     1  UNL1       -0.0999
     18 C           8.1560   -0.5273   -0.0818 C.1     1  UNL1       -0.0743
     19 C           9.1480   -0.0304    0.5068 C.3     1  UNL1        0.1048
     20 O          10.3180    0.1283   -0.2265 O.3     1  UNL1       -0.3825
     21 C          -3.2912    1.8005   -0.4292 C.ar    1  UNL1        0.0018
     22 C          -2.1361    2.7683   -0.2930 C.3     1  UNL1       -0.0356
     23 C          -4.4021    2.0991   -1.0803 C.ar    1  UNL1        0.1237
     24 O          -4.4920    3.1669   -1.9998 O.3     1  UNL1       -0.5062
     25 H          -7.4217    2.3055   -0.8885 H       1  UNL1        0.0279
     26 H          -6.5569    2.2897   -2.5206 H       1  UNL1        0.0279
     27 H          -7.3087    0.7983   -1.8768 H       1  UNL1        0.0279
     28 H          -6.6463   -1.5048    0.3045 H       1  UNL1        0.0279
     29 H          -7.7308   -0.0902   -0.0000 H       1  UNL1        0.0279
     30 H          -6.7494   -0.1940    1.5882 H       1  UNL1        0.0279
     31 H          -5.1167   -1.8566    1.5319 H       1  UNL1        0.2922
     32 H          -1.2412    1.0728    1.0583 H       1  UNL1        0.0622
     33 H          -1.8987   -1.6514    2.0654 H       1  UNL1        0.0573
     34 H           0.2338    0.4773    1.4403 H       1  UNL1        0.0316
     35 H           0.0126   -0.3735    3.0760 H       1  UNL1        0.0316
     36 H           0.1502   -1.2445    0.1882 H       1  UNL1        0.0400
     37 H          -0.0693   -2.5499    1.3166 H       1  UNL1        0.0400
     38 H           5.1532   -1.5486    1.3740 H       1  UNL1        0.0398
     39 H           4.8471   -3.1416    0.6420 H       1  UNL1        0.0398
     40 H           4.6506   -0.3258   -0.4251 H       1  UNL1        0.0283
     41 H           3.7821   -1.6350   -1.3335 H       1  UNL1        0.0283
     42 H           5.9578   -1.2508   -2.4100 H       1  UNL1        0.0398
     43 H           6.1793   -2.8051   -1.4330 H       1  UNL1        0.0398
     44 H           8.8575    1.0806    0.9333 H       1  UNL1        0.0694
     45 H           9.4415   -0.5089    1.5525 H       1  UNL1        0.0694
     46 H          10.0964    0.8462   -0.9825 H       1  UNL1        0.2107
     47 H          -1.2269    2.5413   -0.7760 H       1  UNL1        0.0279
     48 H          -2.5686    3.7981   -0.5230 H       1  UNL1        0.0279
     49 H          -1.9220    2.8344    0.8187 H       1  UNL1        0.0279
     50 H          -3.6709    3.5812   -2.4395 H       1  UNL1        0.2922
@<TRIPOS>BOND
     1     1     2    1
     2     2     3   ar
     3     3     4    1
     4     3     5   ar
     5     5     6    1
     6     5     7   ar
     7     7     8    1
     8     8     9    2
     9     9    10    1
    10    10    11    1
    11    11    12    1
    12    12    13    3
    13    13    14    1
    14    14    15    1
    15    15    16    1
    16    16    17    1
    17    17    18    3
    18    18    19    1
    19    19    20    1
    20     7    21   ar
    21    21    22    1
    22    21    23   ar
    23    23    24    1
    24    23     2   ar
    25     1    25    1
    26     1    26    1
    27     1    27    1
    28     4    28    1
    29     4    29    1
    30     4    30    1
    31     6    31    1
    32     8    32    1
    33     9    33    1
    34    10    34    1
    35    10    35    1
    36    11    36    1
    37    11    37    1
    38    14    38    1
    39    14    39    1
    40    15    40    1
    41    15    41    1
    42    16    42    1
    43    16    43    1
    44    19    44    1
    45    19    45    1
    46    20    46    1
    47    22    47    1
    48    22    48    1
    49    22    49    1
    50    24    50    1
