
     RDKit          3D

 24 24  0  0  0  0  0  0  0  0999 V2000
    3.3067   -0.0224    0.3571 O   0  0  0  0  0  0  0  0  0  0  0  0
    2.1479    0.7674    0.4891 C   0  0  0  0  0  0  0  0  0  0  0  0
    1.1703    0.3634   -0.6161 C   0  0  2  0  0  0  0  0  0  0  0  0
    0.0014    1.0772   -0.5773 O   0  0  0  0  0  0  0  0  0  0  0  0
   -1.0223    0.2596   -0.1321 C   0  0  1  0  0  0  0  0  0  0  0  0
   -1.0050    0.2694    1.2418 O   0  0  0  0  0  0  0  0  0  0  0  0
   -2.3271    0.7819   -0.6926 C   0  0  0  0  0  0  0  0  0  0  0  0
   -2.5591    2.0678   -0.2757 O   0  0  0  0  0  0  0  0  0  0  0  0
   -0.6529   -1.0751   -0.7023 C   0  0  2  0  0  0  0  0  0  0  0  0
   -1.2245   -2.1396   -0.0180 O   0  0  0  0  0  0  0  0  0  0  0  0
    0.8434   -1.0907   -0.4370 C   0  0  1  0  0  0  0  0  0  0  0  0
    1.5079   -1.9151   -1.3326 O   0  0  0  0  0  0  0  0  0  0  0  0
    4.0592    0.5120   -0.0258 H   0  0  0  0  0  0  0  0  0  0  0  0
    2.3650    1.8516    0.4374 H   0  0  0  0  0  0  0  0  0  0  0  0
    1.7247    0.5230    1.4863 H   0  0  0  0  0  0  0  0  0  0  0  0
    1.6884    0.4817   -1.5889 H   0  0  0  0  0  0  0  0  0  0  0  0
   -1.4856    1.0552    1.6034 H   0  0  0  0  0  0  0  0  0  0  0  0
   -2.3457    0.7395   -1.7807 H   0  0  0  0  0  0  0  0  0  0  0  0
   -3.1286    0.1187   -0.2882 H   0  0  0  0  0  0  0  0  0  0  0  0
   -3.3198    2.1723    0.3588 H   0  0  0  0  0  0  0  0  0  0  0  0
   -0.8645   -1.0729   -1.7794 H   0  0  0  0  0  0  0  0  0  0  0  0
   -2.0853   -1.9403    0.4062 H   0  0  0  0  0  0  0  0  0  0  0  0
    0.9895   -1.3916    0.6134 H   0  0  0  0  0  0  0  0  0  0  0  0
    2.2158   -2.3929   -0.8158 H   0  0  0  0  0  0  0  0  0  0  0  0
  1  2  1  0
  2  3  1  0
  3  4  1  0
  4  5  1  0
  5  6  1  1
  5  7  1  0
  7  8  1  0
  5  9  1  0
  9 10  1  0
  9 11  1  0
 11 12  1  0
 11  3  1  0
  1 13  1  0
  2 14  1  0
  2 15  1  0
  3 16  1  6
  6 17  1  0
  7 18  1  0
  7 19  1  0
  8 20  1  0
  9 21  1  6
 10 22  1  0
 11 23  1  1
 12 24  1  0
M  END
$$$$
