@<TRIPOS>MOLECULE
*****
 24 24 0 0 0
SMALL
GASTEIGER

@<TRIPOS>ATOM
      1 O           3.3067   -0.0224    0.3571 O.3     1  UNL1       -0.3924
      2 C           2.1479    0.7674    0.4891 C.3     1  UNL1        0.0730
      3 C           1.1703    0.3634   -0.6161 C.3     1  UNL1        0.1134
      4 O           0.0014    1.0772   -0.5773 O.3     1  UNL1       -0.3364
      5 C          -1.0223    0.2596   -0.1321 C.3     1  UNL1        0.2205
      6 O          -1.0050    0.2694    1.2418 O.3     1  UNL1       -0.3608
      7 C          -2.3271    0.7819   -0.6926 C.3     1  UNL1        0.1006
      8 O          -2.5591    2.0678   -0.2757 O.3     1  UNL1       -0.3896
      9 C          -0.6529   -1.0751   -0.7023 C.3     1  UNL1        0.1392
     10 O          -1.2245   -2.1396   -0.0180 O.3     1  UNL1       -0.3837
     11 C           0.8434   -1.0907   -0.4370 C.3     1  UNL1        0.1144
     12 O           1.5079   -1.9151   -1.3326 O.3     1  UNL1       -0.3864
     13 H           4.0592    0.5120   -0.0258 H       1  UNL1        0.2095
     14 H           2.3650    1.8516    0.4374 H       1  UNL1        0.0584
     15 H           1.7247    0.5230    1.4863 H       1  UNL1        0.0584
     16 H           1.6884    0.4817   -1.5889 H       1  UNL1        0.0647
     17 H          -1.4856    1.0552    1.6034 H       1  UNL1        0.2129
     18 H          -2.3457    0.7395   -1.7807 H       1  UNL1        0.0612
     19 H          -3.1286    0.1187   -0.2882 H       1  UNL1        0.0612
     20 H          -3.3198    2.1723    0.3588 H       1  UNL1        0.2096
     21 H          -0.8645   -1.0729   -1.7794 H       1  UNL1        0.0675
     22 H          -2.0853   -1.9403    0.4062 H       1  UNL1        0.2101
     23 H           0.9895   -1.3916    0.6134 H       1  UNL1        0.0648
     24 H           2.2158   -2.3929   -0.8158 H       1  UNL1        0.2100
@<TRIPOS>BOND
     1     1     2    1
     2     2     3    1
     3     3     4    1
     4     4     5    1
     5     5     6    1
     6     5     7    1
     7     7     8    1
     8     5     9    1
     9     9    10    1
    10     9    11    1
    11    11    12    1
    12    11     3    1
    13     1    13    1
    14     2    14    1
    15     2    15    1
    16     3    16    1
    17     6    17    1
    18     7    18    1
    19     7    19    1
    20     8    20    1
    21     9    21    1
    22    10    22    1
    23    11    23    1
    24    12    24    1
