@<TRIPOS>MOLECULE
*****
 75 80 0 0 0
SMALL
GASTEIGER

@<TRIPOS>ATOM
      1 C          -2.1897   -4.5488   -5.3159 C.3     1  UNL1       -0.0046
      2 C          -2.0920   -4.5493   -3.8211 C.ar    1  UNL1        0.1280
      3 N          -2.5320   -5.6175   -3.1327 N.ar    1  UNL1       -0.2405
      4 C          -2.4782   -5.6908   -1.8027 C.ar    1  UNL1        0.0329
      5 C          -1.9490   -4.6256   -1.1076 C.ar    1  UNL1       -0.0031
      6 C          -1.4881   -3.5143   -1.7761 C.ar    1  UNL1        0.1331
      7 N          -0.9465   -2.4241   -1.0618 N.am    1  UNL1       -0.2240
      8 C           0.4729   -2.3450   -0.7480 C.2     1  UNL1        0.3219
      9 O           1.2574   -3.3220   -0.7351 O.2     1  UNL1       -0.2512
     10 N           0.7797   -0.9979   -0.4708 N.am    1  UNL1       -0.1920
     11 C           2.0676   -0.4620   -0.1183 C.ar    1  UNL1        0.0455
     12 C           2.1804    0.8917    0.2041 C.ar    1  UNL1       -0.0392
     13 C           3.4001    1.4338    0.5351 C.ar    1  UNL1       -0.0523
     14 C           4.5321    0.6595    0.5566 C.ar    1  UNL1       -0.0175
     15 C           5.7896    1.3091    0.9119 C.ar    1  UNL1       -0.0149
     16 C           6.1312    2.5237    0.3043 C.ar    1  UNL1       -0.0530
     17 C           7.3035    3.1875    0.5888 C.ar    1  UNL1       -0.0472
     18 C           8.1984    2.6703    1.4985 C.ar    1  UNL1        0.0591
     19 C           9.4367    3.3880    1.7878 C.2     1  UNL1        0.3368
     20 O          10.2855    2.9618    2.6073 O.2     1  UNL1       -0.2451
     21 O           9.7301    4.5906    1.1574 O.3     1  UNL1       -0.4771
     22 C           7.8846    1.4919    2.0993 C.ar    1  UNL1       -0.0443
     23 C           6.6957    0.8090    1.8174 C.ar    1  UNL1       -0.0420
     24 C           6.3775   -0.4715    2.4931 C.3     1  UNL1       -0.0391
     25 C           4.4317   -0.6667    0.2425 C.ar    1  UNL1       -0.0523
     26 C           3.2100   -1.2140   -0.0901 C.ar    1  UNL1       -0.0392
     27 C          -0.4288   -0.2680   -0.6138 C.2     1  UNL1        0.2516
     28 O          -0.5689    0.9508   -0.7895 O.2     1  UNL1       -0.2724
     29 C          -1.5843   -1.2396   -0.5185 C.3     1  UNL1        0.1240
     30 C          -2.7452   -0.7699   -1.3299 C.3     1  UNL1       -0.0095
     31 C          -3.9172   -0.5846   -0.3529 C.3     1  UNL1        0.0017
     32 N          -3.4768    0.3677    0.6140 N.3     1  UNL1       -0.2965
     33 C          -4.4906    1.0974    1.2977 C.3     1  UNL1        0.0415
     34 C          -5.3288    1.9561    0.4188 C.ar    1  UNL1        0.0581
     35 N          -5.1435    2.0435   -0.9010 N.ar    1  UNL1       -0.2583
     36 C          -5.9346    2.8382   -1.6293 C.ar    1  UNL1        0.0279
     37 C          -6.9443    3.5770   -1.0564 C.ar    1  UNL1       -0.0433
     38 C          -7.1508    3.5023    0.2915 C.ar    1  UNL1       -0.0557
     39 C          -6.3258    2.6774    1.0297 C.ar    1  UNL1       -0.0279
     40 C          -6.5937    2.6373    2.4937 C.3     1  UNL1       -0.0380
     41 C          -2.5138   -0.1879    1.5110 C.3     1  UNL1        0.0017
     42 C          -1.8676   -1.4508    0.9332 C.3     1  UNL1       -0.0095
     43 N          -1.5821   -3.5255   -3.1347 N.ar    1  UNL1       -0.2172
     44 H          -2.9169   -5.2985   -5.6504 H       1  UNL1        0.0308
     45 H          -1.1681   -4.6948   -5.7368 H       1  UNL1        0.0308
     46 H          -2.5530   -3.5520   -5.6205 H       1  UNL1        0.0308
     47 H          -2.8330   -6.5495   -1.2643 H       1  UNL1        0.0831
     48 H          -1.9054   -4.6848   -0.0311 H       1  UNL1        0.0667
     49 H           1.3260    1.5287    0.2055 H       1  UNL1        0.0636
     50 H           3.4646    2.4974    0.7840 H       1  UNL1        0.0624
     51 H           5.4383    2.9492   -0.4170 H       1  UNL1        0.0624
     52 H           7.5697    4.1303    0.1178 H       1  UNL1        0.0626
     53 H          10.7197    4.7608    0.9238 H       1  UNL1        0.2954
     54 H           8.5666    1.0609    2.8176 H       1  UNL1        0.0628
     55 H           6.8196   -0.3881    3.5236 H       1  UNL1        0.0278
     56 H           6.9297   -1.2756    1.9734 H       1  UNL1        0.0278
     57 H           5.2933   -0.6609    2.5461 H       1  UNL1        0.0278
     58 H           5.2857   -1.3085    0.2430 H       1  UNL1        0.0624
     59 H           3.1334   -2.2737   -0.3428 H       1  UNL1        0.0636
     60 H          -2.5153    0.2732   -1.6845 H       1  UNL1        0.0303
     61 H          -3.0175   -1.4017   -2.1735 H       1  UNL1        0.0303
     62 H          -4.8182   -0.2890   -0.8975 H       1  UNL1        0.0427
     63 H          -4.1397   -1.5823    0.1117 H       1  UNL1        0.0427
     64 H          -3.9904    1.7678    2.0266 H       1  UNL1        0.0491
     65 H          -5.1779    0.4386    1.8796 H       1  UNL1        0.0491
     66 H          -5.8213    2.9421   -2.7115 H       1  UNL1        0.0829
     67 H          -7.5886    4.2267   -1.6624 H       1  UNL1        0.0633
     68 H          -7.9334    4.0727    0.7476 H       1  UNL1        0.0621
     69 H          -7.6939    2.7153    2.6489 H       1  UNL1        0.0278
     70 H          -6.1474    3.5640    2.9546 H       1  UNL1        0.0278
     71 H          -6.2617    1.7309    2.9944 H       1  UNL1        0.0278
     72 H          -1.6874    0.5354    1.6723 H       1  UNL1        0.0427
     73 H          -2.9359   -0.4063    2.5202 H       1  UNL1        0.0427
     74 H          -2.4493   -2.3526    1.1636 H       1  UNL1        0.0303
     75 H          -0.8844   -1.5642    1.4507 H       1  UNL1        0.0303
@<TRIPOS>BOND
     1     1     2    1
     2     2     3   ar
     3     3     4   ar
     4     4     5   ar
     5     5     6   ar
     6     6     7    1
     7     7     8   am
     8     8     9    2
     9     8    10   am
    10    10    11    1
    11    11    12   ar
    12    12    13   ar
    13    13    14   ar
    14    14    15    1
    15    15    16   ar
    16    16    17   ar
    17    17    18   ar
    18    18    19    1
    19    19    20    2
    20    19    21    1
    21    18    22   ar
    22    22    23   ar
    23    23    24    1
    24    14    25   ar
    25    25    26   ar
    26    10    27   am
    27    27    28    2
    28    27    29    1
    29    29    30    1
    30    30    31    1
    31    31    32    1
    32    32    33    1
    33    33    34    1
    34    34    35   ar
    35    35    36   ar
    36    36    37   ar
    37    37    38   ar
    38    38    39   ar
    39    39    40    1
    40    32    41    1
    41    41    42    1
    42     6    43   ar
    43    43     2   ar
    44    29     7    1
    45    39    34   ar
    46    26    11   ar
    47    42    29    1
    48    23    15   ar
    49     1    44    1
    50     1    45    1
    51     1    46    1
    52     4    47    1
    53     5    48    1
    54    12    49    1
    55    13    50    1
    56    16    51    1
    57    17    52    1
    58    21    53    1
    59    22    54    1
    60    24    55    1
    61    24    56    1
    62    24    57    1
    63    25    58    1
    64    26    59    1
    65    30    60    1
    66    30    61    1
    67    31    62    1
    68    31    63    1
    69    33    64    1
    70    33    65    1
    71    36    66    1
    72    37    67    1
    73    38    68    1
    74    40    69    1
    75    40    70    1
    76    40    71    1
    77    41    72    1
    78    41    73    1
    79    42    74    1
    80    42    75    1
