@<TRIPOS>MOLECULE
*****
 47 50 0 0 0
SMALL
GASTEIGER

@<TRIPOS>ATOM
      1 C           6.5814   -2.6894   -2.4724 C.1     1  UNL1       -0.1158
      2 C           7.1047   -1.6799   -2.0532 C.1     1  UNL1       -0.0647
      3 C           7.7329   -0.4547   -1.5350 C.3     1  UNL1        0.1513
      4 O           6.8635    0.6442   -1.7298 O.3     1  UNL1       -0.4624
      5 C           5.6071    0.5802   -1.1131 C.ar    1  UNL1        0.2344
      6 C           4.7047    1.6079   -1.2539 C.ar    1  UNL1        0.0899
      7 N           3.4958    1.5444   -0.6594 N.ar    1  UNL1       -0.2435
      8 C           3.1151    0.4938    0.0881 C.ar    1  UNL1        0.1439
      9 C           1.8033    0.4310    0.7303 C.2     1  UNL1        0.2681
     10 O           1.5085   -0.5734    1.4091 O.2     1  UNL1       -0.2681
     11 N           0.8700    1.4683    0.6034 N.am    1  UNL1       -0.2801
     12 C          -0.4159    1.4657    1.2003 C.ar    1  UNL1        0.0369
     13 C          -0.6354    1.9771    2.4703 C.ar    1  UNL1       -0.0023
     14 C          -1.9009    1.9582    3.0181 C.ar    1  UNL1        0.1605
     15 F          -2.1501    2.4496    4.2557 F       1  UNL1       -0.2024
     16 C          -2.9219    1.4189    2.2638 C.ar    1  UNL1        0.1642
     17 F          -4.1457    1.4129    2.8100 F       1  UNL1       -0.2021
     18 C          -2.7535    0.8992    0.9992 C.ar    1  UNL1        0.0256
     19 C          -3.8229    0.3132    0.1730 C.3     1  UNL1        0.1604
     20 C          -4.9130    1.3042   -0.1661 C.3     1  UNL1        0.2686
     21 F          -5.8408    0.6160   -0.9397 F       1  UNL1       -0.2062
     22 F          -4.4331    2.3305   -0.9708 F       1  UNL1       -0.2062
     23 N          -3.2420   -0.1097   -1.0849 N.2     1  UNL1       -0.2194
     24 C          -2.8433   -1.2815   -1.3669 C.2     1  UNL1        0.2764
     25 N          -2.2786   -1.5921   -2.6565 N.pl3   1  UNL1       -0.3134
     26 O          -2.9700   -2.2585   -0.3873 O.2     1  UNL1       -0.4622
     27 C          -3.8836   -2.1495    0.6635 C.3     1  UNL1        0.1091
     28 C          -5.3057   -1.8201    0.2206 C.3     1  UNL1       -0.0064
     29 C          -4.4408   -0.8349    0.9244 C.3     1  UNL1        0.0344
     30 C          -1.4727    0.9377    0.4887 C.ar    1  UNL1       -0.0319
     31 C           4.0228   -0.5340    0.2265 C.ar    1  UNL1        0.0619
     32 N           5.2311   -0.4794   -0.3628 N.ar    1  UNL1       -0.2177
     33 H           6.1209   -3.5620   -2.8183 H       1  UNL1        0.1229
     34 H           8.7144   -0.3184   -1.9865 H       1  UNL1        0.0837
     35 H           7.8619   -0.5661   -0.4217 H       1  UNL1        0.0837
     36 H           4.9975    2.4735   -1.8602 H       1  UNL1        0.0884
     37 H           1.1602    2.3046    0.0182 H       1  UNL1        0.1552
     38 H           0.1982    2.3897    3.0226 H       1  UNL1        0.0666
     39 H          -5.4507    1.6716    0.7119 H       1  UNL1        0.1047
     40 H          -2.3821   -0.8986   -3.4286 H       1  UNL1        0.1466
     41 H          -1.7776   -2.4844   -2.8232 H       1  UNL1        0.1466
     42 H          -3.7831   -2.9308    1.4522 H       1  UNL1        0.0737
     43 H          -5.5336   -1.7035   -0.8447 H       1  UNL1        0.0306
     44 H          -6.1371   -2.3151    0.7868 H       1  UNL1        0.0306
     45 H          -4.7654   -0.5983    1.9552 H       1  UNL1        0.0366
     46 H          -1.2382    0.5511   -0.5029 H       1  UNL1        0.0640
     47 H           3.7437   -1.4093    0.8322 H       1  UNL1        0.0854
@<TRIPOS>BOND
     1     1     2    3
     2     2     3    1
     3     3     4    1
     4     4     5    1
     5     5     6   ar
     6     6     7   ar
     7     7     8   ar
     8     8     9    1
     9     9    10    2
    10     9    11   am
    11    11    12    1
    12    12    13   ar
    13    13    14   ar
    14    14    15    1
    15    14    16   ar
    16    16    17    1
    17    16    18   ar
    18    18    19    1
    19    19    20    1
    20    20    21    1
    21    20    22    1
    22    19    23    1
    23    23    24    2
    24    24    25    1
    25    24    26    1
    26    26    27    1
    27    27    28    1
    28    28    29    1
    29    18    30   ar
    30     8    31   ar
    31    31    32   ar
    32    32     5   ar
    33    30    12   ar
    34    29    19    1
    35    29    27    1
    36     1    33    1
    37     3    34    1
    38     3    35    1
    39     6    36    1
    40    11    37    1
    41    13    38    1
    42    20    39    1
    43    25    40    1
    44    25    41    1
    45    27    42    1
    46    28    43    1
    47    28    44    1
    48    29    45    1
    49    30    46    1
    50    31    47    1
