@<TRIPOS>MOLECULE
*****
 68 72 0 0 0
SMALL
GASTEIGER

@<TRIPOS>ATOM
      1 C          -4.8334   -6.6842   -0.1578 C.3     1  UNL1        0.0788
      2 O          -4.0436   -5.7945   -0.9243 O.3     1  UNL1       -0.4951
      3 C          -3.7698   -4.5106   -0.5237 C.ar    1  UNL1        0.1207
      4 C          -4.2617   -4.0283    0.6646 C.ar    1  UNL1       -0.0194
      5 C          -3.9951   -2.7456    1.0786 C.ar    1  UNL1       -0.0506
      6 C          -3.2070   -1.8995    0.2843 C.ar    1  UNL1       -0.0170
      7 C          -2.9412   -0.6131    0.6948 C.ar    1  UNL1       -0.0448
      8 C          -2.1869    0.2541   -0.0311 C.ar    1  UNL1        0.0007
      9 C          -1.8102    1.6070    0.3074 C.ar    1  UNL1        0.0702
     10 C          -2.1017    2.7094   -0.5171 C.ar    1  UNL1       -0.0084
     11 C          -1.5877    3.8533    0.0447 C.ar    1  UNL1        0.0934
     12 C          -1.6838    5.2047   -0.5127 C.ar    1  UNL1        0.0049
     13 C          -1.1250    6.2932    0.1378 C.ar    1  UNL1       -0.0341
     14 C          -1.2090    7.5616   -0.3791 C.ar    1  UNL1        0.0430
     15 CL         -0.4904    8.9483    0.4601 Cl      1  UNL1       -0.0835
     16 C          -1.8679    7.7705   -1.5832 C.ar    1  UNL1       -0.0250
     17 C          -2.4276    6.6822   -2.2329 C.ar    1  UNL1        0.0430
     18 CL         -3.2519    6.9958   -3.7552 Cl      1  UNL1       -0.0835
     19 C          -2.3309    5.4284   -1.6995 C.ar    1  UNL1       -0.0341
     20 N          -1.0023    3.4538    1.1743 N.ar    1  UNL1       -0.1701
     21 N          -1.1259    2.1181    1.3439 N.ar    1  UNL1       -0.2560
     22 C          -0.5299    1.4174    2.4798 C.3     1  UNL1        0.0754
     23 C          -1.4701    0.7004    3.3620 C.3     1  UNL1       -0.0384
     24 C           0.6360    0.6023    2.0091 C.ar    1  UNL1       -0.0233
     25 C           1.8732    1.2390    1.9426 C.ar    1  UNL1       -0.0558
     26 C           3.0079    0.5644    1.5155 C.ar    1  UNL1       -0.0493
     27 C           2.9578   -0.7580    1.1416 C.ar    1  UNL1        0.0367
     28 C           4.1403   -1.4988    0.6886 C.2     1  UNL1        0.2441
     29 O           3.9709   -2.6842    0.2532 O.2     1  UNL1       -0.2702
     30 N           5.4523   -0.9807    0.7065 N.am    1  UNL1       -0.3108
     31 C           6.6020   -1.7191    0.2517 C.3     1  UNL1        0.0220
     32 C           6.4325   -2.0296   -1.2193 C.3     1  UNL1        0.0603
     33 C           7.6136   -2.7943   -1.7062 C.2     1  UNL1        0.3062
     34 O           8.5099   -3.0886   -0.8837 O.2     1  UNL1       -0.2510
     35 O           7.7679   -3.1936   -3.0194 O.3     1  UNL1       -0.4806
     36 C           1.7329   -1.3785    1.2111 C.ar    1  UNL1       -0.0493
     37 C           0.5808   -0.7067    1.6410 C.ar    1  UNL1       -0.0558
     38 C          -1.6827   -0.2330   -1.2467 C.ar    1  UNL1       -0.0520
     39 C          -1.9454   -1.5189   -1.6625 C.ar    1  UNL1       -0.0533
     40 C          -2.7159   -2.3682   -0.8925 C.ar    1  UNL1       -0.0144
     41 C          -2.9974   -3.6595   -1.2872 C.ar    1  UNL1       -0.0122
     42 H          -5.8595   -6.2867   -0.1842 H       1  UNL1        0.0660
     43 H          -4.8083   -7.6606   -0.7017 H       1  UNL1        0.0660
     44 H          -4.4322   -6.8354    0.8595 H       1  UNL1        0.0660
     45 H          -4.8632   -4.6746    1.2720 H       1  UNL1        0.0654
     46 H          -4.3973   -2.3901    2.0177 H       1  UNL1        0.0625
     47 H          -3.3769   -0.2960    1.6196 H       1  UNL1        0.0630
     48 H          -2.6532    2.6054   -1.4453 H       1  UNL1        0.0661
     49 H          -0.6098    6.0954    1.0901 H       1  UNL1        0.0639
     50 H          -1.9259    8.7642   -1.9730 H       1  UNL1        0.0647
     51 H          -2.7847    4.5914   -2.2408 H       1  UNL1        0.0639
     52 H          -0.0889    2.2512    3.1350 H       1  UNL1        0.0592
     53 H          -1.2446    0.9138    4.4503 H       1  UNL1        0.0253
     54 H          -1.5437   -0.3861    3.2195 H       1  UNL1        0.0253
     55 H          -2.4796    1.1953    3.2256 H       1  UNL1        0.0253
     56 H           1.9174    2.2829    2.2352 H       1  UNL1        0.0621
     57 H           3.9623    1.0938    1.4740 H       1  UNL1        0.0625
     58 H           5.6142    0.0071    1.0730 H       1  UNL1        0.1490
     59 H           6.6429   -2.6527    0.8617 H       1  UNL1        0.0467
     60 H           7.5261   -1.1375    0.3866 H       1  UNL1        0.0467
     61 H           5.4906   -2.5210   -1.4656 H       1  UNL1        0.0393
     62 H           6.4173   -1.0256   -1.7421 H       1  UNL1        0.0393
     63 H           8.7063   -3.2920   -3.4005 H       1  UNL1        0.2951
     64 H           1.6689   -2.4047    0.9252 H       1  UNL1        0.0625
     65 H          -0.3374   -1.2259    1.6846 H       1  UNL1        0.0621
     66 H          -1.0699    0.3855   -1.8967 H       1  UNL1        0.0624
     67 H          -1.5700   -1.9293   -2.5967 H       1  UNL1        0.0624
     68 H          -2.5841   -3.9844   -2.2336 H       1  UNL1        0.0660
@<TRIPOS>BOND
     1     1     2    1
     2     2     3    1
     3     3     4   ar
     4     4     5   ar
     5     5     6   ar
     6     6     7   ar
     7     7     8   ar
     8     8     9    1
     9     9    10   ar
    10    10    11   ar
    11    11    12    1
    12    12    13   ar
    13    13    14   ar
    14    14    15    1
    15    14    16   ar
    16    16    17   ar
    17    17    18    1
    18    17    19   ar
    19    11    20   ar
    20    20    21   ar
    21    21    22    1
    22    22    23    1
    23    22    24    1
    24    24    25   ar
    25    25    26   ar
    26    26    27   ar
    27    27    28    1
    28    28    29    2
    29    28    30   am
    30    30    31    1
    31    31    32    1
    32    32    33    1
    33    33    34    2
    34    33    35    1
    35    27    36   ar
    36    36    37   ar
    37     8    38   ar
    38    38    39   ar
    39    39    40   ar
    40    40    41   ar
    41    41     3   ar
    42    40     6   ar
    43    21     9   ar
    44    37    24   ar
    45    19    12   ar
    46     1    42    1
    47     1    43    1
    48     1    44    1
    49     4    45    1
    50     5    46    1
    51     7    47    1
    52    10    48    1
    53    13    49    1
    54    16    50    1
    55    19    51    1
    56    22    52    1
    57    23    53    1
    58    23    54    1
    59    23    55    1
    60    25    56    1
    61    26    57    1
    62    30    58    1
    63    31    59    1
    64    31    60    1
    65    32    61    1
    66    32    62    1
    67    35    63    1
    68    36    64    1
    69    37    65    1
    70    38    66    1
    71    39    67    1
    72    41    68    1
