
     RDKit          3D

 30 32  0  0  0  0  0  0  0  0999 V2000
    6.0124   -0.3839   -0.9939 O   0  0  0  0  0  0  0  0  0  0  0  0
    4.6193   -0.3558   -0.8983 C   0  0  0  0  0  0  0  0  0  0  0  0
    3.9897    0.7844   -0.3965 C   0  0  0  0  0  0  0  0  0  0  0  0
    2.6118    0.7353   -0.3332 C   0  0  0  0  0  0  0  0  0  0  0  0
    1.8167   -0.3246   -0.7163 C   0  0  0  0  0  0  0  0  0  0  0  0
    2.4931   -1.4306   -1.2071 C   0  0  0  0  0  0  0  0  0  0  0  0
    3.8775   -1.4691   -1.3064 C   0  0  0  0  0  0  0  0  0  0  0  0
    0.3637   -0.2700   -0.6063 C   0  0  0  0  0  0  0  0  0  0  0  0
   -0.4289   -0.7075   -1.6489 C   0  0  0  0  0  0  0  0  0  0  0  0
   -1.7442   -0.7108   -1.6735 O   0  0  0  0  0  0  0  0  0  0  0  0
   -2.3788   -0.2594   -0.6166 C   0  0  0  0  0  0  0  0  0  0  0  0
   -1.7001    0.2091    0.4978 C   0  0  0  0  0  0  0  0  0  0  0  0
   -2.3692    0.6876    1.6182 C   0  0  0  0  0  0  0  0  0  0  0  0
   -1.6831    1.1543    2.7283 O   0  0  0  0  0  0  0  0  0  0  0  0
   -3.7436    0.6640    1.5448 C   0  0  0  0  0  0  0  0  0  0  0  0
   -4.4834    0.2132    0.4714 C   0  0  0  0  0  0  0  0  0  0  0  0
   -5.8767    0.2454    0.5296 O   0  0  0  0  0  0  0  0  0  0  0  0
   -3.7574   -0.2477   -0.6068 C   0  0  0  0  0  0  0  0  0  0  0  0
   -0.3103    0.2023    0.4996 C   0  0  0  0  0  0  0  0  0  0  0  0
    0.3490    0.6121    1.4751 O   0  0  0  0  0  0  0  0  0  0  0  0
    6.5121    0.1142   -0.2671 H   0  0  0  0  0  0  0  0  0  0  0  0
    4.5284    1.6500   -0.0769 H   0  0  0  0  0  0  0  0  0  0  0  0
    2.1131    1.6166    0.0554 H   0  0  0  0  0  0  0  0  0  0  0  0
    1.9193   -2.3082   -1.5294 H   0  0  0  0  0  0  0  0  0  0  0  0
    4.3912   -2.3432   -1.6929 H   0  0  0  0  0  0  0  0  0  0  0  0
    0.0808   -1.0831   -2.5284 H   0  0  0  0  0  0  0  0  0  0  0  0
   -2.2408    1.4608    3.5154 H   0  0  0  0  0  0  0  0  0  0  0  0
   -4.3055    1.0307    2.4029 H   0  0  0  0  0  0  0  0  0  0  0  0
   -6.3486    1.1268    0.5208 H   0  0  0  0  0  0  0  0  0  0  0  0
   -4.3076   -0.6128   -1.4753 H   0  0  0  0  0  0  0  0  0  0  0  0
  1  2  1  0
  2  3  2  0
  3  4  1  0
  4  5  2  0
  5  6  1  0
  6  7  2  0
  5  8  1  0
  8  9  2  0
  9 10  1  0
 10 11  1  0
 11 12  2  0
 12 13  1  0
 13 14  1  0
 13 15  2  0
 15 16  1  0
 16 17  1  0
 16 18  2  0
 12 19  1  0
 19 20  2  0
  7  2  1  0
 19  8  1  0
 18 11  1  0
  1 21  1  0
  3 22  1  0
  4 23  1  0
  6 24  1  0
  7 25  1  0
  9 26  1  0
 14 27  1  0
 15 28  1  0
 17 29  1  0
 18 30  1  0
M  END
$$$$
