
     RDKit          3D

 50 52  0  0  0  0  0  0  0  0999 V2000
   -1.9471    0.0158    2.4586 C   0  0  0  0  0  0  0  0  0  0  0  0
   -0.9125   -0.1283    1.3781 C   0  0  0  0  0  0  0  0  0  0  0  0
    0.3841   -0.4251    1.6034 N   0  0  0  0  0  0  0  0  0  0  0  0
    0.9900   -0.4667    0.4128 C   0  0  0  0  0  0  0  0  0  0  0  0
    2.3785   -0.7152    0.0728 C   0  0  0  0  0  0  0  0  0  0  0  0
    3.3787   -0.0532    0.6112 C   0  0  0  0  0  0  0  0  0  0  0  0
    3.3274    1.0098    1.5972 C   0  0  0  0  0  0  0  0  0  0  0  0
    2.2805    1.4906    2.0886 O   0  0  0  0  0  0  0  0  0  0  0  0
    4.6847    1.3886    1.8837 N   0  0  0  0  0  0  0  0  0  0  0  0
    5.5543    0.5783    1.0913 C   0  0  0  0  0  0  0  0  0  0  0  0
    6.9454    0.5664    1.0133 C   0  0  0  0  0  0  0  0  0  0  0  0
    7.5452   -0.3265    0.1570 C   0  0  0  0  0  0  0  0  0  0  0  0
    6.7896   -1.1880   -0.6047 C   0  0  0  0  0  0  0  0  0  0  0  0
    7.3784   -2.0709   -1.4509 F   0  0  0  0  0  0  0  0  0  0  0  0
    5.4325   -1.1860   -0.5373 C   0  0  0  0  0  0  0  0  0  0  0  0
    4.8104   -0.2898    0.3229 C   0  0  0  0  0  0  0  0  0  0  0  0
    0.0469   -0.1901   -0.5808 C   0  0  0  0  0  0  0  0  0  0  0  0
    0.2848   -0.1325   -2.0612 C   0  0  0  0  0  0  0  0  0  0  0  0
   -1.1682    0.0253    0.0494 C   0  0  0  0  0  0  0  0  0  0  0  0
   -2.3884    0.3393   -0.6213 N   0  0  0  0  0  0  0  0  0  0  0  0
   -3.2857   -0.6575   -1.0834 C   0  0  0  0  0  0  0  0  0  0  0  0
   -3.0142   -1.8891   -0.9055 O   0  0  0  0  0  0  0  0  0  0  0  0
   -4.5615   -0.2932   -1.7851 C   0  0  1  0  0  0  0  0  0  0  0  0
   -5.7187   -0.7758   -0.9395 C   0  0  0  0  0  0  0  0  0  0  0  0
   -5.8070    0.3293    0.0955 C   0  0  0  0  0  0  0  0  0  0  0  0
   -5.3350    1.5511   -0.6570 C   0  0  0  0  0  0  0  0  0  0  0  0
   -4.6823    1.1224   -1.8546 N   0  0  0  0  0  0  0  0  0  0  0  0
    0.6874    0.0000    0.0000 Cl  0  0  0  0  0  0  0  0  0  0  0  0
   -2.5199   -0.9279    2.5781 H   0  0  0  0  0  0  0  0  0  0  0  0
   -2.6130    0.8752    2.1826 H   0  0  0  0  0  0  0  0  0  0  0  0
   -1.4780    0.2873    3.4296 H   0  0  0  0  0  0  0  0  0  0  0  0
    0.7941   -0.6036    2.5631 H   0  0  0  0  0  0  0  0  0  0  0  0
    2.6597   -1.4789   -0.6601 H   0  0  0  0  0  0  0  0  0  0  0  0
    4.9428    2.1358    2.5639 H   0  0  0  0  0  0  0  0  0  0  0  0
    7.5151    1.2454    1.6141 H   0  0  0  0  0  0  0  0  0  0  0  0
    8.6418   -0.3795    0.0553 H   0  0  0  0  0  0  0  0  0  0  0  0
    4.7853   -1.8360   -1.1082 H   0  0  0  0  0  0  0  0  0  0  0  0
    0.8334    0.7850   -2.3424 H   0  0  0  0  0  0  0  0  0  0  0  0
    0.9506   -0.9971   -2.3071 H   0  0  0  0  0  0  0  0  0  0  0  0
   -0.6608   -0.2775   -2.5902 H   0  0  0  0  0  0  0  0  0  0  0  0
   -2.6226    1.3391   -0.7759 H   0  0  0  0  0  0  0  0  0  0  0  0
   -4.6093   -0.7896   -2.7837 H   0  0  0  0  0  0  0  0  0  0  0  0
   -5.3611   -1.7373   -0.4662 H   0  0  0  0  0  0  0  0  0  0  0  0
   -6.6532   -0.9144   -1.4945 H   0  0  0  0  0  0  0  0  0  0  0  0
   -6.8034    0.4635    0.5161 H   0  0  0  0  0  0  0  0  0  0  0  0
   -5.0949    0.0618    0.9189 H   0  0  0  0  0  0  0  0  0  0  0  0
   -6.2516    2.1288   -0.9398 H   0  0  0  0  0  0  0  0  0  0  0  0
   -4.7165    2.1986   -0.0113 H   0  0  0  0  0  0  0  0  0  0  0  0
   -5.1292    1.5047   -2.6966 H   0  0  0  0  0  0  0  0  0  0  0  0
   -0.6874    0.0000    0.0000 H   0  0  0  0  0  0  0  0  0  0  0  0
  1  2  1  0
  2  3  1  0
  3  4  1  0
  4  5  1  0
  5  6  2  0
  6  7  1  0
  7  8  2  0
  7  9  1  0
  9 10  1  0
 10 11  2  0
 11 12  1  0
 12 13  2  0
 13 14  1  0
 13 15  1  0
 15 16  2  0
  4 17  2  0
 17 18  1  0
 17 19  1  0
 19 20  1  0
 20 21  1  0
 21 22  2  0
 21 23  1  0
 23 24  1  0
 24 25  1  0
 25 26  1  0
 26 27  1  0
 19  2  2  0
 27 23  1  0
 16  6  1  0
 16 10  1  0
  1 29  1  0
  1 30  1  0
  1 31  1  0
  3 32  1  0
  5 33  1  0
  9 34  1  0
 11 35  1  0
 12 36  1  0
 15 37  1  0
 18 38  1  0
 18 39  1  0
 18 40  1  0
 20 41  1  0
 23 42  1  6
 24 43  1  0
 24 44  1  0
 25 45  1  0
 25 46  1  0
 26 47  1  0
 26 48  1  0
 27 49  1  0
 28 50  1  0
M  END
$$$$
