@<TRIPOS>MOLECULE
*****
 50 52 0 0 0
SMALL
GASTEIGER

@<TRIPOS>ATOM
      1 C          -1.9471    0.0158    2.4586 C.3     1  UNL1       -0.0226
      2 C          -0.9125   -0.1283    1.3781 C.ar    1  UNL1        0.0350
      3 N           0.3841   -0.4251    1.6034 N.ar    1  UNL1       -0.3569
      4 C           0.9900   -0.4667    0.4128 C.ar    1  UNL1        0.0449
      5 C           2.3785   -0.7152    0.0728 C.2     1  UNL1       -0.0253
      6 C           3.3787   -0.0532    0.6112 C.2     1  UNL1        0.0479
      7 C           3.3274    1.0098    1.5972 C.2     1  UNL1        0.2490
      8 O           2.2805    1.4906    2.0886 O.2     1  UNL1       -0.2698
      9 N           4.6847    1.3886    1.8837 N.am    1  UNL1       -0.2809
     10 C           5.5543    0.5783    1.0913 C.ar    1  UNL1        0.0417
     11 C           6.9454    0.5664    1.0133 C.ar    1  UNL1       -0.0372
     12 C           7.5452   -0.3265    0.1570 C.ar    1  UNL1       -0.0247
     13 C           6.7896   -1.1880   -0.6047 C.ar    1  UNL1        0.1241
     14 F           7.3784   -2.0709   -1.4509 F       1  UNL1       -0.2055
     15 C           5.4325   -1.1860   -0.5373 C.ar    1  UNL1       -0.0168
     16 C           4.8104   -0.2898    0.3229 C.ar    1  UNL1        0.0111
     17 C           0.0469   -0.1901   -0.5808 C.ar    1  UNL1       -0.0043
     18 C           0.2848   -0.1325   -2.0612 C.3     1  UNL1       -0.0359
     19 C          -1.1682    0.0253    0.0494 C.ar    1  UNL1        0.0574
     20 N          -2.3884    0.3393   -0.6213 N.am    1  UNL1       -0.2825
     21 C          -3.2857   -0.6575   -1.0834 C.2     1  UNL1        0.2343
     22 O          -3.0142   -1.8891   -0.9055 O.2     1  UNL1       -0.2738
     23 C          -4.5615   -0.2932   -1.7851 C.3     1  UNL1        0.0851
     24 C          -5.7187   -0.7758   -0.9395 C.3     1  UNL1       -0.0279
     25 C          -5.8070    0.3293    0.0955 C.3     1  UNL1       -0.0386
     26 C          -5.3350    1.5511   -0.6570 C.3     1  UNL1       -0.0034
     27 N          -4.6823    1.1224   -1.8546 N.3     1  UNL1       -0.3056
     28 CL          0.6874    0.0000    0.0000 Cl      2  UNL2       -0.1454
     29 H          -2.5199   -0.9279    2.5781 H       1  UNL1        0.0292
     30 H          -2.6130    0.8752    2.1826 H       1  UNL1        0.0292
     31 H          -1.4780    0.2873    3.4296 H       1  UNL1        0.0292
     32 H           0.7941   -0.6036    2.5631 H       1  UNL1        0.1656
     33 H           2.6597   -1.4789   -0.6601 H       1  UNL1        0.0646
     34 H           4.9428    2.1358    2.5639 H       1  UNL1        0.1552
     35 H           7.5151    1.2454    1.6141 H       1  UNL1        0.0637
     36 H           8.6418   -0.3795    0.0553 H       1  UNL1        0.0647
     37 H           4.7853   -1.8360   -1.1082 H       1  UNL1        0.0653
     38 H           0.8334    0.7850   -2.3424 H       1  UNL1        0.0279
     39 H           0.9506   -0.9971   -2.3071 H       1  UNL1        0.0279
     40 H          -0.6608   -0.2775   -2.5902 H       1  UNL1        0.0279
     41 H          -2.6226    1.3391   -0.7759 H       1  UNL1        0.1549
     42 H          -4.6093   -0.7896   -2.7837 H       1  UNL1        0.0556
     43 H          -5.3611   -1.7373   -0.4662 H       1  UNL1        0.0285
     44 H          -6.6532   -0.9144   -1.4945 H       1  UNL1        0.0285
     45 H          -6.8034    0.4635    0.5161 H       1  UNL1        0.0278
     46 H          -5.0949    0.0618    0.9189 H       1  UNL1        0.0278
     47 H          -6.2516    2.1288   -0.9398 H       1  UNL1        0.0424
     48 H          -4.7165    2.1986   -0.0113 H       1  UNL1        0.0424
     49 H          -5.1292    1.5047   -2.6966 H       1  UNL1        0.1226
     50 H          -0.6874    0.0000    0.0000 H       1  UNL1        0.1454
@<TRIPOS>BOND
     1     1     2    1
     2     2     3   ar
     3     3     4   ar
     4     4     5    1
     5     5     6    2
     6     6     7    1
     7     7     8    2
     8     7     9   am
     9     9    10    1
    10    10    11   ar
    11    11    12   ar
    12    12    13   ar
    13    13    14    1
    14    13    15   ar
    15    15    16   ar
    16     4    17   ar
    17    17    18    1
    18    17    19   ar
    19    19    20    1
    20    20    21   am
    21    21    22    2
    22    21    23    1
    23    23    24    1
    24    24    25    1
    25    25    26    1
    26    26    27    1
    27    19     2   ar
    28    27    23    1
    29    16     6    1
    30    16    10   ar
    31     1    29    1
    32     1    30    1
    33     1    31    1
    34     3    32    1
    35     5    33    1
    36     9    34    1
    37    11    35    1
    38    12    36    1
    39    15    37    1
    40    18    38    1
    41    18    39    1
    42    18    40    1
    43    20    41    1
    44    23    42    1
    45    24    43    1
    46    24    44    1
    47    25    45    1
    48    25    46    1
    49    26    47    1
    50    26    48    1
    51    27    49    1
    52    28    50    1
