
     RDKit          3D

126133  0  0  0  0  0  0  0  0999 V2000
  -11.4422   -1.1530    1.8498 C   0  0  0  0  0  0  0  0  0  0  0  0
  -10.7552   -0.1471    0.9725 C   0  0  0  0  0  0  0  0  0  0  0  0
  -11.4222    0.5661    0.0750 C   0  0  0  0  0  0  0  0  0  0  0  0
  -10.5972    1.0198   -1.0921 C   0  0  0  0  0  0  0  0  0  0  0  0
   -9.9581    2.3400   -0.8235 C   0  0  0  0  0  0  0  0  0  0  0  0
   -8.4833    2.3054   -0.8722 C   0  0  0  0  0  0  0  0  0  0  0  0
   -7.8075    3.4146   -1.2089 N   0  0  0  0  0  0  0  0  0  0  0  0
   -6.4679    3.4737   -1.3016 C   0  0  0  0  0  0  0  0  0  0  0  0
   -5.8404    4.5202   -1.6181 O   0  0  0  0  0  0  0  0  0  0  0  0
   -5.7222    2.3419   -1.0414 C   0  0  0  0  0  0  0  0  0  0  0  0
   -6.4119    1.1740   -0.6883 C   0  0  0  0  0  0  0  0  0  0  0  0
   -7.7671    1.1532   -0.6032 C   0  0  0  0  0  0  0  0  0  0  0  0
   -8.5418   -0.0472   -0.2296 C   0  0  1  0  0  0  0  0  0  0  0  0
   -9.2819    0.1018    1.0776 C   0  0  0  0  0  0  0  0  0  0  0  0
   -9.6326   -0.1217   -1.3299 C   0  0  2  0  0  0  0  0  0  0  0  0
   -9.0250   -0.0935   -2.6930 C   0  0  0  0  0  0  0  0  0  0  0  0
   -8.0230   -1.2258   -2.7619 C   0  0  0  0  0  0  0  0  0  0  0  0
   -8.0931   -2.0921   -1.5158 C   0  0  0  0  0  0  0  0  0  0  0  0
   -7.8272   -1.2887   -0.3213 N   0  0  0  0  0  0  0  0  0  0  0  0
   -6.9595   -1.7143    0.7250 C   0  0  0  0  0  0  0  0  0  0  0  0
   -6.7242   -0.9438    1.6856 O   0  0  0  0  0  0  0  0  0  0  0  0
   -6.3253   -3.0365    0.7422 C   0  0  0  0  0  0  0  0  0  0  0  0
   -5.2180   -3.3075    1.6773 C   0  0  0  0  0  0  0  0  0  0  0  0
   -3.9702   -2.7006    1.5350 N   0  0  0  0  0  0  0  0  0  0  0  0
   -3.2690   -3.1728    0.3281 C   0  0  0  0  0  0  0  0  0  0  0  0
   -3.8405   -1.3325    1.6818 C   0  0  0  0  0  0  0  0  0  0  0  0
   -2.3372   -0.8929    1.5970 C   0  0  0  0  0  0  0  0  0  0  0  0
   -1.6083   -1.5582    2.6760 C   0  0  0  0  0  0  0  0  0  0  0  0
   -0.1697   -1.3181    2.8006 C   0  0  0  0  0  0  0  0  0  0  0  0
    0.7835   -1.7709    1.7807 C   0  0  0  0  0  0  0  0  0  0  0  0
    0.6142   -1.2239    0.4142 C   0  0  0  0  0  0  0  0  0  0  0  0
    1.7288   -1.6896   -0.5523 C   0  0  0  0  0  0  0  0  0  0  0  0
    3.0981   -1.2725   -0.0910 C   0  0  0  0  0  0  0  0  0  0  0  0
    4.1296   -1.6753   -0.9814 N   0  0  0  0  0  0  0  0  0  0  0  0
    4.3777   -3.0731   -1.0811 C   0  0  0  0  0  0  0  0  0  0  0  0
    4.3419   -0.8893   -2.1377 C   0  0  0  0  0  0  0  0  0  0  0  0
    4.9240    0.4515   -1.7672 C   0  0  0  0  0  0  0  0  0  0  0  0
    6.2287    0.2020   -1.0614 C   0  0  0  0  0  0  0  0  0  0  0  0
    6.6230   -0.9672   -0.9008 O   0  0  0  0  0  0  0  0  0  0  0  0
    7.0022    1.3004   -0.5818 N   0  0  0  0  0  0  0  0  0  0  0  0
    6.5085    2.6749   -0.7867 C   0  0  0  0  0  0  0  0  0  0  0  0
    6.8932    3.6131    0.2990 C   0  0  0  0  0  0  0  0  0  0  0  0
    7.2709    2.9656    1.5872 C   0  0  0  0  0  0  0  0  0  0  0  0
    8.1582    1.7827    1.4575 C   0  0  2  0  0  0  0  0  0  0  0  0
    9.5677    2.0344    1.9579 C   0  0  0  0  0  0  0  0  0  0  0  0
   10.2532    0.7131    1.9842 C   0  0  0  0  0  0  0  0  0  0  0  0
   10.0691   -0.1452    0.9854 C   0  0  0  0  0  0  0  0  0  0  0  0
   11.1826   -1.0351    0.5322 C   0  0  0  0  0  0  0  0  0  0  0  0
    8.7350   -0.2460    0.2837 C   0  0  0  0  0  0  0  0  0  0  0  0
    8.2624    1.1829    0.0955 C   0  0  1  0  0  0  0  0  0  0  0  0
    9.2798    1.8289   -0.7784 C   0  0  0  0  0  0  0  0  0  0  0  0
    9.2392    1.5408   -2.1286 C   0  0  0  0  0  0  0  0  0  0  0  0
   10.1362    2.0924   -2.9990 C   0  0  0  0  0  0  0  0  0  0  0  0
   11.0882    2.9483   -2.4947 C   0  0  0  0  0  0  0  0  0  0  0  0
   11.9027    3.4408   -3.3297 O   0  0  0  0  0  0  0  0  0  0  0  0
   11.1264    3.2285   -1.1727 N   0  0  0  0  0  0  0  0  0  0  0  0
   10.2442    2.6832   -0.3304 C   0  0  0  0  0  0  0  0  0  0  0  0
   10.3231    3.0195    1.1133 C   0  0  0  0  0  0  0  0  0  0  0  0
  -11.9230   -1.9510    1.2374 H   0  0  0  0  0  0  0  0  0  0  0  0
  -10.6480   -1.6468    2.4441 H   0  0  0  0  0  0  0  0  0  0  0  0
  -12.1493   -0.6893    2.5348 H   0  0  0  0  0  0  0  0  0  0  0  0
  -12.4598    0.7668    0.2244 H   0  0  0  0  0  0  0  0  0  0  0  0
  -11.2959    1.0534   -1.9646 H   0  0  0  0  0  0  0  0  0  0  0  0
  -10.2828    3.0479   -1.6414 H   0  0  0  0  0  0  0  0  0  0  0  0
  -10.3282    2.8262    0.1092 H   0  0  0  0  0  0  0  0  0  0  0  0
   -8.3446    4.2828   -1.4110 H   0  0  0  0  0  0  0  0  0  0  0  0
   -4.6483    2.3408   -1.1018 H   0  0  0  0  0  0  0  0  0  0  0  0
   -5.7851    0.3207   -0.5146 H   0  0  0  0  0  0  0  0  0  0  0  0
   -9.1676    1.1702    1.3853 H   0  0  0  0  0  0  0  0  0  0  0  0
   -8.8513   -0.4880    1.9108 H   0  0  0  0  0  0  0  0  0  0  0  0
  -10.1739   -1.0486   -1.1766 H   0  0  0  0  0  0  0  0  0  0  0  0
   -8.5164    0.8469   -2.9499 H   0  0  0  0  0  0  0  0  0  0  0  0
   -9.8439   -0.2229   -3.4250 H   0  0  0  0  0  0  0  0  0  0  0  0
   -6.9909   -0.8283   -2.8519 H   0  0  0  0  0  0  0  0  0  0  0  0
   -8.2475   -1.8555   -3.6276 H   0  0  0  0  0  0  0  0  0  0  0  0
   -7.2824   -2.8243   -1.6098 H   0  0  0  0  0  0  0  0  0  0  0  0
   -9.0290   -2.6703   -1.4439 H   0  0  0  0  0  0  0  0  0  0  0  0
   -7.1053   -3.8466    0.9299 H   0  0  0  0  0  0  0  0  0  0  0  0
   -5.9562   -3.3180   -0.2902 H   0  0  0  0  0  0  0  0  0  0  0  0
   -5.0470   -4.4512    1.7553 H   0  0  0  0  0  0  0  0  0  0  0  0
   -5.5512   -3.0872    2.7663 H   0  0  0  0  0  0  0  0  0  0  0  0
   -3.1700   -2.3668   -0.4143 H   0  0  0  0  0  0  0  0  0  0  0  0
   -3.9102   -3.9665   -0.1241 H   0  0  0  0  0  0  0  0  0  0  0  0
   -2.2935   -3.5402    0.6246 H   0  0  0  0  0  0  0  0  0  0  0  0
   -4.1958   -0.8592    2.6035 H   0  0  0  0  0  0  0  0  0  0  0  0
   -4.3109   -0.7944    0.8066 H   0  0  0  0  0  0  0  0  0  0  0  0
   -2.3593    0.2204    1.8482 H   0  0  0  0  0  0  0  0  0  0  0  0
   -2.0856   -0.9858    0.5695 H   0  0  0  0  0  0  0  0  0  0  0  0
   -2.0758   -1.1490    3.6570 H   0  0  0  0  0  0  0  0  0  0  0  0
   -1.8718   -2.6590    2.7809 H   0  0  0  0  0  0  0  0  0  0  0  0
    0.2217   -1.7035    3.8192 H   0  0  0  0  0  0  0  0  0  0  0  0
   -0.0039   -0.1790    2.9710 H   0  0  0  0  0  0  0  0  0  0  0  0
    0.7424   -2.9008    1.7656 H   0  0  0  0  0  0  0  0  0  0  0  0
    1.8211   -1.4809    2.1706 H   0  0  0  0  0  0  0  0  0  0  0  0
   -0.2812   -1.7326   -0.0744 H   0  0  0  0  0  0  0  0  0  0  0  0
    0.5611   -0.1374    0.4012 H   0  0  0  0  0  0  0  0  0  0  0  0
    1.6155   -2.7714   -0.7159 H   0  0  0  0  0  0  0  0  0  0  0  0
    1.4703   -1.1858   -1.5198 H   0  0  0  0  0  0  0  0  0  0  0  0
    3.3486   -1.6972    0.9091 H   0  0  0  0  0  0  0  0  0  0  0  0
    3.1017   -0.1817    0.0296 H   0  0  0  0  0  0  0  0  0  0  0  0
    5.2850   -3.2449   -1.6757 H   0  0  0  0  0  0  0  0  0  0  0  0
    4.6007   -3.4842   -0.0563 H   0  0  0  0  0  0  0  0  0  0  0  0
    3.5161   -3.6562   -1.4748 H   0  0  0  0  0  0  0  0  0  0  0  0
    3.3547   -0.6564   -2.6228 H   0  0  0  0  0  0  0  0  0  0  0  0
    4.9333   -1.3949   -2.9305 H   0  0  0  0  0  0  0  0  0  0  0  0
    4.2357    0.9755   -1.0918 H   0  0  0  0  0  0  0  0  0  0  0  0
    5.1120    1.0580   -2.6892 H   0  0  0  0  0  0  0  0  0  0  0  0
    6.9715    3.0189   -1.7337 H   0  0  0  0  0  0  0  0  0  0  0  0
    5.4139    2.6581   -0.9836 H   0  0  0  0  0  0  0  0  0  0  0  0
    5.9919    4.2571    0.5248 H   0  0  0  0  0  0  0  0  0  0  0  0
    7.6757    4.3637   -0.0182 H   0  0  0  0  0  0  0  0  0  0  0  0
    7.8472    3.7438    2.1701 H   0  0  0  0  0  0  0  0  0  0  0  0
    6.3600    2.7733    2.1993 H   0  0  0  0  0  0  0  0  0  0  0  0
    7.7431    0.9861    2.1418 H   0  0  0  0  0  0  0  0  0  0  0  0
    9.5271    2.4475    3.0006 H   0  0  0  0  0  0  0  0  0  0  0  0
   10.9139    0.4106    2.7974 H   0  0  0  0  0  0  0  0  0  0  0  0
   10.7558   -1.9239    0.0332 H   0  0  0  0  0  0  0  0  0  0  0  0
   11.9064   -0.5376   -0.1221 H   0  0  0  0  0  0  0  0  0  0  0  0
   11.7715   -1.4342    1.3997 H   0  0  0  0  0  0  0  0  0  0  0  0
    8.9161   -0.7571   -0.6741 H   0  0  0  0  0  0  0  0  0  0  0  0
    8.0415   -0.8563    0.8902 H   0  0  0  0  0  0  0  0  0  0  0  0
    8.4775    0.8639   -2.4949 H   0  0  0  0  0  0  0  0  0  0  0  0
   10.1155    1.8696   -4.0773 H   0  0  0  0  0  0  0  0  0  0  0  0
   11.8928    3.8957   -0.8822 H   0  0  0  0  0  0  0  0  0  0  0  0
   11.3988    2.9513    1.4000 H   0  0  0  0  0  0  0  0  0  0  0  0
    9.9748    4.0368    1.3488 H   0  0  0  0  0  0  0  0  0  0  0  0
  1  2  1  0
  2  3  2  0
  3  4  1  0
  4  5  1  0
  5  6  1  0
  6  7  1  0
  7  8  1  0
  8  9  2  0
  8 10  1  0
 10 11  2  0
 11 12  1  0
 12 13  1  0
 13 14  1  0
 13 15  1  0
 15 16  1  0
 16 17  1  0
 17 18  1  0
 18 19  1  0
 19 20  1  0
 20 21  2  0
 20 22  1  0
 22 23  1  0
 23 24  1  0
 24 25  1  0
 24 26  1  0
 26 27  1  0
 27 28  1  0
 28 29  1  0
 29 30  1  0
 30 31  1  0
 31 32  1  0
 32 33  1  0
 33 34  1  0
 34 35  1  0
 34 36  1  0
 36 37  1  0
 37 38  1  0
 38 39  2  0
 38 40  1  0
 40 41  1  0
 41 42  1  0
 42 43  1  0
 43 44  1  0
 44 45  1  0
 45 46  1  0
 46 47  2  0
 47 48  1  0
 47 49  1  0
 49 50  1  0
 50 51  1  0
 51 52  1  0
 52 53  2  0
 53 54  1  0
 54 55  2  0
 54 56  1  0
 56 57  1  0
 57 58  1  0
 14  2  1  0
 50 40  1  6
 57 51  2  0
 15  4  1  0
 50 44  1  0
 12  6  2  0
 13 19  1  1
 58 45  1  0
  1 59  1  0
  1 60  1  0
  1 61  1  0
  3 62  1  0
  4 63  1  0
  5 64  1  0
  5 65  1  0
  7 66  1  0
 10 67  1  0
 11 68  1  0
 14 69  1  0
 14 70  1  0
 15 71  1  1
 16 72  1  0
 16 73  1  0
 17 74  1  0
 17 75  1  0
 18 76  1  0
 18 77  1  0
 22 78  1  0
 22 79  1  0
 23 80  1  0
 23 81  1  0
 25 82  1  0
 25 83  1  0
 25 84  1  0
 26 85  1  0
 26 86  1  0
 27 87  1  0
 27 88  1  0
 28 89  1  0
 28 90  1  0
 29 91  1  0
 29 92  1  0
 30 93  1  0
 30 94  1  0
 31 95  1  0
 31 96  1  0
 32 97  1  0
 32 98  1  0
 33 99  1  0
 33100  1  0
 35101  1  0
 35102  1  0
 35103  1  0
 36104  1  0
 36105  1  0
 37106  1  0
 37107  1  0
 41108  1  0
 41109  1  0
 42110  1  0
 42111  1  0
 43112  1  0
 43113  1  0
 44114  1  1
 45115  1  0
 46116  1  0
 48117  1  0
 48118  1  0
 48119  1  0
 49120  1  0
 49121  1  0
 52122  1  0
 53123  1  0
 56124  1  0
 58125  1  0
 58126  1  0
M  END
$$$$
