@<TRIPOS>MOLECULE
*****
 126 133 0 0 0
SMALL
GASTEIGER

@<TRIPOS>ATOM
      1 C         -11.4422   -1.1530    1.8498 C.3     1  UNL1       -0.0437
      2 C         -10.7552   -0.1471    0.9725 C.2     1  UNL1       -0.0739
      3 C         -11.4222    0.5661    0.0750 C.2     1  UNL1       -0.0812
      4 C         -10.5972    1.0198   -1.0921 C.3     1  UNL1       -0.0122
      5 C          -9.9581    2.3400   -0.8235 C.3     1  UNL1       -0.0055
      6 C          -8.4833    2.3054   -0.8722 C.ar    1  UNL1        0.0248
      7 N          -7.8075    3.4146   -1.2089 N.ar    1  UNL1       -0.3259
      8 C          -6.4679    3.4737   -1.3016 C.ar    1  UNL1        0.2489
      9 O          -5.8404    4.5202   -1.6181 O.2     1  UNL1       -0.2679
     10 C          -5.7222    2.3419   -1.0414 C.ar    1  UNL1        0.0031
     11 C          -6.4119    1.1740   -0.6883 C.ar    1  UNL1       -0.0498
     12 C          -7.7671    1.1532   -0.6032 C.ar    1  UNL1       -0.0039
     13 C          -8.5418   -0.0472   -0.2296 C.3     1  UNL1        0.0710
     14 C          -9.2819    0.1018    1.0776 C.3     1  UNL1       -0.0059
     15 C          -9.6326   -0.1217   -1.3299 C.3     1  UNL1       -0.0083
     16 C          -9.0250   -0.0935   -2.6930 C.3     1  UNL1       -0.0460
     17 C          -8.0230   -1.2258   -2.7619 C.3     1  UNL1       -0.0368
     18 C          -8.0931   -2.0921   -1.5158 C.3     1  UNL1        0.0156
     19 N          -7.8272   -1.2887   -0.3213 N.am    1  UNL1       -0.2910
     20 C          -6.9595   -1.7143    0.7250 C.2     1  UNL1        0.2175
     21 O          -6.7242   -0.9438    1.6856 O.2     1  UNL1       -0.2755
     22 C          -6.3253   -3.0365    0.7422 C.3     1  UNL1        0.0369
     23 C          -5.2180   -3.3075    1.6773 C.3     1  UNL1        0.0069
     24 N          -3.9702   -2.7006    1.5350 N.3     1  UNL1       -0.3049
     25 C          -3.2690   -3.1728    0.3281 C.3     1  UNL1       -0.0127
     26 C          -3.8405   -1.3325    1.6818 C.3     1  UNL1       -0.0014
     27 C          -2.3372   -0.8929    1.5970 C.3     1  UNL1       -0.0402
     28 C          -1.6083   -1.5582    2.6760 C.3     1  UNL1       -0.0519
     29 C          -0.1697   -1.3181    2.8006 C.3     1  UNL1       -0.0530
     30 C           0.7835   -1.7709    1.7807 C.3     1  UNL1       -0.0530
     31 C           0.6142   -1.2239    0.4142 C.3     1  UNL1       -0.0519
     32 C           1.7288   -1.6896   -0.5523 C.3     1  UNL1       -0.0402
     33 C           3.0981   -1.2725   -0.0910 C.3     1  UNL1       -0.0014
     34 N           4.1296   -1.6753   -0.9814 N.3     1  UNL1       -0.3049
     35 C           4.3777   -3.0731   -1.0811 C.3     1  UNL1       -0.0127
     36 C           4.3419   -0.8893   -2.1377 C.3     1  UNL1        0.0069
     37 C           4.9240    0.4515   -1.7672 C.3     1  UNL1        0.0369
     38 C           6.2287    0.2020   -1.0614 C.2     1  UNL1        0.2175
     39 O           6.6230   -0.9672   -0.9008 O.2     1  UNL1       -0.2755
     40 N           7.0022    1.3004   -0.5818 N.am    1  UNL1       -0.2910
     41 C           6.5085    2.6749   -0.7867 C.3     1  UNL1        0.0156
     42 C           6.8932    3.6131    0.2990 C.3     1  UNL1       -0.0368
     43 C           7.2709    2.9656    1.5872 C.3     1  UNL1       -0.0460
     44 C           8.1582    1.7827    1.4575 C.3     1  UNL1       -0.0083
     45 C           9.5677    2.0344    1.9579 C.3     1  UNL1       -0.0122
     46 C          10.2532    0.7131    1.9842 C.2     1  UNL1       -0.0812
     47 C          10.0691   -0.1452    0.9854 C.2     1  UNL1       -0.0739
     48 C          11.1826   -1.0351    0.5322 C.3     1  UNL1       -0.0437
     49 C           8.7350   -0.2460    0.2837 C.3     1  UNL1       -0.0059
     50 C           8.2624    1.1829    0.0955 C.3     1  UNL1        0.0710
     51 C           9.2798    1.8289   -0.7784 C.ar    1  UNL1       -0.0039
     52 C           9.2392    1.5408   -2.1286 C.ar    1  UNL1       -0.0498
     53 C          10.1362    2.0924   -2.9990 C.ar    1  UNL1        0.0031
     54 C          11.0882    2.9483   -2.4947 C.ar    1  UNL1        0.2489
     55 O          11.9027    3.4408   -3.3297 O.2     1  UNL1       -0.2679
     56 N          11.1264    3.2285   -1.1727 N.ar    1  UNL1       -0.3259
     57 C          10.2442    2.6832   -0.3304 C.ar    1  UNL1        0.0248
     58 C          10.3231    3.0195    1.1133 C.3     1  UNL1       -0.0055
     59 H         -11.9230   -1.9510    1.2374 H       1  UNL1        0.0274
     60 H         -10.6480   -1.6468    2.4441 H       1  UNL1        0.0274
     61 H         -12.1493   -0.6893    2.5348 H       1  UNL1        0.0274
     62 H         -12.4598    0.7668    0.2244 H       1  UNL1        0.0575
     63 H         -11.2959    1.0534   -1.9646 H       1  UNL1        0.0350
     64 H         -10.2828    3.0479   -1.6414 H       1  UNL1        0.0333
     65 H         -10.3282    2.8262    0.1092 H       1  UNL1        0.0333
     66 H          -8.3446    4.2828   -1.4110 H       1  UNL1        0.1686
     67 H          -4.6483    2.3408   -1.1018 H       1  UNL1        0.0672
     68 H          -5.7851    0.3207   -0.5146 H       1  UNL1        0.0623
     69 H          -9.1676    1.1702    1.3853 H       1  UNL1        0.0334
     70 H          -8.8513   -0.4880    1.9108 H       1  UNL1        0.0334
     71 H         -10.1739   -1.0486   -1.1766 H       1  UNL1        0.0331
     72 H          -8.5164    0.8469   -2.9499 H       1  UNL1        0.0269
     73 H          -9.8439   -0.2229   -3.4250 H       1  UNL1        0.0269
     74 H          -6.9909   -0.8283   -2.8519 H       1  UNL1        0.0280
     75 H          -8.2475   -1.8555   -3.6276 H       1  UNL1        0.0280
     76 H          -7.2824   -2.8243   -1.6098 H       1  UNL1        0.0465
     77 H          -9.0290   -2.6703   -1.4439 H       1  UNL1        0.0465
     78 H          -7.1053   -3.8466    0.9299 H       1  UNL1        0.0371
     79 H          -5.9562   -3.3180   -0.2902 H       1  UNL1        0.0371
     80 H          -5.0470   -4.4512    1.7553 H       1  UNL1        0.0431
     81 H          -5.5512   -3.0872    2.7663 H       1  UNL1        0.0431
     82 H          -3.1700   -2.3668   -0.4143 H       1  UNL1        0.0391
     83 H          -3.9102   -3.9665   -0.1241 H       1  UNL1        0.0391
     84 H          -2.2935   -3.5402    0.6246 H       1  UNL1        0.0391
     85 H          -4.1958   -0.8592    2.6035 H       1  UNL1        0.0426
     86 H          -4.3109   -0.7944    0.8066 H       1  UNL1        0.0426
     87 H          -2.3593    0.2204    1.8482 H       1  UNL1        0.0278
     88 H          -2.0856   -0.9858    0.5695 H       1  UNL1        0.0278
     89 H          -2.0758   -1.1490    3.6570 H       1  UNL1        0.0266
     90 H          -1.8718   -2.6590    2.7809 H       1  UNL1        0.0266
     91 H           0.2217   -1.7035    3.8192 H       1  UNL1        0.0265
     92 H          -0.0039   -0.1790    2.9710 H       1  UNL1        0.0265
     93 H           0.7424   -2.9008    1.7656 H       1  UNL1        0.0265
     94 H           1.8211   -1.4809    2.1706 H       1  UNL1        0.0265
     95 H          -0.2812   -1.7326   -0.0744 H       1  UNL1        0.0266
     96 H           0.5611   -0.1374    0.4012 H       1  UNL1        0.0266
     97 H           1.6155   -2.7714   -0.7159 H       1  UNL1        0.0278
     98 H           1.4703   -1.1858   -1.5198 H       1  UNL1        0.0278
     99 H           3.3486   -1.6972    0.9091 H       1  UNL1        0.0426
    100 H           3.1017   -0.1817    0.0296 H       1  UNL1        0.0426
    101 H           5.2850   -3.2449   -1.6757 H       1  UNL1        0.0391
    102 H           4.6007   -3.4842   -0.0563 H       1  UNL1        0.0391
    103 H           3.5161   -3.6562   -1.4748 H       1  UNL1        0.0391
    104 H           3.3547   -0.6564   -2.6228 H       1  UNL1        0.0431
    105 H           4.9333   -1.3949   -2.9305 H       1  UNL1        0.0431
    106 H           4.2357    0.9755   -1.0918 H       1  UNL1        0.0371
    107 H           5.1120    1.0580   -2.6892 H       1  UNL1        0.0371
    108 H           6.9715    3.0189   -1.7337 H       1  UNL1        0.0465
    109 H           5.4139    2.6581   -0.9836 H       1  UNL1        0.0465
    110 H           5.9919    4.2571    0.5248 H       1  UNL1        0.0280
    111 H           7.6757    4.3637   -0.0182 H       1  UNL1        0.0280
    112 H           7.8472    3.7438    2.1701 H       1  UNL1        0.0269
    113 H           6.3600    2.7733    2.1993 H       1  UNL1        0.0269
    114 H           7.7431    0.9861    2.1418 H       1  UNL1        0.0331
    115 H           9.5271    2.4475    3.0006 H       1  UNL1        0.0350
    116 H          10.9139    0.4106    2.7974 H       1  UNL1        0.0575
    117 H          10.7558   -1.9239    0.0332 H       1  UNL1        0.0274
    118 H          11.9064   -0.5376   -0.1221 H       1  UNL1        0.0274
    119 H          11.7715   -1.4342    1.3997 H       1  UNL1        0.0274
    120 H           8.9161   -0.7571   -0.6741 H       1  UNL1        0.0334
    121 H           8.0415   -0.8563    0.8902 H       1  UNL1        0.0334
    122 H           8.4775    0.8639   -2.4949 H       1  UNL1        0.0623
    123 H          10.1155    1.8696   -4.0773 H       1  UNL1        0.0672
    124 H          11.8928    3.8957   -0.8822 H       1  UNL1        0.1686
    125 H          11.3988    2.9513    1.4000 H       1  UNL1        0.0333
    126 H           9.9748    4.0368    1.3488 H       1  UNL1        0.0333
@<TRIPOS>BOND
     1     1     2    1
     2     2     3    2
     3     3     4    1
     4     4     5    1
     5     5     6    1
     6     6     7   ar
     7     7     8   ar
     8     8     9    2
     9     8    10   ar
    10    10    11   ar
    11    11    12   ar
    12    12    13    1
    13    13    14    1
    14    13    15    1
    15    15    16    1
    16    16    17    1
    17    17    18    1
    18    18    19    1
    19    19    20   am
    20    20    21    2
    21    20    22    1
    22    22    23    1
    23    23    24    1
    24    24    25    1
    25    24    26    1
    26    26    27    1
    27    27    28    1
    28    28    29    1
    29    29    30    1
    30    30    31    1
    31    31    32    1
    32    32    33    1
    33    33    34    1
    34    34    35    1
    35    34    36    1
    36    36    37    1
    37    37    38    1
    38    38    39    2
    39    38    40   am
    40    40    41    1
    41    41    42    1
    42    42    43    1
    43    43    44    1
    44    44    45    1
    45    45    46    1
    46    46    47    2
    47    47    48    1
    48    47    49    1
    49    49    50    1
    50    50    51    1
    51    51    52   ar
    52    52    53   ar
    53    53    54   ar
    54    54    55    2
    55    54    56   ar
    56    56    57   ar
    57    57    58    1
    58    14     2    1
    59    50    40    1
    60    57    51   ar
    61    15     4    1
    62    50    44    1
    63    12     6   ar
    64    13    19    1
    65    58    45    1
    66     1    59    1
    67     1    60    1
    68     1    61    1
    69     3    62    1
    70     4    63    1
    71     5    64    1
    72     5    65    1
    73     7    66    1
    74    10    67    1
    75    11    68    1
    76    14    69    1
    77    14    70    1
    78    15    71    1
    79    16    72    1
    80    16    73    1
    81    17    74    1
    82    17    75    1
    83    18    76    1
    84    18    77    1
    85    22    78    1
    86    22    79    1
    87    23    80    1
    88    23    81    1
    89    25    82    1
    90    25    83    1
    91    25    84    1
    92    26    85    1
    93    26    86    1
    94    27    87    1
    95    27    88    1
    96    28    89    1
    97    28    90    1
    98    29    91    1
    99    29    92    1
   100    30    93    1
   101    30    94    1
   102    31    95    1
   103    31    96    1
   104    32    97    1
   105    32    98    1
   106    33    99    1
   107    33   100    1
   108    35   101    1
   109    35   102    1
   110    35   103    1
   111    36   104    1
   112    36   105    1
   113    37   106    1
   114    37   107    1
   115    41   108    1
   116    41   109    1
   117    42   110    1
   118    42   111    1
   119    43   112    1
   120    43   113    1
   121    44   114    1
   122    45   115    1
   123    46   116    1
   124    48   117    1
   125    48   118    1
   126    48   119    1
   127    49   120    1
   128    49   121    1
   129    52   122    1
   130    53   123    1
   131    56   124    1
   132    58   125    1
   133    58   126    1
