
     RDKit          3D

 76 80  0  0  0  0  0  0  0  0999 V2000
   -7.6765    4.4677   -1.2938 C   0  0  0  0  0  0  0  0  0  0  0  0
   -6.8812    3.2994   -0.8548 C   0  0  0  0  0  0  0  0  0  0  0  0
   -6.4930    2.3484   -1.7548 C   0  0  0  0  0  0  0  0  0  0  0  0
   -5.7448    1.2560   -1.3177 C   0  0  0  0  0  0  0  0  0  0  0  0
   -5.3902    1.1160   -0.0031 C   0  0  0  0  0  0  0  0  0  0  0  0
   -4.6364   -0.0003    0.4116 N   0  0  0  0  0  0  0  0  0  0  0  0
   -5.1113   -1.1272    0.9535 N   0  0  0  0  0  0  0  0  0  0  0  0
   -4.1049   -1.9675    1.2265 C   0  0  0  0  0  0  0  0  0  0  0  0
   -4.1653   -3.3323    1.8301 C   0  0  0  0  0  0  0  0  0  0  0  0
   -4.0762   -3.3163    3.3241 C   0  0  0  0  0  0  0  0  0  0  0  0
   -3.0417   -4.1414    1.2439 C   0  0  0  0  0  0  0  0  0  0  0  0
   -5.4874   -3.9703    1.4215 C   0  0  0  0  0  0  0  0  0  0  0  0
   -2.9463   -1.2953    0.8190 C   0  0  0  0  0  0  0  0  0  0  0  0
   -3.2939   -0.0707    0.3131 C   0  0  0  0  0  0  0  0  0  0  0  0
   -2.4479    0.9390   -0.2130 N   0  0  0  0  0  0  0  0  0  0  0  0
   -1.0556    0.8290   -0.2707 C   0  0  0  0  0  0  0  0  0  0  0  0
   -0.4564   -0.1734    0.1500 O   0  0  0  0  0  0  0  0  0  0  0  0
   -0.2914    1.9095   -0.8346 N   0  0  0  0  0  0  0  0  0  0  0  0
    1.1415    1.8148   -0.8966 C   0  0  0  0  0  0  0  0  0  0  0  0
    1.9220    2.2955    0.1329 C   0  0  0  0  0  0  0  0  0  0  0  0
    3.3109    2.2030    0.0992 C   0  0  0  0  0  0  0  0  0  0  0  0
    3.9651    1.6262   -0.9651 C   0  0  0  0  0  0  0  0  0  0  0  0
    5.3000    1.4792   -1.1101 O   0  0  0  0  0  0  0  0  0  0  0  0
    6.3828    1.8029   -0.3437 C   0  0  0  0  0  0  0  0  0  0  0  0
    6.4976    1.1806    1.0113 C   0  0  0  0  0  0  0  0  0  0  0  0
    6.5515   -0.2210    1.0361 N   0  0  0  0  0  0  0  0  0  0  0  0
    7.6806   -0.8888    0.5145 C   0  0  0  0  0  0  0  0  0  0  0  0
    7.9152   -2.1149    1.3842 C   0  0  0  0  0  0  0  0  0  0  0  0
    6.7812   -2.8913    1.5524 O   0  0  0  0  0  0  0  0  0  0  0  0
    5.6507   -2.4288    0.9326 C   0  0  0  0  0  0  0  0  0  0  0  0
    5.3789   -0.9703    1.2448 C   0  0  0  0  0  0  0  0  0  0  0  0
    3.1478    1.1467   -1.9971 C   0  0  0  0  0  0  0  0  0  0  0  0
    3.7416    0.5567   -3.0959 C   0  0  0  0  0  0  0  0  0  0  0  0
    2.9770    0.0631   -4.1507 C   0  0  0  0  0  0  0  0  0  0  0  0
    1.5843    0.1810   -4.0682 C   0  0  0  0  0  0  0  0  0  0  0  0
    0.9770    0.7627   -2.9871 C   0  0  0  0  0  0  0  0  0  0  0  0
    1.7725    1.2372   -1.9667 C   0  0  0  0  0  0  0  0  0  0  0  0
   -5.7759    2.0653    0.9033 C   0  0  0  0  0  0  0  0  0  0  0  0
   -6.5292    3.1717    0.4828 C   0  0  0  0  0  0  0  0  0  0  0  0
   -8.1119    4.9835   -0.4223 H   0  0  0  0  0  0  0  0  0  0  0  0
   -8.5393    4.1033   -1.9078 H   0  0  0  0  0  0  0  0  0  0  0  0
   -7.0674    5.1414   -1.9094 H   0  0  0  0  0  0  0  0  0  0  0  0
   -6.7636    2.4483   -2.7787 H   0  0  0  0  0  0  0  0  0  0  0  0
   -5.4693    0.5388   -2.0804 H   0  0  0  0  0  0  0  0  0  0  0  0
   -3.2497   -2.6691    3.6858 H   0  0  0  0  0  0  0  0  0  0  0  0
   -5.0424   -3.1112    3.8181 H   0  0  0  0  0  0  0  0  0  0  0  0
   -3.7937   -4.3573    3.6425 H   0  0  0  0  0  0  0  0  0  0  0  0
   -3.4176   -5.1799    1.0951 H   0  0  0  0  0  0  0  0  0  0  0  0
   -2.8541   -3.7485    0.2059 H   0  0  0  0  0  0  0  0  0  0  0  0
   -2.1275   -4.1344    1.8561 H   0  0  0  0  0  0  0  0  0  0  0  0
   -6.2205   -3.7091    2.2144 H   0  0  0  0  0  0  0  0  0  0  0  0
   -5.8238   -3.4804    0.4905 H   0  0  0  0  0  0  0  0  0  0  0  0
   -5.3640   -5.0614    1.3173 H   0  0  0  0  0  0  0  0  0  0  0  0
   -1.9589   -1.7266    0.9138 H   0  0  0  0  0  0  0  0  0  0  0  0
   -2.8772    1.8353   -0.5956 H   0  0  0  0  0  0  0  0  0  0  0  0
   -0.7725    2.7563   -1.1967 H   0  0  0  0  0  0  0  0  0  0  0  0
    1.4037    2.7552    0.9811 H   0  0  0  0  0  0  0  0  0  0  0  0
    3.8779    2.5997    0.9240 H   0  0  0  0  0  0  0  0  0  0  0  0
    7.3063    1.5898   -0.9263 H   0  0  0  0  0  0  0  0  0  0  0  0
    6.3993    2.9320   -0.2440 H   0  0  0  0  0  0  0  0  0  0  0  0
    5.7756    1.5337    1.7616 H   0  0  0  0  0  0  0  0  0  0  0  0
    7.5008    1.5492    1.4148 H   0  0  0  0  0  0  0  0  0  0  0  0
    7.6013   -1.1711   -0.5558 H   0  0  0  0  0  0  0  0  0  0  0  0
    8.5766   -0.2605    0.6186 H   0  0  0  0  0  0  0  0  0  0  0  0
    8.1497   -1.6967    2.4081 H   0  0  0  0  0  0  0  0  0  0  0  0
    8.7978   -2.6918    1.0398 H   0  0  0  0  0  0  0  0  0  0  0  0
    5.7560   -2.6083   -0.1534 H   0  0  0  0  0  0  0  0  0  0  0  0
    4.7816   -2.9997    1.2939 H   0  0  0  0  0  0  0  0  0  0  0  0
    5.1511   -0.9470    2.3520 H   0  0  0  0  0  0  0  0  0  0  0  0
    4.4669   -0.6371    0.7576 H   0  0  0  0  0  0  0  0  0  0  0  0
    4.8145    0.4420   -3.2073 H   0  0  0  0  0  0  0  0  0  0  0  0
    3.4359   -0.3953   -5.0049 H   0  0  0  0  0  0  0  0  0  0  0  0
    1.0143   -0.2056   -4.8912 H   0  0  0  0  0  0  0  0  0  0  0  0
   -0.0900    0.8413   -2.9472 H   0  0  0  0  0  0  0  0  0  0  0  0
   -5.5229    2.0017    1.9464 H   0  0  0  0  0  0  0  0  0  0  0  0
   -6.8160    3.8982    1.2194 H   0  0  0  0  0  0  0  0  0  0  0  0
  1  2  1  0
  2  3  2  0
  3  4  1  0
  4  5  2  0
  5  6  1  0
  6  7  1  0
  7  8  2  0
  8  9  1  0
  9 10  1  0
  9 11  1  0
  9 12  1  0
  8 13  1  0
 13 14  2  0
 14 15  1  0
 15 16  1  0
 16 17  2  0
 16 18  1  0
 18 19  1  0
 19 20  2  0
 20 21  1  0
 21 22  2  0
 22 23  1  0
 23 24  1  0
 24 25  1  0
 25 26  1  0
 26 27  1  0
 27 28  1  0
 28 29  1  0
 29 30  1  0
 30 31  1  0
 22 32  1  0
 32 33  2  0
 33 34  1  0
 34 35  2  0
 35 36  1  0
 36 37  2  0
  5 38  1  0
 38 39  2  0
 39  2  1  0
 14  6  1  0
 37 19  1  0
 31 26  1  0
 37 32  1  0
  1 40  1  0
  1 41  1  0
  1 42  1  0
  3 43  1  0
  4 44  1  0
 10 45  1  0
 10 46  1  0
 10 47  1  0
 11 48  1  0
 11 49  1  0
 11 50  1  0
 12 51  1  0
 12 52  1  0
 12 53  1  0
 13 54  1  0
 15 55  1  0
 18 56  1  0
 20 57  1  0
 21 58  1  0
 24 59  1  0
 24 60  1  0
 25 61  1  0
 25 62  1  0
 27 63  1  0
 27 64  1  0
 28 65  1  0
 28 66  1  0
 30 67  1  0
 30 68  1  0
 31 69  1  0
 31 70  1  0
 33 71  1  0
 34 72  1  0
 35 73  1  0
 36 74  1  0
 38 75  1  0
 39 76  1  0
M  END
$$$$
