@<TRIPOS>MOLECULE
*****
 76 80 0 0 0
SMALL
GASTEIGER

@<TRIPOS>ATOM
      1 C          -7.6765    4.4677   -1.2938 C.3     1  UNL1       -0.0397
      2 C          -6.8812    3.2994   -0.8548 C.ar    1  UNL1       -0.0503
      3 C          -6.4930    2.3484   -1.7548 C.ar    1  UNL1       -0.0568
      4 C          -5.7448    1.2560   -1.3177 C.ar    1  UNL1       -0.0359
      5 C          -5.3902    1.1160   -0.0031 C.ar    1  UNL1        0.0674
      6 N          -4.6364   -0.0003    0.4116 N.ar    1  UNL1       -0.2181
      7 N          -5.1113   -1.1272    0.9535 N.ar    1  UNL1       -0.1691
      8 C          -4.1049   -1.9675    1.2265 C.ar    1  UNL1        0.0706
      9 C          -4.1653   -3.3323    1.8301 C.3     1  UNL1        0.0063
     10 C          -4.0762   -3.3163    3.3241 C.3     1  UNL1       -0.0546
     11 C          -3.0417   -4.1414    1.2439 C.3     1  UNL1       -0.0546
     12 C          -5.4874   -3.9703    1.4215 C.3     1  UNL1       -0.0546
     13 C          -2.9463   -1.2953    0.8190 C.ar    1  UNL1        0.0021
     14 C          -3.2939   -0.0707    0.3131 C.ar    1  UNL1        0.1299
     15 N          -2.4479    0.9390   -0.2130 N.am    1  UNL1       -0.2538
     16 C          -1.0556    0.8290   -0.2707 C.2     1  UNL1        0.3092
     17 O          -0.4564   -0.1734    0.1500 O.2     1  UNL1       -0.2521
     18 N          -0.2914    1.9095   -0.8346 N.am    1  UNL1       -0.2686
     19 C           1.1415    1.8148   -0.8966 C.ar    1  UNL1        0.0427
     20 C           1.9220    2.2955    0.1329 C.ar    1  UNL1       -0.0364
     21 C           3.3109    2.2030    0.0992 C.ar    1  UNL1       -0.0176
     22 C           3.9651    1.6262   -0.9651 C.ar    1  UNL1        0.1283
     23 O           5.3000    1.4792   -1.1101 O.3     1  UNL1       -0.4901
     24 C           6.3828    1.8029   -0.3437 C.3     1  UNL1        0.1023
     25 C           6.4976    1.1806    1.0113 C.3     1  UNL1        0.0333
     26 N           6.5515   -0.2210    1.0361 N.3     1  UNL1       -0.2948
     27 C           7.6806   -0.8888    0.5145 C.3     1  UNL1        0.0225
     28 C           7.9152   -2.1149    1.3842 C.3     1  UNL1        0.0604
     29 O           6.7812   -2.8913    1.5524 O.3     1  UNL1       -0.3772
     30 C           5.6507   -2.4288    0.9326 C.3     1  UNL1        0.0604
     31 C           5.3789   -0.9703    1.2448 C.3     1  UNL1        0.0225
     32 C           3.1478    1.1467   -1.9971 C.ar    1  UNL1        0.0256
     33 C           3.7416    0.5567   -3.0959 C.ar    1  UNL1       -0.0505
     34 C           2.9770    0.0631   -4.1507 C.ar    1  UNL1       -0.0611
     35 C           1.5843    0.1810   -4.0682 C.ar    1  UNL1       -0.0611
     36 C           0.9770    0.7627   -2.9871 C.ar    1  UNL1       -0.0521
     37 C           1.7725    1.2372   -1.9667 C.ar    1  UNL1        0.0069
     38 C          -5.7759    2.0653    0.9033 C.ar    1  UNL1       -0.0359
     39 C          -6.5292    3.1717    0.4828 C.ar    1  UNL1       -0.0568
     40 H          -8.1119    4.9835   -0.4223 H       1  UNL1        0.0278
     41 H          -8.5393    4.1033   -1.9078 H       1  UNL1        0.0278
     42 H          -7.0674    5.1414   -1.9094 H       1  UNL1        0.0278
     43 H          -6.7636    2.4483   -2.7787 H       1  UNL1        0.0621
     44 H          -5.4693    0.5388   -2.0804 H       1  UNL1        0.0639
     45 H          -3.2497   -2.6691    3.6858 H       1  UNL1        0.0239
     46 H          -5.0424   -3.1112    3.8181 H       1  UNL1        0.0239
     47 H          -3.7937   -4.3573    3.6425 H       1  UNL1        0.0239
     48 H          -3.4176   -5.1799    1.0951 H       1  UNL1        0.0239
     49 H          -2.8541   -3.7485    0.2059 H       1  UNL1        0.0239
     50 H          -2.1275   -4.1344    1.8561 H       1  UNL1        0.0239
     51 H          -6.2205   -3.7091    2.2144 H       1  UNL1        0.0239
     52 H          -5.8238   -3.4804    0.4905 H       1  UNL1        0.0239
     53 H          -5.3640   -5.0614    1.3173 H       1  UNL1        0.0239
     54 H          -1.9589   -1.7266    0.9138 H       1  UNL1        0.0671
     55 H          -2.8772    1.8353   -0.5956 H       1  UNL1        0.1578
     56 H          -0.7725    2.7563   -1.1967 H       1  UNL1        0.1564
     57 H           1.4037    2.7552    0.9811 H       1  UNL1        0.0637
     58 H           3.8779    2.5997    0.9240 H       1  UNL1        0.0655
     59 H           7.3063    1.5898   -0.9263 H       1  UNL1        0.0709
     60 H           6.3993    2.9320   -0.2440 H       1  UNL1        0.0709
     61 H           5.7756    1.5337    1.7616 H       1  UNL1        0.0460
     62 H           7.5008    1.5492    1.4148 H       1  UNL1        0.0460
     63 H           7.6013   -1.1711   -0.5558 H       1  UNL1        0.0449
     64 H           8.5766   -0.2605    0.6186 H       1  UNL1        0.0449
     65 H           8.1497   -1.6967    2.4081 H       1  UNL1        0.0572
     66 H           8.7978   -2.6918    1.0398 H       1  UNL1        0.0572
     67 H           5.7560   -2.6083   -0.1534 H       1  UNL1        0.0572
     68 H           4.7816   -2.9997    1.2939 H       1  UNL1        0.0572
     69 H           5.1511   -0.9470    2.3520 H       1  UNL1        0.0449
     70 H           4.4669   -0.6371    0.7576 H       1  UNL1        0.0449
     71 H           4.8145    0.4420   -3.2073 H       1  UNL1        0.0625
     72 H           3.4359   -0.3953   -5.0049 H       1  UNL1        0.0618
     73 H           1.0143   -0.2056   -4.8912 H       1  UNL1        0.0618
     74 H          -0.0900    0.8413   -2.9472 H       1  UNL1        0.0624
     75 H          -5.5229    2.0017    1.9464 H       1  UNL1        0.0639
     76 H          -6.8160    3.8982    1.2194 H       1  UNL1        0.0621
@<TRIPOS>BOND
     1     1     2    1
     2     2     3   ar
     3     3     4   ar
     4     4     5   ar
     5     5     6    1
     6     6     7   ar
     7     7     8   ar
     8     8     9    1
     9     9    10    1
    10     9    11    1
    11     9    12    1
    12     8    13   ar
    13    13    14   ar
    14    14    15    1
    15    15    16   am
    16    16    17    2
    17    16    18   am
    18    18    19    1
    19    19    20   ar
    20    20    21   ar
    21    21    22   ar
    22    22    23    1
    23    23    24    1
    24    24    25    1
    25    25    26    1
    26    26    27    1
    27    27    28    1
    28    28    29    1
    29    29    30    1
    30    30    31    1
    31    22    32   ar
    32    32    33   ar
    33    33    34   ar
    34    34    35   ar
    35    35    36   ar
    36    36    37   ar
    37     5    38   ar
    38    38    39   ar
    39    39     2   ar
    40    14     6   ar
    41    37    19   ar
    42    31    26    1
    43    37    32   ar
    44     1    40    1
    45     1    41    1
    46     1    42    1
    47     3    43    1
    48     4    44    1
    49    10    45    1
    50    10    46    1
    51    10    47    1
    52    11    48    1
    53    11    49    1
    54    11    50    1
    55    12    51    1
    56    12    52    1
    57    12    53    1
    58    13    54    1
    59    15    55    1
    60    18    56    1
    61    20    57    1
    62    21    58    1
    63    24    59    1
    64    24    60    1
    65    25    61    1
    66    25    62    1
    67    27    63    1
    68    27    64    1
    69    28    65    1
    70    28    66    1
    71    30    67    1
    72    30    68    1
    73    31    69    1
    74    31    70    1
    75    33    71    1
    76    34    72    1
    77    35    73    1
    78    36    74    1
    79    38    75    1
    80    39    76    1
