
     RDKit          3D

 56 61  0  0  0  0  0  0  0  0999 V2000
   -4.0012    1.6967   -1.0670 C   0  0  0  0  0  0  0  0  0  0  0  0
   -3.8385    0.3208   -1.6279 C   0  0  0  0  0  0  0  0  0  0  0  0
   -3.1043   -0.5952   -0.6844 C   0  0  0  0  0  0  0  0  0  0  0  0
   -3.6390   -1.5632    0.0827 N   0  0  0  0  0  0  0  0  0  0  0  0
   -2.7266   -2.1902    0.8010 N   0  0  0  0  0  0  0  0  0  0  0  0
   -2.9234   -3.2909    1.7450 C   0  0  0  0  0  0  0  0  0  0  0  0
   -3.8372   -3.1644    2.8893 C   0  0  0  0  0  0  0  0  0  0  0  0
   -4.2718   -3.9277    1.6564 C   0  0  0  0  0  0  0  0  0  0  0  0
   -1.5538   -1.6081    0.4892 C   0  0  0  0  0  0  0  0  0  0  0  0
   -1.7553   -0.6074   -0.4359 C   0  0  0  0  0  0  0  0  0  0  0  0
   -0.4689    0.0558   -0.7869 C   0  0  0  0  0  0  0  0  0  0  0  0
   -0.5649    1.5084   -0.4165 C   0  0  0  0  0  0  0  0  0  0  0  0
   -0.6086    2.4742   -1.4184 C   0  0  0  0  0  0  0  0  0  0  0  0
   -0.7047    3.8064   -1.1061 C   0  0  0  0  0  0  0  0  0  0  0  0
   -0.7583    4.1934    0.2055 C   0  0  0  0  0  0  0  0  0  0  0  0
   -0.8801    5.8770    0.6296 Cl  0  0  0  0  0  0  0  0  0  0  0  0
   -0.7170    3.2622    1.2096 C   0  0  0  0  0  0  0  0  0  0  0  0
   -0.6202    1.9198    0.8964 C   0  0  0  0  0  0  0  0  0  0  0  0
    0.5445   -0.6415   -0.0245 N   0  0  0  0  0  0  0  0  0  0  0  0
    1.9331   -0.3681   -0.0808 C   0  0  0  0  0  0  0  0  0  0  0  0
    2.5888    0.4978    0.7418 C   0  0  0  0  0  0  0  0  0  0  0  0
    3.9564    0.6983    0.6055 C   0  0  0  0  0  0  0  0  0  0  0  0
    4.6400    1.5852    1.4445 O   0  0  0  0  0  0  0  0  0  0  0  0
    3.9405    2.3013    2.4576 C   0  0  0  0  0  0  0  0  0  0  0  0
    4.6449    0.0125   -0.3702 C   0  0  0  0  0  0  0  0  0  0  0  0
    5.9413    0.0057   -0.7257 N   0  0  0  0  0  0  0  0  0  0  0  0
    6.0964   -0.8302   -1.7307 N   0  0  0  0  0  0  0  0  0  0  0  0
    4.9227   -1.3721   -2.0407 C   0  0  0  0  0  0  0  0  0  0  0  0
    4.5592   -2.3598   -3.0813 C   0  0  0  0  0  0  0  0  0  0  0  0
    4.0197   -0.8397   -1.1850 N   0  0  0  0  0  0  0  0  0  0  0  0
    2.7120   -1.0212   -1.0430 C   0  0  0  0  0  0  0  0  0  0  0  0
   -0.1359   -1.6400    0.7541 C   0  0  0  0  0  0  0  0  0  0  0  0
    0.4382   -2.4194    1.5462 O   0  0  0  0  0  0  0  0  0  0  0  0
   -5.0747    1.9218   -0.9447 H   0  0  0  0  0  0  0  0  0  0  0  0
   -3.4317    1.8325   -0.1255 H   0  0  0  0  0  0  0  0  0  0  0  0
   -3.6245    2.4143   -1.8412 H   0  0  0  0  0  0  0  0  0  0  0  0
   -4.8342   -0.1323   -1.8056 H   0  0  0  0  0  0  0  0  0  0  0  0
   -3.3064    0.2985   -2.5966 H   0  0  0  0  0  0  0  0  0  0  0  0
   -2.0726   -4.0281    1.7691 H   0  0  0  0  0  0  0  0  0  0  0  0
   -4.2883   -2.1810    3.0747 H   0  0  0  0  0  0  0  0  0  0  0  0
   -3.5699   -3.7971    3.7861 H   0  0  0  0  0  0  0  0  0  0  0  0
   -4.3434   -5.0353    1.6974 H   0  0  0  0  0  0  0  0  0  0  0  0
   -5.0619   -3.4474    1.0586 H   0  0  0  0  0  0  0  0  0  0  0  0
   -0.2612   -0.0082   -1.8766 H   0  0  0  0  0  0  0  0  0  0  0  0
   -0.5629    2.1182   -2.4542 H   0  0  0  0  0  0  0  0  0  0  0  0
   -0.7369    4.5409   -1.9219 H   0  0  0  0  0  0  0  0  0  0  0  0
   -0.7593    3.5597    2.2592 H   0  0  0  0  0  0  0  0  0  0  0  0
   -0.5860    1.1679    1.6764 H   0  0  0  0  0  0  0  0  0  0  0  0
    2.0390    1.0241    1.5014 H   0  0  0  0  0  0  0  0  0  0  0  0
    3.5157    1.5962    3.1879 H   0  0  0  0  0  0  0  0  0  0  0  0
    3.0797    2.8655    1.9948 H   0  0  0  0  0  0  0  0  0  0  0  0
    4.6375    3.0223    2.9314 H   0  0  0  0  0  0  0  0  0  0  0  0
    5.2704   -2.4120   -3.9103 H   0  0  0  0  0  0  0  0  0  0  0  0
    4.3784   -3.3402   -2.5934 H   0  0  0  0  0  0  0  0  0  0  0  0
    3.5736   -2.0470   -3.4992 H   0  0  0  0  0  0  0  0  0  0  0  0
    2.1916   -1.7096   -1.6973 H   0  0  0  0  0  0  0  0  0  0  0  0
  1  2  1  0
  2  3  1  0
  3  4  2  0
  4  5  1  0
  5  6  1  0
  6  7  1  0
  7  8  1  0
  5  9  1  0
  9 10  2  0
 10 11  1  0
 11 12  1  0
 12 13  2  0
 13 14  1  0
 14 15  2  0
 15 16  1  0
 15 17  1  0
 17 18  2  0
 11 19  1  0
 19 20  1  0
 20 21  1  0
 21 22  2  0
 22 23  1  0
 23 24  1  0
 22 25  1  0
 25 26  2  0
 26 27  1  0
 27 28  2  0
 28 29  1  0
 28 30  1  0
 30 31  1  0
 19 32  1  0
 32 33  2  0
 10  3  1  0
 18 12  1  0
 31 20  2  0
  8  6  1  0
 32  9  1  0
 30 25  1  0
  1 34  1  0
  1 35  1  0
  1 36  1  0
  2 37  1  0
  2 38  1  0
  6 39  1  0
  7 40  1  0
  7 41  1  0
  8 42  1  0
  8 43  1  0
 11 44  1  0
 13 45  1  0
 14 46  1  0
 17 47  1  0
 18 48  1  0
 21 49  1  0
 24 50  1  0
 24 51  1  0
 24 52  1  0
 29 53  1  0
 29 54  1  0
 29 55  1  0
 31 56  1  0
M  END
$$$$
