@<TRIPOS>MOLECULE
*****
 56 61 0 0 0
SMALL
GASTEIGER

@<TRIPOS>ATOM
      1 C          -4.0012    1.6967   -1.0670 C.3     1  UNL1       -0.0598
      2 C          -3.8385    0.3208   -1.6279 C.3     1  UNL1       -0.0111
      3 C          -3.1043   -0.5952   -0.6844 C.ar    1  UNL1        0.0688
      4 N          -3.6390   -1.5632    0.0827 N.ar    1  UNL1       -0.1749
      5 N          -2.7266   -2.1902    0.8010 N.ar    1  UNL1       -0.2556
      6 C          -2.9234   -3.2909    1.7450 C.3     1  UNL1        0.0537
      7 C          -3.8372   -3.1644    2.8893 C.3     1  UNL1       -0.0285
      8 C          -4.2718   -3.9277    1.6564 C.3     1  UNL1       -0.0285
      9 C          -1.5538   -1.6081    0.4892 C.ar    1  UNL1        0.1297
     10 C          -1.7553   -0.6074   -0.4359 C.ar    1  UNL1        0.0307
     11 C          -0.4689    0.0558   -0.7869 C.3     1  UNL1        0.0854
     12 C          -0.5649    1.5084   -0.4165 C.ar    1  UNL1       -0.0221
     13 C          -0.6086    2.4742   -1.4184 C.ar    1  UNL1       -0.0551
     14 C          -0.7047    3.8064   -1.1061 C.ar    1  UNL1       -0.0431
     15 C          -0.7583    4.1934    0.2055 C.ar    1  UNL1        0.0410
     16 CL         -0.8801    5.8770    0.6296 Cl      1  UNL1       -0.0835
     17 C          -0.7170    3.2622    1.2096 C.ar    1  UNL1       -0.0431
     18 C          -0.6202    1.9198    0.8964 C.ar    1  UNL1       -0.0551
     19 N           0.5445   -0.6415   -0.0245 N.am    1  UNL1       -0.2530
     20 C           1.9331   -0.3681   -0.0808 C.ar    1  UNL1        0.0577
     21 C           2.5888    0.4978    0.7418 C.ar    1  UNL1        0.0067
     22 C           3.9564    0.6983    0.6055 C.ar    1  UNL1        0.1663
     23 O           4.6400    1.5852    1.4445 O.3     1  UNL1       -0.4913
     24 C           3.9405    2.3013    2.4576 C.3     1  UNL1        0.0790
     25 C           4.6449    0.0125   -0.3702 C.ar    1  UNL1        0.2032
     26 N           5.9413    0.0057   -0.7257 N.ar    1  UNL1       -0.1256
     27 N           6.0964   -0.8302   -1.7307 N.ar    1  UNL1       -0.1339
     28 C           4.9227   -1.3721   -2.0407 C.ar    1  UNL1        0.1348
     29 C           4.5592   -2.3598   -3.0813 C.3     1  UNL1       -0.0041
     30 N           4.0197   -0.8397   -1.1850 N.ar    1  UNL1       -0.2819
     31 C           2.7120   -1.0212   -1.0430 C.ar    1  UNL1        0.0346
     32 C          -0.1359   -1.6400    0.7541 C.2     1  UNL1        0.2700
     33 O           0.4382   -2.4194    1.5462 O.2     1  UNL1       -0.2679
     34 H          -5.0747    1.9218   -0.9447 H       1  UNL1        0.0233
     35 H          -3.4317    1.8325   -0.1255 H       1  UNL1        0.0233
     36 H          -3.6245    2.4143   -1.8412 H       1  UNL1        0.0233
     37 H          -4.8342   -0.1323   -1.8056 H       1  UNL1        0.0326
     38 H          -3.3064    0.2985   -2.5966 H       1  UNL1        0.0326
     39 H          -2.0726   -4.0281    1.7691 H       1  UNL1        0.0545
     40 H          -4.2883   -2.1810    3.0747 H       1  UNL1        0.0286
     41 H          -3.5699   -3.7971    3.7861 H       1  UNL1        0.0286
     42 H          -4.3434   -5.0353    1.6974 H       1  UNL1        0.0286
     43 H          -5.0619   -3.4474    1.0586 H       1  UNL1        0.0286
     44 H          -0.2612   -0.0082   -1.8766 H       1  UNL1        0.0606
     45 H          -0.5629    2.1182   -2.4542 H       1  UNL1        0.0621
     46 H          -0.7369    4.5409   -1.9219 H       1  UNL1        0.0632
     47 H          -0.7593    3.5597    2.2592 H       1  UNL1        0.0632
     48 H          -0.5860    1.1679    1.6764 H       1  UNL1        0.0621
     49 H           2.0390    1.0241    1.5014 H       1  UNL1        0.0674
     50 H           3.5157    1.5962    3.1879 H       1  UNL1        0.0660
     51 H           3.0797    2.8655    1.9948 H       1  UNL1        0.0660
     52 H           4.6375    3.0223    2.9314 H       1  UNL1        0.0660
     53 H           5.2704   -2.4120   -3.9103 H       1  UNL1        0.0308
     54 H           4.3784   -3.3402   -2.5934 H       1  UNL1        0.0308
     55 H           3.5736   -2.0470   -3.4992 H       1  UNL1        0.0308
     56 H           2.1916   -1.7096   -1.6973 H       1  UNL1        0.0833
@<TRIPOS>BOND
     1     1     2    1
     2     2     3    1
     3     3     4   ar
     4     4     5   ar
     5     5     6    1
     6     6     7    1
     7     7     8    1
     8     5     9   ar
     9     9    10   ar
    10    10    11    1
    11    11    12    1
    12    12    13   ar
    13    13    14   ar
    14    14    15   ar
    15    15    16    1
    16    15    17   ar
    17    17    18   ar
    18    11    19    1
    19    19    20    1
    20    20    21   ar
    21    21    22   ar
    22    22    23    1
    23    23    24    1
    24    22    25   ar
    25    25    26   ar
    26    26    27   ar
    27    27    28   ar
    28    28    29    1
    29    28    30   ar
    30    30    31   ar
    31    19    32   am
    32    32    33    2
    33    10     3   ar
    34    18    12   ar
    35    31    20   ar
    36     8     6    1
    37    32     9    1
    38    30    25   ar
    39     1    34    1
    40     1    35    1
    41     1    36    1
    42     2    37    1
    43     2    38    1
    44     6    39    1
    45     7    40    1
    46     7    41    1
    47     8    42    1
    48     8    43    1
    49    11    44    1
    50    13    45    1
    51    14    46    1
    52    17    47    1
    53    18    48    1
    54    21    49    1
    55    24    50    1
    56    24    51    1
    57    24    52    1
    58    29    53    1
    59    29    54    1
    60    29    55    1
    61    31    56    1
