@<TRIPOS>MOLECULE
*****
 69 73 0 0 0
SMALL
GASTEIGER

@<TRIPOS>ATOM
      1 C           2.8879   -3.0165   -1.7193 C.3     1  UNL1       -0.0362
      2 C           3.7363   -2.0047   -1.0378 C.ar    1  UNL1       -0.0062
      3 C           5.1021   -1.9377   -1.2797 C.ar    1  UNL1        0.0361
      4 N           5.8463   -1.0129   -0.6524 N.ar    1  UNL1       -0.2224
      5 C           5.3541   -0.1145    0.2237 C.ar    1  UNL1        0.2201
      6 N           6.1761    0.8443    0.8700 N.pl3   1  UNL1       -0.2809
      7 C           7.5668    0.9799    0.6943 C.ar    1  UNL1        0.0744
      8 C           8.4117    0.2593   -0.1136 C.ar    1  UNL1        0.0467
      9 N           9.6754    0.7063    0.0095 N.ar    1  UNL1       -0.2724
     10 C          10.8858    0.2636   -0.6322 C.3     1  UNL1        0.0303
     11 N           9.6307    1.6934    0.8811 N.ar    1  UNL1       -0.1748
     12 C           8.3863    1.9116    1.3346 C.ar    1  UNL1        0.0811
     13 C           7.9600    2.9312    2.3158 C.3     1  UNL1       -0.0188
     14 N           4.0249   -0.1859    0.4537 N.ar    1  UNL1       -0.2139
     15 C           3.2306   -1.0893   -0.1442 C.ar    1  UNL1        0.0809
     16 C           1.8061   -1.1062    0.1567 C.ar    1  UNL1        0.0258
     17 C           1.0551   -2.1658    0.5980 C.ar    1  UNL1        0.0120
     18 N          -0.2089   -1.7486    0.7606 N.ar    1  UNL1       -0.3586
     19 C          -0.3203   -0.4493    0.4419 C.ar    1  UNL1        0.0686
     20 C          -1.3903    0.4292    0.4435 C.ar    1  UNL1        0.0576
     21 N          -2.6688   -0.0114    0.8404 N.am    1  UNL1       -0.2825
     22 C          -3.6557   -0.5264   -0.0384 C.2     1  UNL1        0.2342
     23 O          -3.4054   -0.6122   -1.2621 O.2     1  UNL1       -0.2738
     24 C          -4.9588   -0.9472    0.5222 C.3     1  UNL1        0.0848
     25 C          -5.4648    0.0232    1.5646 C.3     1  UNL1       -0.0409
     26 N          -5.9148   -1.3456   -0.4483 N.3     1  UNL1       -0.2893
     27 C          -6.3047   -0.3990   -1.4253 C.3     1  UNL1        0.0124
     28 C          -7.2808    0.6483   -0.9813 C.3     1  UNL1        0.0114
     29 N          -8.3268    0.0591   -0.2033 N.3     1  UNL1       -0.3029
     30 C          -9.6281    0.6019   -0.5324 C.3     1  UNL1       -0.0127
     31 C          -8.3751   -1.3684   -0.2751 C.3     1  UNL1        0.0114
     32 C          -7.0587   -2.0223    0.0593 C.3     1  UNL1        0.0124
     33 C          -1.1776    1.7389    0.0537 C.ar    1  UNL1       -0.0384
     34 C           0.0608    2.1962   -0.3346 C.ar    1  UNL1       -0.0593
     35 C           1.1068    1.2979   -0.3253 C.ar    1  UNL1       -0.0518
     36 C           0.9482   -0.0370    0.0594 C.ar    1  UNL1        0.0107
     37 H           1.9681   -2.5536   -2.1433 H       1  UNL1        0.0279
     38 H           2.6815   -3.8901   -1.0842 H       1  UNL1        0.0279
     39 H           3.4369   -3.4178   -2.6210 H       1  UNL1        0.0279
     40 H           5.5208   -2.6512   -1.9824 H       1  UNL1        0.0834
     41 H           5.6960    1.5035    1.5330 H       1  UNL1        0.1551
     42 H           8.1518   -0.5575   -0.7722 H       1  UNL1        0.0845
     43 H          10.8894   -0.8206   -0.8689 H       1  UNL1        0.0473
     44 H          11.0765    0.8095   -1.5844 H       1  UNL1        0.0473
     45 H          11.7889    0.4814    0.0035 H       1  UNL1        0.0473
     46 H           8.6420    3.8053    2.3068 H       1  UNL1        0.0294
     47 H           8.0477    2.5050    3.3506 H       1  UNL1        0.0294
     48 H           6.8990    3.2222    2.1673 H       1  UNL1        0.0294
     49 H           1.3787   -3.1903    0.7991 H       1  UNL1        0.0814
     50 H          -1.0356   -2.3400    1.0953 H       1  UNL1        0.1654
     51 H          -2.9250    0.0381    1.8598 H       1  UNL1        0.1549
     52 H          -4.7133   -1.8922    1.1040 H       1  UNL1        0.0556
     53 H          -5.2844    1.0744    1.3027 H       1  UNL1        0.0249
     54 H          -6.4928   -0.2114    1.8722 H       1  UNL1        0.0249
     55 H          -4.8469   -0.1506    2.4908 H       1  UNL1        0.0249
     56 H          -5.4924    0.1248   -1.9627 H       1  UNL1        0.0439
     57 H          -6.8352   -0.9791   -2.2401 H       1  UNL1        0.0439
     58 H          -7.7403    1.0748   -1.9230 H       1  UNL1        0.0439
     59 H          -6.7869    1.5183   -0.4993 H       1  UNL1        0.0439
     60 H          -9.7946    1.5700   -0.0038 H       1  UNL1        0.0391
     61 H          -9.7515    0.7185   -1.6393 H       1  UNL1        0.0391
     62 H         -10.4531   -0.0738   -0.2044 H       1  UNL1        0.0391
     63 H          -8.7715   -1.7075   -1.2636 H       1  UNL1        0.0439
     64 H          -9.1192   -1.7128    0.4786 H       1  UNL1        0.0439
     65 H          -7.0372   -2.1982    1.1512 H       1  UNL1        0.0439
     66 H          -7.0895   -3.0400   -0.4151 H       1  UNL1        0.0439
     67 H          -2.0393    2.3998    0.0660 H       1  UNL1        0.0637
     68 H           0.2041    3.2193   -0.6350 H       1  UNL1        0.0618
     69 H           2.1151    1.5716   -0.6163 H       1  UNL1        0.0624
@<TRIPOS>BOND
     1     1     2    1
     2     2     3   ar
     3     3     4   ar
     4     4     5   ar
     5     5     6    1
     6     6     7    1
     7     7     8   ar
     8     8     9   ar
     9     9    10    1
    10     9    11   ar
    11    11    12   ar
    12    12    13    1
    13     5    14   ar
    14    14    15   ar
    15    15    16    1
    16    16    17   ar
    17    17    18   ar
    18    18    19   ar
    19    19    20   ar
    20    20    21    1
    21    21    22   am
    22    22    23    2
    23    22    24    1
    24    24    25    1
    25    24    26    1
    26    26    27    1
    27    27    28    1
    28    28    29    1
    29    29    30    1
    30    29    31    1
    31    31    32    1
    32    20    33   ar
    33    33    34   ar
    34    34    35   ar
    35    35    36   ar
    36    15     2   ar
    37    36    16   ar
    38    12     7   ar
    39    36    19   ar
    40    32    26    1
    41     1    37    1
    42     1    38    1
    43     1    39    1
    44     3    40    1
    45     6    41    1
    46     8    42    1
    47    10    43    1
    48    10    44    1
    49    10    45    1
    50    13    46    1
    51    13    47    1
    52    13    48    1
    53    17    49    1
    54    18    50    1
    55    21    51    1
    56    24    52    1
    57    25    53    1
    58    25    54    1
    59    25    55    1
    60    27    56    1
    61    27    57    1
    62    28    58    1
    63    28    59    1
    64    30    60    1
    65    30    61    1
    66    30    62    1
    67    31    63    1
    68    31    64    1
    69    32    65    1
    70    32    66    1
    71    33    67    1
    72    34    68    1
    73    35    69    1
