
     RDKit          3D

 69 73  0  0  0  0  0  0  0  0999 V2000
    2.8879   -3.0165   -1.7193 C   0  0  0  0  0  0  0  0  0  0  0  0
    3.7363   -2.0047   -1.0378 C   0  0  0  0  0  0  0  0  0  0  0  0
    5.1021   -1.9377   -1.2797 C   0  0  0  0  0  0  0  0  0  0  0  0
    5.8463   -1.0129   -0.6524 N   0  0  0  0  0  0  0  0  0  0  0  0
    5.3541   -0.1145    0.2237 C   0  0  0  0  0  0  0  0  0  0  0  0
    6.1761    0.8443    0.8700 N   0  0  0  0  0  0  0  0  0  0  0  0
    7.5668    0.9799    0.6943 C   0  0  0  0  0  0  0  0  0  0  0  0
    8.4117    0.2593   -0.1136 C   0  0  0  0  0  0  0  0  0  0  0  0
    9.6754    0.7063    0.0095 N   0  0  0  0  0  0  0  0  0  0  0  0
   10.8858    0.2636   -0.6322 C   0  0  0  0  0  0  0  0  0  0  0  0
    9.6307    1.6934    0.8811 N   0  0  0  0  0  0  0  0  0  0  0  0
    8.3863    1.9116    1.3346 C   0  0  0  0  0  0  0  0  0  0  0  0
    7.9600    2.9312    2.3158 C   0  0  0  0  0  0  0  0  0  0  0  0
    4.0249   -0.1859    0.4537 N   0  0  0  0  0  0  0  0  0  0  0  0
    3.2306   -1.0893   -0.1442 C   0  0  0  0  0  0  0  0  0  0  0  0
    1.8061   -1.1062    0.1567 C   0  0  0  0  0  0  0  0  0  0  0  0
    1.0551   -2.1658    0.5980 C   0  0  0  0  0  0  0  0  0  0  0  0
   -0.2089   -1.7486    0.7606 N   0  0  0  0  0  0  0  0  0  0  0  0
   -0.3203   -0.4493    0.4419 C   0  0  0  0  0  0  0  0  0  0  0  0
   -1.3903    0.4292    0.4435 C   0  0  0  0  0  0  0  0  0  0  0  0
   -2.6688   -0.0114    0.8404 N   0  0  0  0  0  0  0  0  0  0  0  0
   -3.6557   -0.5264   -0.0384 C   0  0  0  0  0  0  0  0  0  0  0  0
   -3.4054   -0.6122   -1.2621 O   0  0  0  0  0  0  0  0  0  0  0  0
   -4.9588   -0.9472    0.5222 C   0  0  1  0  0  0  0  0  0  0  0  0
   -5.4648    0.0232    1.5646 C   0  0  0  0  0  0  0  0  0  0  0  0
   -5.9148   -1.3456   -0.4483 N   0  0  0  0  0  0  0  0  0  0  0  0
   -6.3047   -0.3990   -1.4253 C   0  0  0  0  0  0  0  0  0  0  0  0
   -7.2808    0.6483   -0.9813 C   0  0  0  0  0  0  0  0  0  0  0  0
   -8.3268    0.0591   -0.2033 N   0  0  0  0  0  0  0  0  0  0  0  0
   -9.6281    0.6019   -0.5324 C   0  0  0  0  0  0  0  0  0  0  0  0
   -8.3751   -1.3684   -0.2751 C   0  0  0  0  0  0  0  0  0  0  0  0
   -7.0587   -2.0223    0.0593 C   0  0  0  0  0  0  0  0  0  0  0  0
   -1.1776    1.7389    0.0537 C   0  0  0  0  0  0  0  0  0  0  0  0
    0.0608    2.1962   -0.3346 C   0  0  0  0  0  0  0  0  0  0  0  0
    1.1068    1.2979   -0.3253 C   0  0  0  0  0  0  0  0  0  0  0  0
    0.9482   -0.0370    0.0594 C   0  0  0  0  0  0  0  0  0  0  0  0
    1.9681   -2.5536   -2.1433 H   0  0  0  0  0  0  0  0  0  0  0  0
    2.6815   -3.8901   -1.0842 H   0  0  0  0  0  0  0  0  0  0  0  0
    3.4369   -3.4178   -2.6210 H   0  0  0  0  0  0  0  0  0  0  0  0
    5.5208   -2.6512   -1.9824 H   0  0  0  0  0  0  0  0  0  0  0  0
    5.6960    1.5035    1.5330 H   0  0  0  0  0  0  0  0  0  0  0  0
    8.1518   -0.5575   -0.7722 H   0  0  0  0  0  0  0  0  0  0  0  0
   10.8894   -0.8206   -0.8689 H   0  0  0  0  0  0  0  0  0  0  0  0
   11.0765    0.8095   -1.5844 H   0  0  0  0  0  0  0  0  0  0  0  0
   11.7889    0.4814    0.0035 H   0  0  0  0  0  0  0  0  0  0  0  0
    8.6420    3.8053    2.3068 H   0  0  0  0  0  0  0  0  0  0  0  0
    8.0477    2.5050    3.3506 H   0  0  0  0  0  0  0  0  0  0  0  0
    6.8990    3.2222    2.1673 H   0  0  0  0  0  0  0  0  0  0  0  0
    1.3787   -3.1903    0.7991 H   0  0  0  0  0  0  0  0  0  0  0  0
   -1.0356   -2.3400    1.0953 H   0  0  0  0  0  0  0  0  0  0  0  0
   -2.9250    0.0381    1.8598 H   0  0  0  0  0  0  0  0  0  0  0  0
   -4.7133   -1.8922    1.1040 H   0  0  0  0  0  0  0  0  0  0  0  0
   -5.2844    1.0744    1.3027 H   0  0  0  0  0  0  0  0  0  0  0  0
   -6.4928   -0.2114    1.8722 H   0  0  0  0  0  0  0  0  0  0  0  0
   -4.8469   -0.1506    2.4908 H   0  0  0  0  0  0  0  0  0  0  0  0
   -5.4924    0.1248   -1.9627 H   0  0  0  0  0  0  0  0  0  0  0  0
   -6.8352   -0.9791   -2.2401 H   0  0  0  0  0  0  0  0  0  0  0  0
   -7.7403    1.0748   -1.9230 H   0  0  0  0  0  0  0  0  0  0  0  0
   -6.7869    1.5183   -0.4993 H   0  0  0  0  0  0  0  0  0  0  0  0
   -9.7946    1.5700   -0.0038 H   0  0  0  0  0  0  0  0  0  0  0  0
   -9.7515    0.7185   -1.6393 H   0  0  0  0  0  0  0  0  0  0  0  0
  -10.4531   -0.0738   -0.2044 H   0  0  0  0  0  0  0  0  0  0  0  0
   -8.7715   -1.7075   -1.2636 H   0  0  0  0  0  0  0  0  0  0  0  0
   -9.1192   -1.7128    0.4786 H   0  0  0  0  0  0  0  0  0  0  0  0
   -7.0372   -2.1982    1.1512 H   0  0  0  0  0  0  0  0  0  0  0  0
   -7.0895   -3.0400   -0.4151 H   0  0  0  0  0  0  0  0  0  0  0  0
   -2.0393    2.3998    0.0660 H   0  0  0  0  0  0  0  0  0  0  0  0
    0.2041    3.2193   -0.6350 H   0  0  0  0  0  0  0  0  0  0  0  0
    2.1151    1.5716   -0.6163 H   0  0  0  0  0  0  0  0  0  0  0  0
  1  2  1  0
  2  3  2  0
  3  4  1  0
  4  5  2  0
  5  6  1  0
  6  7  1  0
  7  8  2  0
  8  9  1  0
  9 10  1  0
  9 11  1  0
 11 12  2  0
 12 13  1  0
  5 14  1  0
 14 15  2  0
 15 16  1  0
 16 17  2  0
 17 18  1  0
 18 19  1  0
 19 20  2  0
 20 21  1  0
 21 22  1  0
 22 23  2  0
 22 24  1  0
 24 25  1  0
 24 26  1  0
 26 27  1  0
 27 28  1  0
 28 29  1  0
 29 30  1  0
 29 31  1  0
 31 32  1  0
 20 33  1  0
 33 34  2  0
 34 35  1  0
 35 36  2  0
 15  2  1  0
 36 16  1  0
 12  7  1  0
 36 19  1  0
 32 26  1  0
  1 37  1  0
  1 38  1  0
  1 39  1  0
  3 40  1  0
  6 41  1  0
  8 42  1  0
 10 43  1  0
 10 44  1  0
 10 45  1  0
 13 46  1  0
 13 47  1  0
 13 48  1  0
 17 49  1  0
 18 50  1  0
 21 51  1  0
 24 52  1  1
 25 53  1  0
 25 54  1  0
 25 55  1  0
 27 56  1  0
 27 57  1  0
 28 58  1  0
 28 59  1  0
 30 60  1  0
 30 61  1  0
 30 62  1  0
 31 63  1  0
 31 64  1  0
 32 65  1  0
 32 66  1  0
 33 67  1  0
 34 68  1  0
 35 69  1  0
M  END
$$$$
