@<TRIPOS>MOLECULE
*****
 17 16 0 0 0
SMALL
GASTEIGER

@<TRIPOS>ATOM
      1 N          -0.8562   -1.6688    0.2764 N.3     1  ASN1       -0.3180
      2 CA         -0.7223   -0.2289    0.4896 C.3     1  ASN1        0.1115
      3 CB          0.4640    0.2974   -0.3059 C.3     1  ASN1        0.0493
      4 CG          1.7197   -0.3682    0.1232 C.2     1  ASN1        0.2125
      5 ND2         2.9344   -0.0234   -0.4895 N.am    1  ASN1       -0.3293
      6 OD1         1.7129   -1.2339    1.0244 O.2     1  ASN1       -0.2760
      7 C          -1.9795    0.3804    0.0196 C.2     1  ASN1        0.3222
      8 O          -2.0724    1.7608    0.1295 O.3     1  ASN1       -0.4795
      9 OXT        -2.9771   -0.1986   -0.4686 O.2     1  ASN1       -0.2492
     10 H1         -1.5614   -1.8627   -0.4640 H       1  ASN1        0.1190
     11 H2         -0.9497   -2.2100    1.1397 H       1  ASN1        0.1190
     12 HA         -0.5281   -0.0598    1.5555 H       1  ASN1        0.0579
     13 HB1         0.3315    0.1327   -1.3900 H       1  ASN1        0.0379
     14 HB2         0.5107    1.3838   -0.1052 H       1  ASN1        0.0379
     15 HD21        3.1091    1.0071   -0.4326 H       1  ASN1        0.1449
     16 HD22        3.6717    0.6205   -0.7971 H       1  ASN1        0.1449
     17 H          -2.8075    2.2717   -0.3050 H       1  ASN1        0.2951
@<TRIPOS>BOND
     1     1     2    1
     2     2     3    1
     3     3     4    1
     4     4     5   am
     5     4     6    2
     6     2     7    1
     7     7     8    1
     8     7     9    2
     9     1    10    1
    10     1    11    1
    11     2    12    1
    12     3    13    1
    13     3    14    1
    14     5    15    1
    15     5    16    1
    16     8    17    1
