@<TRIPOS>MOLECULE
*****
 46 49 0 0 0
SMALL
GASTEIGER

@<TRIPOS>ATOM
      1 C           2.8412   -4.4673   -0.8715 C.3     1  UNL1        0.0788
      2 O           3.5013   -3.2715   -0.6195 O.3     1  UNL1       -0.4951
      3 C           2.9269   -2.0409   -0.3433 C.ar    1  UNL1        0.1213
      4 C           3.7445   -0.9519   -0.1167 C.ar    1  UNL1       -0.0128
      5 C           3.1618    0.2682    0.1573 C.ar    1  UNL1       -0.0215
      6 C           1.7870    0.3762    0.1993 C.ar    1  UNL1       -0.0910
      7 O           1.2905    1.6249    0.4784 O.co2   1  UNL1       -0.8728
      8 C           0.9345   -0.6838   -0.0205 C.ar    1  UNL1       -0.0054
      9 C           1.5586   -1.8698   -0.2876 C.ar    1  UNL1       -0.0114
     10 C          -0.5175   -0.5717    0.0235 C.ar    1  UNL1        0.0470
     11 C          -1.3404    0.4820    0.2647 C.ar    1  UNL1       -0.0287
     12 C          -2.6716    0.1256    0.2048 C.ar    1  UNL1        0.0011
     13 C          -3.8438    0.8300    0.3744 C.ar    1  UNL1       -0.0378
     14 C          -5.0386    0.1758    0.2477 C.ar    1  UNL1        0.0615
     15 C          -5.0224   -1.1688   -0.0462 C.ar    1  UNL1       -0.0451
     16 C          -3.8391   -1.8946   -0.2206 C.ar    1  UNL1       -0.0370
     17 C          -2.6336   -1.2208   -0.0897 C.ar    1  UNL1        0.0470
     18 N          -1.3538   -1.6034   -0.1905 N.ar    1  UNL1       -0.3542
     19 C          -6.2867    0.9013    0.4229 C.2     1  UNL1        0.2662
     20 N          -6.5098    2.2681    0.1430 N.pl3   1  UNL1       -0.2497
     21 N          -7.2725    0.2229    0.8763 N.2     1  UNL1       -0.2884
     22 C           4.0396    1.4096    0.3945 C.ar    1  UNL1       -0.0183
     23 C           3.7926    2.6387   -0.1900 C.ar    1  UNL1       -0.0540
     24 C           4.5843    3.7488   -0.0030 C.ar    1  UNL1       -0.0612
     25 C           5.6993    3.6570    0.8133 C.ar    1  UNL1       -0.0617
     26 C           5.9410    2.4237    1.3954 C.ar    1  UNL1       -0.0612
     27 C           5.1551    1.3063    1.2150 C.ar    1  UNL1       -0.0540
     28 H           3.5448   -5.3026   -0.6802 H       1  UNL1        0.0660
     29 H           2.6801   -4.5016   -1.9878 H       1  UNL1        0.0660
     30 H           1.8585   -4.5968   -0.4175 H       1  UNL1        0.0660
     31 H           4.8051   -1.1029   -0.1639 H       1  UNL1        0.0660
     32 H           0.9735   -2.7598   -0.4739 H       1  UNL1        0.0660
     33 H          -1.0221    1.4925    0.4811 H       1  UNL1        0.0645
     34 H          -3.8645    1.8718    0.6022 H       1  UNL1        0.0632
     35 H          -5.9503   -1.7384   -0.1581 H       1  UNL1        0.0627
     36 H          -3.8253   -2.9474   -0.4508 H       1  UNL1        0.0638
     37 H          -1.0922   -2.5973   -0.4111 H       1  UNL1        0.1659
     38 H          -6.4677    2.9343    0.9471 H       1  UNL1        0.2883
     39 H          -6.7077    2.5981   -0.8226 H       1  UNL1        0.2883
     40 H          -8.2170   -0.0424    1.2138 H       1  UNL1        0.3009
     41 H          -7.2431   -0.8016    1.1256 H       1  UNL1        0.3009
     42 H           2.9391    2.7967   -0.8441 H       1  UNL1        0.0624
     43 H           4.3901    4.7040   -0.4588 H       1  UNL1        0.0618
     44 H           6.3387    4.5157    0.9770 H       1  UNL1        0.0618
     45 H           6.8268    2.3899    2.0308 H       1  UNL1        0.0618
     46 H           5.4046    0.3732    1.7024 H       1  UNL1        0.0624
@<TRIPOS>UNITY_ATOM_ATTR
7 1
charge -1
21 1
charge 1
@<TRIPOS>BOND
     1     1     2    1
     2     2     3    1
     3     3     4   ar
     4     4     5   ar
     5     5     6   ar
     6     6     7    1
     7     6     8   ar
     8     8     9   ar
     9     8    10    1
    10    10    11   ar
    11    11    12   ar
    12    12    13   ar
    13    13    14   ar
    14    14    15   ar
    15    15    16   ar
    16    16    17   ar
    17    17    18   ar
    18    14    19    1
    19    19    20    1
    20    19    21    2
    21     5    22    1
    22    22    23   ar
    23    23    24   ar
    24    24    25   ar
    25    25    26   ar
    26    26    27   ar
    27     9     3   ar
    28    18    10   ar
    29    27    22   ar
    30    17    12   ar
    31     1    28    1
    32     1    29    1
    33     1    30    1
    34     4    31    1
    35     9    32    1
    36    11    33    1
    37    13    34    1
    38    15    35    1
    39    16    36    1
    40    18    37    1
    41    20    38    1
    42    20    39    1
    43    21    40    1
    44    21    41    1
    45    23    42    1
    46    24    43    1
    47    25    44    1
    48    26    45    1
    49    27    46    1
