
     RDKit          3D

 46 49  0  0  0  0  0  0  0  0999 V2000
    2.8412   -4.4673   -0.8715 C   0  0  0  0  0  0  0  0  0  0  0  0
    3.5013   -3.2715   -0.6195 O   0  0  0  0  0  0  0  0  0  0  0  0
    2.9269   -2.0409   -0.3433 C   0  0  0  0  0  0  0  0  0  0  0  0
    3.7445   -0.9519   -0.1167 C   0  0  0  0  0  0  0  0  0  0  0  0
    3.1618    0.2682    0.1573 C   0  0  0  0  0  0  0  0  0  0  0  0
    1.7870    0.3762    0.1993 C   0  0  0  0  0  0  0  0  0  0  0  0
    1.2905    1.6249    0.4784 O   0  0  0  0  0  1  0  0  0  0  0  0
    0.9345   -0.6838   -0.0205 C   0  0  0  0  0  0  0  0  0  0  0  0
    1.5586   -1.8698   -0.2876 C   0  0  0  0  0  0  0  0  0  0  0  0
   -0.5175   -0.5717    0.0235 C   0  0  0  0  0  0  0  0  0  0  0  0
   -1.3404    0.4820    0.2647 C   0  0  0  0  0  0  0  0  0  0  0  0
   -2.6716    0.1256    0.2048 C   0  0  0  0  0  0  0  0  0  0  0  0
   -3.8438    0.8300    0.3744 C   0  0  0  0  0  0  0  0  0  0  0  0
   -5.0386    0.1758    0.2477 C   0  0  0  0  0  0  0  0  0  0  0  0
   -5.0224   -1.1688   -0.0462 C   0  0  0  0  0  0  0  0  0  0  0  0
   -3.8391   -1.8946   -0.2206 C   0  0  0  0  0  0  0  0  0  0  0  0
   -2.6336   -1.2208   -0.0897 C   0  0  0  0  0  0  0  0  0  0  0  0
   -1.3538   -1.6034   -0.1905 N   0  0  0  0  0  0  0  0  0  0  0  0
   -6.2867    0.9013    0.4229 C   0  0  0  0  0  0  0  0  0  0  0  0
   -6.5098    2.2681    0.1430 N   0  0  0  0  0  0  0  0  0  0  0  0
   -7.2725    0.2229    0.8763 N   0  0  0  0  0  4  0  0  0  0  0  0
    4.0396    1.4096    0.3945 C   0  0  0  0  0  0  0  0  0  0  0  0
    3.7926    2.6387   -0.1900 C   0  0  0  0  0  0  0  0  0  0  0  0
    4.5843    3.7488   -0.0030 C   0  0  0  0  0  0  0  0  0  0  0  0
    5.6993    3.6570    0.8133 C   0  0  0  0  0  0  0  0  0  0  0  0
    5.9410    2.4237    1.3954 C   0  0  0  0  0  0  0  0  0  0  0  0
    5.1551    1.3063    1.2150 C   0  0  0  0  0  0  0  0  0  0  0  0
    3.5448   -5.3026   -0.6802 H   0  0  0  0  0  0  0  0  0  0  0  0
    2.6801   -4.5016   -1.9878 H   0  0  0  0  0  0  0  0  0  0  0  0
    1.8585   -4.5968   -0.4175 H   0  0  0  0  0  0  0  0  0  0  0  0
    4.8051   -1.1029   -0.1639 H   0  0  0  0  0  0  0  0  0  0  0  0
    0.9735   -2.7598   -0.4739 H   0  0  0  0  0  0  0  0  0  0  0  0
   -1.0221    1.4925    0.4811 H   0  0  0  0  0  0  0  0  0  0  0  0
   -3.8645    1.8718    0.6022 H   0  0  0  0  0  0  0  0  0  0  0  0
   -5.9503   -1.7384   -0.1581 H   0  0  0  0  0  0  0  0  0  0  0  0
   -3.8253   -2.9474   -0.4508 H   0  0  0  0  0  0  0  0  0  0  0  0
   -1.0922   -2.5973   -0.4111 H   0  0  0  0  0  0  0  0  0  0  0  0
   -6.4677    2.9343    0.9471 H   0  0  0  0  0  0  0  0  0  0  0  0
   -6.7077    2.5981   -0.8226 H   0  0  0  0  0  0  0  0  0  0  0  0
   -8.2170   -0.0424    1.2138 H   0  0  0  0  0  0  0  0  0  0  0  0
   -7.2431   -0.8016    1.1256 H   0  0  0  0  0  0  0  0  0  0  0  0
    2.9391    2.7967   -0.8441 H   0  0  0  0  0  0  0  0  0  0  0  0
    4.3901    4.7040   -0.4588 H   0  0  0  0  0  0  0  0  0  0  0  0
    6.3387    4.5157    0.9770 H   0  0  0  0  0  0  0  0  0  0  0  0
    6.8268    2.3899    2.0308 H   0  0  0  0  0  0  0  0  0  0  0  0
    5.4046    0.3732    1.7024 H   0  0  0  0  0  0  0  0  0  0  0  0
  1  2  1  0
  2  3  1  0
  3  4  2  0
  4  5  1  0
  5  6  2  0
  6  7  1  0
  6  8  1  0
  8  9  2  0
  8 10  1  0
 10 11  2  0
 11 12  1  0
 12 13  2  0
 13 14  1  0
 14 15  2  0
 15 16  1  0
 16 17  2  0
 17 18  1  0
 14 19  1  0
 19 20  1  0
 19 21  2  0
  5 22  1  0
 22 23  2  0
 23 24  1  0
 24 25  2  0
 25 26  1  0
 26 27  2  0
  9  3  1  0
 18 10  1  0
 27 22  1  0
 17 12  1  0
  1 28  1  0
  1 29  1  0
  1 30  1  0
  4 31  1  0
  9 32  1  0
 11 33  1  0
 13 34  1  0
 15 35  1  0
 16 36  1  0
 18 37  1  0
 20 38  1  0
 20 39  1  0
 21 40  1  0
 21 41  1  0
 23 42  1  0
 24 43  1  0
 25 44  1  0
 26 45  1  0
 27 46  1  0
M  CHG  2   7  -1  21   1
M  END
$$$$
