@<TRIPOS>MOLECULE
*****
 50 53 0 0 0
SMALL
GASTEIGER

@<TRIPOS>ATOM
      1 C           1.0762    2.3093   -2.0892 C.3     1  UNL1       -0.0405
      2 C           0.8026    2.5298   -0.6204 C.3     1  UNL1        0.0691
      3 N          -0.4816    2.0186   -0.2163 N.pl3   1  UNL1       -0.3049
      4 C          -0.8355    0.6420   -0.3444 C.ar    1  UNL1        0.2175
      5 N           0.0683   -0.1970   -0.8614 N.ar    1  UNL1       -0.2199
      6 C          -0.2061   -1.4998   -1.0059 C.ar    1  UNL1        0.0698
      7 C          -1.4651   -1.9573   -0.6005 C.ar    1  UNL1        0.1817
      8 F          -1.6990   -3.2729   -0.7798 F       1  UNL1       -0.2003
      9 C          -2.4142   -1.1228   -0.0660 C.ar    1  UNL1        0.1711
     10 N          -3.6709   -1.5488    0.3656 N.am    1  UNL1       -0.2101
     11 C          -4.1416   -2.8845    0.4379 C.2     1  UNL1        0.4088
     12 O          -3.5383   -3.9532    0.6981 O.2     1  UNL1       -0.2258
     13 O          -5.5247   -2.8356    0.1484 O.3     1  UNL1       -0.4480
     14 C          -5.9313   -1.4839    0.0977 C.3     1  UNL1        0.1155
     15 C          -4.8164   -0.7735    0.8285 C.3     1  UNL1        0.0954
     16 C          -4.7381    0.6812    0.4980 C.3     1  UNL1        0.0746
     17 C          -4.6850    0.9897   -0.9547 C.3     1  UNL1       -0.0371
     18 O          -5.9193    1.2604    1.0188 O.3     1  UNL1       -0.3901
     19 N          -2.0263    0.1816    0.0339 N.ar    1  UNL1       -0.1961
     20 C           1.9130    1.7345    0.0913 C.ar    1  UNL1        0.0989
     21 N           2.9195    1.2135   -0.0649 N.ar    1  UNL1       -0.2422
     22 C           3.6760    0.5749    0.8065 C.ar    1  UNL1        0.0785
     23 C           4.9797   -0.0658    0.4678 C.ar    1  UNL1        0.0009
     24 C           5.7185   -0.7164    1.4262 C.ar    1  UNL1       -0.0515
     25 C           6.9402   -1.3162    1.1064 C.ar    1  UNL1       -0.0471
     26 C           7.4292   -1.2664   -0.1818 C.ar    1  UNL1        0.0179
     27 BR          9.0982   -2.0792   -0.6456 Br      1  UNL1       -0.0503
     28 C           6.6964   -0.6189   -1.1416 C.ar    1  UNL1       -0.0471
     29 C           5.4943   -0.0341   -0.8050 C.ar    1  UNL1       -0.0515
     30 C           3.1764    0.5339    2.0831 C.ar    1  UNL1        0.0034
     31 S           1.6052    1.4562    1.8908 S.2     1  UNL1       -0.0781
     32 H           1.3751    1.2552   -2.2271 H       1  UNL1        0.0251
     33 H           0.2445    2.6178   -2.7397 H       1  UNL1        0.0251
     34 H           1.9901    2.9227   -2.3300 H       1  UNL1        0.0251
     35 H           0.8850    3.5836   -0.3490 H       1  UNL1        0.0566
     36 H          -1.2000    2.6566    0.1888 H       1  UNL1        0.1496
     37 H           0.5173   -2.1918   -1.4236 H       1  UNL1        0.0861
     38 H          -5.9531   -1.2081   -0.9862 H       1  UNL1        0.0718
     39 H          -6.9188   -1.3240    0.5744 H       1  UNL1        0.0718
     40 H          -4.9432   -0.8994    1.9022 H       1  UNL1        0.0565
     41 H          -3.9213    1.1237    1.1029 H       1  UNL1        0.0610
     42 H          -3.9645    1.8453   -1.1108 H       1  UNL1        0.0255
     43 H          -4.3087    0.1574   -1.5813 H       1  UNL1        0.0255
     44 H          -5.6597    1.3762   -1.3121 H       1  UNL1        0.0255
     45 H          -6.0262    2.1685    0.6013 H       1  UNL1        0.2098
     46 H           5.3447   -0.7595    2.4310 H       1  UNL1        0.0624
     47 H           7.4898   -1.8171    1.8872 H       1  UNL1        0.0629
     48 H           7.0872   -0.5803   -2.1665 H       1  UNL1        0.0629
     49 H           4.9347    0.4714   -1.5822 H       1  UNL1        0.0624
     50 H           3.5267    0.1025    3.0298 H       1  UNL1        0.0715
@<TRIPOS>BOND
     1     1     2    1
     2     2     3    1
     3     3     4    1
     4     4     5   ar
     5     5     6   ar
     6     6     7   ar
     7     7     8    1
     8     7     9   ar
     9     9    10    1
    10    10    11   am
    11    11    12    2
    12    11    13    1
    13    13    14    1
    14    14    15    1
    15    15    16    1
    16    16    17    1
    17    16    18    1
    18     9    19   ar
    19     2    20    1
    20    20    21   ar
    21    21    22   ar
    22    22    23    1
    23    23    24   ar
    24    24    25   ar
    25    25    26   ar
    26    26    27    1
    27    26    28   ar
    28    28    29   ar
    29    22    30   ar
    30    30    31   ar
    31    19     4   ar
    32    31    20   ar
    33    15    10    1
    34    29    23   ar
    35     1    32    1
    36     1    33    1
    37     1    34    1
    38     2    35    1
    39     3    36    1
    40     6    37    1
    41    14    38    1
    42    14    39    1
    43    15    40    1
    44    16    41    1
    45    17    42    1
    46    17    43    1
    47    17    44    1
    48    18    45    1
    49    24    46    1
    50    25    47    1
    51    28    48    1
    52    29    49    1
    53    30    50    1
