
     RDKit          3D

 50 53  0  0  0  0  0  0  0  0999 V2000
    1.0762    2.3093   -2.0892 C   0  0  0  0  0  0  0  0  0  0  0  0
    0.8026    2.5298   -0.6204 C   0  0  0  0  0  0  0  0  0  0  0  0
   -0.4816    2.0186   -0.2163 N   0  0  0  0  0  0  0  0  0  0  0  0
   -0.8355    0.6420   -0.3444 C   0  0  0  0  0  0  0  0  0  0  0  0
    0.0683   -0.1970   -0.8614 N   0  0  0  0  0  0  0  0  0  0  0  0
   -0.2061   -1.4998   -1.0059 C   0  0  0  0  0  0  0  0  0  0  0  0
   -1.4651   -1.9573   -0.6005 C   0  0  0  0  0  0  0  0  0  0  0  0
   -1.6990   -3.2729   -0.7798 F   0  0  0  0  0  0  0  0  0  0  0  0
   -2.4142   -1.1228   -0.0660 C   0  0  0  0  0  0  0  0  0  0  0  0
   -3.6709   -1.5488    0.3656 N   0  0  0  0  0  0  0  0  0  0  0  0
   -4.1416   -2.8845    0.4379 C   0  0  0  0  0  0  0  0  0  0  0  0
   -3.5383   -3.9532    0.6981 O   0  0  0  0  0  0  0  0  0  0  0  0
   -5.5247   -2.8356    0.1484 O   0  0  0  0  0  0  0  0  0  0  0  0
   -5.9313   -1.4839    0.0977 C   0  0  0  0  0  0  0  0  0  0  0  0
   -4.8164   -0.7735    0.8285 C   0  0  2  0  0  0  0  0  0  0  0  0
   -4.7381    0.6812    0.4980 C   0  0  1  0  0  0  0  0  0  0  0  0
   -4.6850    0.9897   -0.9547 C   0  0  0  0  0  0  0  0  0  0  0  0
   -5.9193    1.2604    1.0188 O   0  0  0  0  0  0  0  0  0  0  0  0
   -2.0263    0.1816    0.0339 N   0  0  0  0  0  0  0  0  0  0  0  0
    1.9130    1.7345    0.0913 C   0  0  0  0  0  0  0  0  0  0  0  0
    2.9195    1.2135   -0.0649 N   0  0  0  0  0  0  0  0  0  0  0  0
    3.6760    0.5749    0.8065 C   0  0  0  0  0  0  0  0  0  0  0  0
    4.9797   -0.0658    0.4678 C   0  0  0  0  0  0  0  0  0  0  0  0
    5.7185   -0.7164    1.4262 C   0  0  0  0  0  0  0  0  0  0  0  0
    6.9402   -1.3162    1.1064 C   0  0  0  0  0  0  0  0  0  0  0  0
    7.4292   -1.2664   -0.1818 C   0  0  0  0  0  0  0  0  0  0  0  0
    9.0982   -2.0792   -0.6456 Br  0  0  0  0  0  0  0  0  0  0  0  0
    6.6964   -0.6189   -1.1416 C   0  0  0  0  0  0  0  0  0  0  0  0
    5.4943   -0.0341   -0.8050 C   0  0  0  0  0  0  0  0  0  0  0  0
    3.1764    0.5339    2.0831 C   0  0  0  0  0  0  0  0  0  0  0  0
    1.6052    1.4562    1.8908 S   0  0  0  0  0  0  0  0  0  0  0  0
    1.3751    1.2552   -2.2271 H   0  0  0  0  0  0  0  0  0  0  0  0
    0.2445    2.6178   -2.7397 H   0  0  0  0  0  0  0  0  0  0  0  0
    1.9901    2.9227   -2.3300 H   0  0  0  0  0  0  0  0  0  0  0  0
    0.8850    3.5836   -0.3490 H   0  0  0  0  0  0  0  0  0  0  0  0
   -1.2000    2.6566    0.1888 H   0  0  0  0  0  0  0  0  0  0  0  0
    0.5173   -2.1918   -1.4236 H   0  0  0  0  0  0  0  0  0  0  0  0
   -5.9531   -1.2081   -0.9862 H   0  0  0  0  0  0  0  0  0  0  0  0
   -6.9188   -1.3240    0.5744 H   0  0  0  0  0  0  0  0  0  0  0  0
   -4.9432   -0.8994    1.9022 H   0  0  0  0  0  0  0  0  0  0  0  0
   -3.9213    1.1237    1.1029 H   0  0  0  0  0  0  0  0  0  0  0  0
   -3.9645    1.8453   -1.1108 H   0  0  0  0  0  0  0  0  0  0  0  0
   -4.3087    0.1574   -1.5813 H   0  0  0  0  0  0  0  0  0  0  0  0
   -5.6597    1.3762   -1.3121 H   0  0  0  0  0  0  0  0  0  0  0  0
   -6.0262    2.1685    0.6013 H   0  0  0  0  0  0  0  0  0  0  0  0
    5.3447   -0.7595    2.4310 H   0  0  0  0  0  0  0  0  0  0  0  0
    7.4898   -1.8171    1.8872 H   0  0  0  0  0  0  0  0  0  0  0  0
    7.0872   -0.5803   -2.1665 H   0  0  0  0  0  0  0  0  0  0  0  0
    4.9347    0.4714   -1.5822 H   0  0  0  0  0  0  0  0  0  0  0  0
    3.5267    0.1025    3.0298 H   0  0  0  0  0  0  0  0  0  0  0  0
  1  2  1  0
  2  3  1  0
  3  4  1  0
  4  5  2  0
  5  6  1  0
  6  7  2  0
  7  8  1  0
  7  9  1  0
  9 10  1  0
 10 11  1  0
 11 12  2  0
 11 13  1  0
 13 14  1  0
 14 15  1  0
 15 16  1  0
 16 17  1  0
 16 18  1  0
  9 19  2  0
  2 20  1  0
 20 21  2  0
 21 22  1  0
 22 23  1  0
 23 24  2  0
 24 25  1  0
 25 26  2  0
 26 27  1  0
 26 28  1  0
 28 29  2  0
 22 30  2  0
 30 31  1  0
 19  4  1  0
 31 20  1  0
 15 10  1  0
 29 23  1  0
  1 32  1  0
  1 33  1  0
  1 34  1  0
  2 35  1  0
  3 36  1  0
  6 37  1  0
 14 38  1  0
 14 39  1  0
 15 40  1  1
 16 41  1  1
 17 42  1  0
 17 43  1  0
 17 44  1  0
 18 45  1  0
 24 46  1  0
 25 47  1  0
 28 48  1  0
 29 49  1  0
 30 50  1  0
M  END
$$$$
