@<TRIPOS>MOLECULE
*****
 49 52 0 0 0
SMALL
GASTEIGER

@<TRIPOS>ATOM
      1 C           7.3764   -2.3796   -0.4728 C.3     1  UNL1        0.0124
      2 C           6.0343   -2.3426   -1.0971 C.2     1  UNL1        0.2126
      3 O           5.8512   -3.0635   -2.1291 O.2     1  UNL1       -0.2759
      4 N           4.9821   -1.5444   -0.5835 N.am    1  UNL1       -0.2981
      5 C           5.1252   -0.6963    0.5948 C.3     1  UNL1        0.0182
      6 C           3.7721   -0.8967    1.2435 C.3     1  UNL1        0.0016
      7 C           2.8601   -0.6825    0.0266 C.3     1  UNL1        0.1173
      8 O           2.7649    0.6856   -0.1730 O.3     1  UNL1       -0.4857
      9 C           1.6794    1.5005   -0.1310 C.ar    1  UNL1        0.1394
     10 C           1.8044    2.8533   -0.3625 C.ar    1  UNL1        0.0692
     11 N           0.7215    3.6813   -0.3230 N.ar    1  UNL1       -0.2592
     12 C          -0.5176    3.2347   -0.0593 C.ar    1  UNL1        0.0346
     13 C          -0.6842    1.8896    0.1774 C.ar    1  UNL1        0.0175
     14 C          -2.0513    1.4015    0.4672 C.3     1  UNL1        0.1606
     15 C          -2.1434   -0.1065    0.4063 C.3     1  UNL1        0.1308
     16 O          -3.5220   -0.4311    0.5615 O.3     1  UNL1       -0.4835
     17 C          -4.5256    0.3215   -0.0467 C.ar    1  UNL1        0.1742
     18 C          -4.2254    1.5503   -0.5673 C.ar    1  UNL1        0.1637
     19 C          -5.2328    2.2815   -1.1662 C.ar    1  UNL1       -0.0162
     20 C          -6.5236    1.8232   -1.2593 C.ar    1  UNL1       -0.0574
     21 C          -6.8291    0.5915   -0.7386 C.ar    1  UNL1       -0.0459
     22 C          -5.8208   -0.1559   -0.1316 C.ar    1  UNL1        0.0817
     23 C          -6.1177   -1.4629    0.4277 C.2     1  UNL1        0.2452
     24 N          -5.1184   -2.2428    1.0480 N.am    1  UNL1       -0.3252
     25 O          -7.2924   -1.9044    0.3549 O.2     1  UNL1       -0.2703
     26 O          -2.9183    2.0046   -0.4684 O.3     1  UNL1       -0.4771
     27 C           0.4172    1.0260    0.1406 C.ar    1  UNL1       -0.0102
     28 C           3.6278   -1.3950   -1.0673 C.3     1  UNL1        0.0517
     29 H           7.2669   -2.4019    0.6356 H       1  UNL1        0.0323
     30 H           7.9573   -3.2577   -0.7787 H       1  UNL1        0.0323
     31 H           7.8671   -1.4086   -0.7201 H       1  UNL1        0.0323
     32 H           5.2004    0.3671    0.3295 H       1  UNL1        0.0466
     33 H           5.9014   -1.0328    1.2817 H       1  UNL1        0.0466
     34 H           3.6424   -1.8886    1.6710 H       1  UNL1        0.0317
     35 H           3.5918   -0.0537    1.9203 H       1  UNL1        0.0317
     36 H           1.9076   -1.1581    0.2519 H       1  UNL1        0.0749
     37 H           2.7943    3.2329   -0.5766 H       1  UNL1        0.0867
     38 H          -1.3670    3.9294   -0.0354 H       1  UNL1        0.0833
     39 H          -2.3494    1.6885    1.5086 H       1  UNL1        0.0820
     40 H          -1.7525   -0.4945   -0.5448 H       1  UNL1        0.0738
     41 H          -1.5974   -0.5082    1.2881 H       1  UNL1        0.0738
     42 H          -4.9645    3.2466   -1.5673 H       1  UNL1        0.0655
     43 H          -7.2928    2.4000   -1.7256 H       1  UNL1        0.0619
     44 H          -7.8167    0.1782   -0.7795 H       1  UNL1        0.0626
     45 H          -4.5304   -2.9505    0.5665 H       1  UNL1        0.1453
     46 H          -4.9604   -2.0948    2.0697 H       1  UNL1        0.1453
     47 H           0.2519   -0.0063    0.3281 H       1  UNL1        0.0659
     48 H           3.5594   -0.8929   -2.0428 H       1  UNL1        0.0501
     49 H           3.1967   -2.4350   -1.1112 H       1  UNL1        0.0501
@<TRIPOS>BOND
     1     1     2    1
     2     2     3    2
     3     2     4   am
     4     4     5    1
     5     5     6    1
     6     6     7    1
     7     7     8    1
     8     8     9    1
     9     9    10   ar
    10    10    11   ar
    11    11    12   ar
    12    12    13   ar
    13    13    14    1
    14    14    15    1
    15    15    16    1
    16    16    17    1
    17    17    18   ar
    18    18    19   ar
    19    19    20   ar
    20    20    21   ar
    21    21    22   ar
    22    22    23    1
    23    23    24   am
    24    23    25    2
    25    18    26    1
    26    13    27   ar
    27     7    28    1
    28    28     4    1
    29    27     9   ar
    30    26    14    1
    31    22    17   ar
    32     1    29    1
    33     1    30    1
    34     1    31    1
    35     5    32    1
    36     5    33    1
    37     6    34    1
    38     6    35    1
    39     7    36    1
    40    10    37    1
    41    12    38    1
    42    14    39    1
    43    15    40    1
    44    15    41    1
    45    19    42    1
    46    20    43    1
    47    21    44    1
    48    24    45    1
    49    24    46    1
    50    27    47    1
    51    28    48    1
    52    28    49    1
