@<TRIPOS>MOLECULE
*****
 64 67 0 0 0
SMALL
GASTEIGER

@<TRIPOS>ATOM
      1 O           5.2293   -1.8577    0.0424 O.2     1  UNL1       -0.2702
      2 C           5.8814   -0.8392    0.3406 C.2     1  UNL1        0.2445
      3 N           5.2008    0.1827    1.0545 N.am    1  UNL1       -0.3027
      4 C           3.8063    0.0751    1.4342 C.3     1  UNL1        0.0886
      5 C           2.9376   -0.0784    0.2421 C.2     1  UNL1        0.2328
      6 O           3.4680   -0.1006   -0.9173 O.2     1  UNL1       -0.2739
      7 N           1.5445   -0.1964    0.4139 N.am    1  UNL1       -0.2987
      8 C           0.8444   -0.1836    1.6749 C.3     1  UNL1        0.0162
      9 C          -0.6257   -0.4382    1.3345 C.3     1  UNL1       -0.0202
     10 C          -0.7604    0.0414   -0.0575 C.3     1  UNL1        0.0250
     11 N          -1.8405   -0.3718   -0.8494 N.3     1  UNL1       -0.3090
     12 C          -3.1437    0.0176   -0.4779 C.3     1  UNL1        0.0081
     13 C          -4.0816   -0.2302   -1.6793 C.3     1  UNL1       -0.0346
     14 C          -5.4601    0.2329   -1.3807 C.3     1  UNL1       -0.0170
     15 C          -5.6968    0.7411    0.0074 C.3     1  UNL1        0.1077
     16 O          -5.3518    2.1173    0.0100 O.3     1  UNL1       -0.3824
     17 C          -7.1621    0.6735    0.2419 C.ar    1  UNL1        0.0727
     18 C          -7.7668   -0.4761    0.6931 C.ar    1  UNL1       -0.0376
     19 C          -9.1410   -0.5305    0.9179 C.ar    1  UNL1       -0.0585
     20 C          -9.9089    0.5891    0.6835 C.ar    1  UNL1       -0.0436
     21 C          -9.2885    1.7332    0.2315 C.ar    1  UNL1        0.0280
     22 N          -7.9620    1.7497    0.0258 N.ar    1  UNL1       -0.2570
     23 C          -4.9880    0.0369    1.0989 C.3     1  UNL1       -0.0170
     24 C          -3.7880   -0.7716    0.6375 C.3     1  UNL1       -0.0346
     25 C           0.5907   -0.3487   -0.6606 C.3     1  UNL1        0.0302
     26 C           7.2834   -0.7515   -0.0519 C.ar    1  UNL1        0.0372
     27 C           7.8837   -1.7903   -0.7451 C.ar    1  UNL1       -0.0496
     28 C           9.2100   -1.7484   -1.1372 C.ar    1  UNL1       -0.0605
     29 C           9.9793   -0.6441   -0.8381 C.ar    1  UNL1       -0.0501
     30 C           9.4172    0.4091   -0.1498 C.ar    1  UNL1        0.0555
     31 C          10.2752    1.5834    0.1557 C.3     1  UNL1        0.4174
     32 F           9.8147    2.1294    1.3559 F       1  UNL1       -0.1659
     33 F          11.6020    1.2491    0.2307 F       1  UNL1       -0.1659
     34 F          10.0214    2.5272   -0.8211 F       1  UNL1       -0.1659
     35 C           8.0913    0.3307    0.2244 C.ar    1  UNL1       -0.0380
     36 H           5.7303    1.0295    1.3068 H       1  UNL1        0.1495
     37 H           3.5296    1.0091    1.9625 H       1  UNL1        0.0558
     38 H           3.6424   -0.7374    2.1747 H       1  UNL1        0.0558
     39 H           0.8882    0.8040    2.1679 H       1  UNL1        0.0465
     40 H           1.2086   -1.0127    2.3208 H       1  UNL1        0.0465
     41 H          -0.8603   -1.4841    1.5308 H       1  UNL1        0.0296
     42 H          -1.2494    0.1863    2.0309 H       1  UNL1        0.0296
     43 H          -0.6967    1.1842   -0.0181 H       1  UNL1        0.0476
     44 H          -1.7678   -1.3124   -1.2871 H       1  UNL1        0.1225
     45 H          -3.2018    1.1007   -0.2401 H       1  UNL1        0.0460
     46 H          -4.0971   -1.3392   -1.8094 H       1  UNL1        0.0281
     47 H          -3.6423    0.1871   -2.6058 H       1  UNL1        0.0281
     48 H          -5.6897    1.0814   -2.0854 H       1  UNL1        0.0297
     49 H          -6.2417   -0.5402   -1.6363 H       1  UNL1        0.0297
     50 H          -5.3863    2.4743   -0.9264 H       1  UNL1        0.2107
     51 H          -7.2301   -1.3926    0.8930 H       1  UNL1        0.0636
     52 H          -9.6264   -1.4187    1.2694 H       1  UNL1        0.0619
     53 H         -10.9884    0.5799    0.8497 H       1  UNL1        0.0633
     54 H          -9.8826    2.6226    0.0427 H       1  UNL1        0.0829
     55 H          -5.6479   -0.5447    1.7704 H       1  UNL1        0.0297
     56 H          -4.5406    0.8231    1.7846 H       1  UNL1        0.0297
     57 H          -4.2265   -1.6962    0.1648 H       1  UNL1        0.0281
     58 H          -3.1338   -1.0162    1.4702 H       1  UNL1        0.0281
     59 H           0.8509    0.3861   -1.4563 H       1  UNL1        0.0480
     60 H           0.5317   -1.3608   -1.0619 H       1  UNL1        0.0480
     61 H           7.2475   -2.6471   -0.9649 H       1  UNL1        0.0625
     62 H           9.6620   -2.5709   -1.6787 H       1  UNL1        0.0618
     63 H          11.0245   -0.6218   -1.1524 H       1  UNL1        0.0623
     64 H           7.6785    1.1646    0.7593 H       1  UNL1        0.0631
@<TRIPOS>BOND
     1     1     2    2
     2     2     3   am
     3     3     4    1
     4     4     5    1
     5     5     6    2
     6     5     7   am
     7     7     8    1
     8     8     9    1
     9     9    10    1
    10    10    11    1
    11    11    12    1
    12    12    13    1
    13    13    14    1
    14    14    15    1
    15    15    16    1
    16    15    17    1
    17    17    18   ar
    18    18    19   ar
    19    19    20   ar
    20    20    21   ar
    21    21    22   ar
    22    15    23    1
    23    23    24    1
    24    10    25    1
    25     2    26    1
    26    26    27   ar
    27    27    28   ar
    28    28    29   ar
    29    29    30   ar
    30    30    31    1
    31    31    32    1
    32    31    33    1
    33    31    34    1
    34    30    35   ar
    35    25     7    1
    36    35    26   ar
    37    24    12    1
    38    22    17   ar
    39     3    36    1
    40     4    37    1
    41     4    38    1
    42     8    39    1
    43     8    40    1
    44     9    41    1
    45     9    42    1
    46    10    43    1
    47    11    44    1
    48    12    45    1
    49    13    46    1
    50    13    47    1
    51    14    48    1
    52    14    49    1
    53    16    50    1
    54    18    51    1
    55    19    52    1
    56    20    53    1
    57    21    54    1
    58    23    55    1
    59    23    56    1
    60    24    57    1
    61    24    58    1
    62    25    59    1
    63    25    60    1
    64    27    61    1
    65    28    62    1
    66    29    63    1
    67    35    64    1
