
     RDKit          3D

 64 67  0  0  0  0  0  0  0  0999 V2000
    5.2293   -1.8577    0.0424 O   0  0  0  0  0  0  0  0  0  0  0  0
    5.8814   -0.8392    0.3406 C   0  0  0  0  0  0  0  0  0  0  0  0
    5.2008    0.1827    1.0545 N   0  0  0  0  0  0  0  0  0  0  0  0
    3.8063    0.0751    1.4342 C   0  0  0  0  0  0  0  0  0  0  0  0
    2.9376   -0.0784    0.2421 C   0  0  0  0  0  0  0  0  0  0  0  0
    3.4680   -0.1006   -0.9173 O   0  0  0  0  0  0  0  0  0  0  0  0
    1.5445   -0.1964    0.4139 N   0  0  0  0  0  0  0  0  0  0  0  0
    0.8444   -0.1836    1.6749 C   0  0  0  0  0  0  0  0  0  0  0  0
   -0.6257   -0.4382    1.3345 C   0  0  0  0  0  0  0  0  0  0  0  0
   -0.7604    0.0414   -0.0575 C   0  0  2  0  0  0  0  0  0  0  0  0
   -1.8405   -0.3718   -0.8494 N   0  0  0  0  0  0  0  0  0  0  0  0
   -3.1437    0.0176   -0.4779 C   0  0  1  0  0  0  0  0  0  0  0  0
   -4.0816   -0.2302   -1.6793 C   0  0  0  0  0  0  0  0  0  0  0  0
   -5.4601    0.2329   -1.3807 C   0  0  0  0  0  0  0  0  0  0  0  0
   -5.6968    0.7411    0.0074 C   0  0  1  0  0  0  0  0  0  0  0  0
   -5.3518    2.1173    0.0100 O   0  0  0  0  0  0  0  0  0  0  0  0
   -7.1621    0.6735    0.2419 C   0  0  0  0  0  0  0  0  0  0  0  0
   -7.7668   -0.4761    0.6931 C   0  0  0  0  0  0  0  0  0  0  0  0
   -9.1410   -0.5305    0.9179 C   0  0  0  0  0  0  0  0  0  0  0  0
   -9.9089    0.5891    0.6835 C   0  0  0  0  0  0  0  0  0  0  0  0
   -9.2885    1.7332    0.2315 C   0  0  0  0  0  0  0  0  0  0  0  0
   -7.9620    1.7497    0.0258 N   0  0  0  0  0  0  0  0  0  0  0  0
   -4.9880    0.0369    1.0989 C   0  0  0  0  0  0  0  0  0  0  0  0
   -3.7880   -0.7716    0.6375 C   0  0  0  0  0  0  0  0  0  0  0  0
    0.5907   -0.3487   -0.6606 C   0  0  0  0  0  0  0  0  0  0  0  0
    7.2834   -0.7515   -0.0519 C   0  0  0  0  0  0  0  0  0  0  0  0
    7.8837   -1.7903   -0.7451 C   0  0  0  0  0  0  0  0  0  0  0  0
    9.2100   -1.7484   -1.1372 C   0  0  0  0  0  0  0  0  0  0  0  0
    9.9793   -0.6441   -0.8381 C   0  0  0  0  0  0  0  0  0  0  0  0
    9.4172    0.4091   -0.1498 C   0  0  0  0  0  0  0  0  0  0  0  0
   10.2752    1.5834    0.1557 C   0  0  0  0  0  0  0  0  0  0  0  0
    9.8147    2.1294    1.3559 F   0  0  0  0  0  0  0  0  0  0  0  0
   11.6020    1.2491    0.2307 F   0  0  0  0  0  0  0  0  0  0  0  0
   10.0214    2.5272   -0.8211 F   0  0  0  0  0  0  0  0  0  0  0  0
    8.0913    0.3307    0.2244 C   0  0  0  0  0  0  0  0  0  0  0  0
    5.7303    1.0295    1.3068 H   0  0  0  0  0  0  0  0  0  0  0  0
    3.5296    1.0091    1.9625 H   0  0  0  0  0  0  0  0  0  0  0  0
    3.6424   -0.7374    2.1747 H   0  0  0  0  0  0  0  0  0  0  0  0
    0.8882    0.8040    2.1679 H   0  0  0  0  0  0  0  0  0  0  0  0
    1.2086   -1.0127    2.3208 H   0  0  0  0  0  0  0  0  0  0  0  0
   -0.8603   -1.4841    1.5308 H   0  0  0  0  0  0  0  0  0  0  0  0
   -1.2494    0.1863    2.0309 H   0  0  0  0  0  0  0  0  0  0  0  0
   -0.6967    1.1842   -0.0181 H   0  0  0  0  0  0  0  0  0  0  0  0
   -1.7678   -1.3124   -1.2871 H   0  0  0  0  0  0  0  0  0  0  0  0
   -3.2018    1.1007   -0.2401 H   0  0  0  0  0  0  0  0  0  0  0  0
   -4.0971   -1.3392   -1.8094 H   0  0  0  0  0  0  0  0  0  0  0  0
   -3.6423    0.1871   -2.6058 H   0  0  0  0  0  0  0  0  0  0  0  0
   -5.6897    1.0814   -2.0854 H   0  0  0  0  0  0  0  0  0  0  0  0
   -6.2417   -0.5402   -1.6363 H   0  0  0  0  0  0  0  0  0  0  0  0
   -5.3863    2.4743   -0.9264 H   0  0  0  0  0  0  0  0  0  0  0  0
   -7.2301   -1.3926    0.8930 H   0  0  0  0  0  0  0  0  0  0  0  0
   -9.6264   -1.4187    1.2694 H   0  0  0  0  0  0  0  0  0  0  0  0
  -10.9884    0.5799    0.8497 H   0  0  0  0  0  0  0  0  0  0  0  0
   -9.8826    2.6226    0.0427 H   0  0  0  0  0  0  0  0  0  0  0  0
   -5.6479   -0.5447    1.7704 H   0  0  0  0  0  0  0  0  0  0  0  0
   -4.5406    0.8231    1.7846 H   0  0  0  0  0  0  0  0  0  0  0  0
   -4.2265   -1.6962    0.1648 H   0  0  0  0  0  0  0  0  0  0  0  0
   -3.1338   -1.0162    1.4702 H   0  0  0  0  0  0  0  0  0  0  0  0
    0.8509    0.3861   -1.4563 H   0  0  0  0  0  0  0  0  0  0  0  0
    0.5317   -1.3608   -1.0619 H   0  0  0  0  0  0  0  0  0  0  0  0
    7.2475   -2.6471   -0.9649 H   0  0  0  0  0  0  0  0  0  0  0  0
    9.6620   -2.5709   -1.6787 H   0  0  0  0  0  0  0  0  0  0  0  0
   11.0245   -0.6218   -1.1524 H   0  0  0  0  0  0  0  0  0  0  0  0
    7.6785    1.1646    0.7593 H   0  0  0  0  0  0  0  0  0  0  0  0
  1  2  2  0
  2  3  1  0
  3  4  1  0
  4  5  1  0
  5  6  2  0
  5  7  1  0
  7  8  1  0
  8  9  1  0
  9 10  1  0
 10 11  1  0
 11 12  1  0
 12 13  1  0
 13 14  1  0
 14 15  1  0
 15 16  1  6
 15 17  1  0
 17 18  2  0
 18 19  1  0
 19 20  2  0
 20 21  1  0
 21 22  2  0
 15 23  1  0
 23 24  1  0
 10 25  1  0
  2 26  1  0
 26 27  2  0
 27 28  1  0
 28 29  2  0
 29 30  1  0
 30 31  1  0
 31 32  1  0
 31 33  1  0
 31 34  1  0
 30 35  2  0
 25  7  1  0
 35 26  1  0
 24 12  1  0
 22 17  1  0
  3 36  1  0
  4 37  1  0
  4 38  1  0
  8 39  1  0
  8 40  1  0
  9 41  1  0
  9 42  1  0
 10 43  1  1
 11 44  1  0
 12 45  1  1
 13 46  1  0
 13 47  1  0
 14 48  1  0
 14 49  1  0
 16 50  1  0
 18 51  1  0
 19 52  1  0
 20 53  1  0
 21 54  1  0
 23 55  1  0
 23 56  1  0
 24 57  1  0
 24 58  1  0
 25 59  1  0
 25 60  1  0
 27 61  1  0
 28 62  1  0
 29 63  1  0
 35 64  1  0
M  END
$$$$
