@<TRIPOS>MOLECULE
*****
 46 49 0 0 0
SMALL
GASTEIGER

@<TRIPOS>ATOM
      1 N           2.2157   -2.9774    1.0856 N.pl3   1  UNL1       -0.3134
      2 C           2.7010   -1.7962    0.4118 C.2     1  UNL1        0.2763
      3 N           2.7138   -0.6498    0.9628 N.2     1  UNL1       -0.2225
      4 C           3.2218    0.5077    0.2003 C.3     1  UNL1        0.1271
      5 C           3.4832    1.5983    1.2824 C.3     1  UNL1        0.1199
      6 F           3.9639    2.7208    0.7408 F       1  UNL1       -0.2462
      7 C           2.0950    0.9525   -0.6605 C.ar    1  UNL1        0.0030
      8 C           0.8416    0.3197   -0.4974 C.ar    1  UNL1       -0.0335
      9 C          -0.2671    0.7054   -1.2131 C.ar    1  UNL1        0.0341
     10 N          -1.5261    0.0273   -1.0135 N.am    1  UNL1       -0.2802
     11 C          -2.4792    0.4357   -0.0556 C.2     1  UNL1        0.2669
     12 O          -2.2148    1.4315    0.6499 O.2     1  UNL1       -0.2682
     13 C          -3.7530   -0.2486    0.1471 C.ar    1  UNL1        0.1311
     14 N          -3.9981   -1.3526   -0.6200 N.ar    1  UNL1       -0.2486
     15 C          -5.0997   -2.0844   -0.5537 C.ar    1  UNL1        0.0467
     16 C          -6.0768   -1.7163    0.3501 C.ar    1  UNL1        0.0594
     17 CL         -7.5603   -2.6585    0.4764 Cl      1  UNL1       -0.0820
     18 C          -5.8740   -0.6100    1.1446 C.ar    1  UNL1       -0.0344
     19 C          -4.6947    0.1333    1.0401 C.ar    1  UNL1        0.0097
     20 C          -4.5072    1.3110    1.8871 C.3     1  UNL1        0.0714
     21 O          -3.5946    0.9909    2.8900 O.3     1  UNL1       -0.3903
     22 C          -0.1367    1.7372   -2.1082 C.ar    1  UNL1       -0.0391
     23 C           1.0607    2.3722   -2.2924 C.ar    1  UNL1       -0.0413
     24 C           2.1987    1.9735   -1.5567 C.ar    1  UNL1        0.0466
     25 CL          3.7207    2.7568   -1.8429 Cl      1  UNL1       -0.0832
     26 C           4.4752    0.1587   -0.4784 C.3     1  UNL1        0.0314
     27 C           5.3862   -0.9645   -0.0374 C.3     1  UNL1       -0.0065
     28 C           4.3960   -1.1344   -1.1812 C.3     1  UNL1        0.1090
     29 O           3.1935   -1.8495   -0.9060 O.2     1  UNL1       -0.4622
     30 H           1.5774   -3.5869    0.5583 H       1  UNL1        0.1466
     31 H           2.5227   -3.1555    2.0451 H       1  UNL1        0.1466
     32 H           2.4936    1.7976    1.7548 H       1  UNL1        0.0643
     33 H           4.1517    1.1790    2.0554 H       1  UNL1        0.0643
     34 H           0.7213   -0.4838    0.2054 H       1  UNL1        0.0640
     35 H          -1.7654   -0.8075   -1.5938 H       1  UNL1        0.1552
     36 H          -5.2993   -2.9583   -1.1576 H       1  UNL1        0.0844
     37 H          -6.6605   -0.3579    1.8353 H       1  UNL1        0.0637
     38 H          -4.2591    2.2074    1.3119 H       1  UNL1        0.0608
     39 H          -5.4936    1.5068    2.4128 H       1  UNL1        0.0608
     40 H          -3.4881    0.0194    3.0129 H       1  UNL1        0.2098
     41 H          -1.0135    2.0343   -2.6661 H       1  UNL1        0.0636
     42 H           1.2088    3.1899   -2.9871 H       1  UNL1        0.0633
     43 H           5.1068    0.9770   -0.9421 H       1  UNL1        0.0365
     44 H           6.4500   -0.9518   -0.2438 H       1  UNL1        0.0306
     45 H           5.1113   -1.5395    0.8885 H       1  UNL1        0.0306
     46 H           4.7514   -1.1605   -2.2109 H       1  UNL1        0.0737
@<TRIPOS>BOND
     1     1     2    1
     2     2     3    2
     3     3     4    1
     4     4     5    1
     5     5     6    1
     6     4     7    1
     7     7     8   ar
     8     8     9   ar
     9     9    10    1
    10    10    11   am
    11    11    12    2
    12    11    13    1
    13    13    14   ar
    14    14    15   ar
    15    15    16   ar
    16    16    17    1
    17    16    18   ar
    18    18    19   ar
    19    19    20    1
    20    20    21    1
    21     9    22   ar
    22    22    23   ar
    23    23    24   ar
    24    24    25    1
    25     4    26    1
    26    26    27    1
    27    27    28    1
    28    28    29    1
    29    29     2    1
    30    24     7   ar
    31    28    26    1
    32    19    13   ar
    33     1    30    1
    34     1    31    1
    35     5    32    1
    36     5    33    1
    37     8    34    1
    38    10    35    1
    39    15    36    1
    40    18    37    1
    41    20    38    1
    42    20    39    1
    43    21    40    1
    44    22    41    1
    45    23    42    1
    46    26    43    1
    47    27    44    1
    48    27    45    1
    49    28    46    1
