
     RDKit          3D

 46 49  0  0  0  0  0  0  0  0999 V2000
    2.2157   -2.9774    1.0856 N   0  0  0  0  0  0  0  0  0  0  0  0
    2.7010   -1.7962    0.4118 C   0  0  0  0  0  0  0  0  0  0  0  0
    2.7138   -0.6498    0.9628 N   0  0  0  0  0  0  0  0  0  0  0  0
    3.2218    0.5077    0.2003 C   0  0  2  0  0  0  0  0  0  0  0  0
    3.4832    1.5983    1.2824 C   0  0  0  0  0  0  0  0  0  0  0  0
    3.9639    2.7208    0.7408 F   0  0  0  0  0  0  0  0  0  0  0  0
    2.0950    0.9525   -0.6605 C   0  0  0  0  0  0  0  0  0  0  0  0
    0.8416    0.3197   -0.4974 C   0  0  0  0  0  0  0  0  0  0  0  0
   -0.2671    0.7054   -1.2131 C   0  0  0  0  0  0  0  0  0  0  0  0
   -1.5261    0.0273   -1.0135 N   0  0  0  0  0  0  0  0  0  0  0  0
   -2.4792    0.4357   -0.0556 C   0  0  0  0  0  0  0  0  0  0  0  0
   -2.2148    1.4315    0.6499 O   0  0  0  0  0  0  0  0  0  0  0  0
   -3.7530   -0.2486    0.1471 C   0  0  0  0  0  0  0  0  0  0  0  0
   -3.9981   -1.3526   -0.6200 N   0  0  0  0  0  0  0  0  0  0  0  0
   -5.0997   -2.0844   -0.5537 C   0  0  0  0  0  0  0  0  0  0  0  0
   -6.0768   -1.7163    0.3501 C   0  0  0  0  0  0  0  0  0  0  0  0
   -7.5603   -2.6585    0.4764 Cl  0  0  0  0  0  0  0  0  0  0  0  0
   -5.8740   -0.6100    1.1446 C   0  0  0  0  0  0  0  0  0  0  0  0
   -4.6947    0.1333    1.0401 C   0  0  0  0  0  0  0  0  0  0  0  0
   -4.5072    1.3110    1.8871 C   0  0  0  0  0  0  0  0  0  0  0  0
   -3.5946    0.9909    2.8900 O   0  0  0  0  0  0  0  0  0  0  0  0
   -0.1367    1.7372   -2.1082 C   0  0  0  0  0  0  0  0  0  0  0  0
    1.0607    2.3722   -2.2924 C   0  0  0  0  0  0  0  0  0  0  0  0
    2.1987    1.9735   -1.5567 C   0  0  0  0  0  0  0  0  0  0  0  0
    3.7207    2.7568   -1.8429 Cl  0  0  0  0  0  0  0  0  0  0  0  0
    4.4752    0.1587   -0.4784 C   0  0  1  0  0  0  0  0  0  0  0  0
    5.3862   -0.9645   -0.0374 C   0  0  0  0  0  0  0  0  0  0  0  0
    4.3960   -1.1344   -1.1812 C   0  0  1  0  0  0  0  0  0  0  0  0
    3.1935   -1.8495   -0.9060 O   0  0  0  0  0  0  0  0  0  0  0  0
    1.5774   -3.5869    0.5583 H   0  0  0  0  0  0  0  0  0  0  0  0
    2.5227   -3.1555    2.0451 H   0  0  0  0  0  0  0  0  0  0  0  0
    2.4936    1.7976    1.7548 H   0  0  0  0  0  0  0  0  0  0  0  0
    4.1517    1.1790    2.0554 H   0  0  0  0  0  0  0  0  0  0  0  0
    0.7213   -0.4838    0.2054 H   0  0  0  0  0  0  0  0  0  0  0  0
   -1.7654   -0.8075   -1.5938 H   0  0  0  0  0  0  0  0  0  0  0  0
   -5.2993   -2.9583   -1.1576 H   0  0  0  0  0  0  0  0  0  0  0  0
   -6.6605   -0.3579    1.8353 H   0  0  0  0  0  0  0  0  0  0  0  0
   -4.2591    2.2074    1.3119 H   0  0  0  0  0  0  0  0  0  0  0  0
   -5.4936    1.5068    2.4128 H   0  0  0  0  0  0  0  0  0  0  0  0
   -3.4881    0.0194    3.0129 H   0  0  0  0  0  0  0  0  0  0  0  0
   -1.0135    2.0343   -2.6661 H   0  0  0  0  0  0  0  0  0  0  0  0
    1.2088    3.1899   -2.9871 H   0  0  0  0  0  0  0  0  0  0  0  0
    5.1068    0.9770   -0.9421 H   0  0  0  0  0  0  0  0  0  0  0  0
    6.4500   -0.9518   -0.2438 H   0  0  0  0  0  0  0  0  0  0  0  0
    5.1113   -1.5395    0.8885 H   0  0  0  0  0  0  0  0  0  0  0  0
    4.7514   -1.1605   -2.2109 H   0  0  0  0  0  0  0  0  0  0  0  0
  1  2  1  0
  2  3  2  0
  3  4  1  0
  4  5  1  1
  5  6  1  0
  4  7  1  0
  7  8  2  0
  8  9  1  0
  9 10  1  0
 10 11  1  0
 11 12  2  0
 11 13  1  0
 13 14  2  0
 14 15  1  0
 15 16  2  0
 16 17  1  0
 16 18  1  0
 18 19  2  0
 19 20  1  0
 20 21  1  0
  9 22  2  0
 22 23  1  0
 23 24  2  0
 24 25  1  0
  4 26  1  0
 26 27  1  0
 27 28  1  0
 28 29  1  0
 29  2  1  0
 24  7  1  0
 28 26  1  0
 19 13  1  0
  1 30  1  0
  1 31  1  0
  5 32  1  0
  5 33  1  0
  8 34  1  0
 10 35  1  0
 15 36  1  0
 18 37  1  0
 20 38  1  0
 20 39  1  0
 21 40  1  0
 22 41  1  0
 23 42  1  0
 26 43  1  6
 27 44  1  0
 27 45  1  0
 28 46  1  6
M  END
$$$$
