
     RDKit          3D

 66 70  0  0  0  0  0  0  0  0999 V2000
   -3.9859   -2.3434    2.1162 C   0  0  0  0  0  0  0  0  0  0  0  0
   -4.6071   -1.2441    1.2412 C   0  0  1  0  0  0  0  0  0  0  0  0
   -3.7233   -0.3636    0.8958 O   0  0  0  0  0  0  0  0  0  0  0  0
   -2.8398    0.5184    0.5501 C   0  0  0  0  0  0  0  0  0  0  0  0
   -1.4624    0.2139    0.4703 C   0  0  0  0  0  0  0  0  0  0  0  0
   -0.5239    1.1266    0.1092 C   0  0  0  0  0  0  0  0  0  0  0  0
    0.9357    0.8492    0.0585 C   0  0  0  0  0  0  0  0  0  0  0  0
    1.4461   -0.3845   -0.2594 C   0  0  0  0  0  0  0  0  0  0  0  0
    2.8125   -0.5835   -0.2762 C   0  0  0  0  0  0  0  0  0  0  0  0
    3.7305    0.4388    0.0225 C   0  0  0  0  0  0  0  0  0  0  0  0
    5.0917    0.1008   -0.0489 N   0  0  0  0  0  0  0  0  0  0  0  0
    5.4896   -0.8292   -1.1496 C   0  0  0  0  0  0  0  0  0  0  0  0
    6.0865   -2.0708   -0.5848 C   0  0  0  0  0  0  0  0  0  0  0  0
    6.9701   -1.8328    0.5301 N   0  0  0  0  0  0  0  0  0  0  0  0
    8.1364   -2.6613    0.3918 C   0  0  0  0  0  0  0  0  0  0  0  0
    7.3781   -0.4708    0.4848 C   0  0  0  0  0  0  0  0  0  0  0  0
    6.1818    0.4782    0.7994 C   0  0  0  0  0  0  0  0  0  0  0  0
    3.1883    1.6490    0.3343 C   0  0  0  0  0  0  0  0  0  0  0  0
    4.0624    2.8094    0.6999 C   0  0  0  0  0  0  0  0  0  0  0  0
    4.7332    2.6059    1.8620 F   0  0  0  0  0  0  0  0  0  0  0  0
    3.2495    3.9175    0.9180 F   0  0  0  0  0  0  0  0  0  0  0  0
    4.8622    3.1737   -0.3733 F   0  0  0  0  0  0  0  0  0  0  0  0
    1.8249    1.8454    0.3504 C   0  0  0  0  0  0  0  0  0  0  0  0
   -0.9767    2.4033   -0.1897 C   0  0  0  0  0  0  0  0  0  0  0  0
   -2.3123    2.7381   -0.1245 C   0  0  0  0  0  0  0  0  0  0  0  0
   -2.9773    3.9034   -0.3749 N   0  0  0  0  0  0  0  0  0  0  0  0
   -4.2523    3.7157   -0.1754 N   0  0  0  0  0  0  0  0  0  0  0  0
   -5.2991    4.6866   -0.3328 C   0  0  0  0  0  0  0  0  0  0  0  0
   -4.4879    2.4347    0.2122 C   0  0  0  0  0  0  0  0  0  0  0  0
   -3.2456    1.8272    0.2380 C   0  0  0  0  0  0  0  0  0  0  0  0
   -5.2188   -2.0284    0.0356 C   0  0  1  0  0  0  0  0  0  0  0  0
   -6.2359   -2.9993    0.5187 C   0  0  0  0  0  0  0  0  0  0  0  0
   -7.5199   -2.5587    0.0310 N   0  0  0  0  0  0  0  0  0  0  0  0
   -7.3070   -1.7234   -1.0732 C   0  0  0  0  0  0  0  0  0  0  0  0
   -8.0311   -1.5524   -2.0655 O   0  0  0  0  0  0  0  0  0  0  0  0
   -6.0069   -1.0572   -0.8198 C   0  0  0  0  0  0  0  0  0  0  0  0
   -4.6925   -2.7862    2.8212 H   0  0  0  0  0  0  0  0  0  0  0  0
   -3.1783   -1.8499    2.7122 H   0  0  0  0  0  0  0  0  0  0  0  0
   -3.4816   -3.0593    1.4314 H   0  0  0  0  0  0  0  0  0  0  0  0
   -5.5461   -0.8712    1.7759 H   0  0  0  0  0  0  0  0  0  0  0  0
   -1.1391   -0.8036    0.7095 H   0  0  0  0  0  0  0  0  0  0  0  0
    0.7460   -1.1753   -0.4878 H   0  0  0  0  0  0  0  0  0  0  0  0
    3.1433   -1.5693   -0.5258 H   0  0  0  0  0  0  0  0  0  0  0  0
    4.6158   -1.0869   -1.7697 H   0  0  0  0  0  0  0  0  0  0  0  0
    6.2211   -0.2765   -1.7684 H   0  0  0  0  0  0  0  0  0  0  0  0
    5.3446   -2.8297   -0.2704 H   0  0  0  0  0  0  0  0  0  0  0  0
    6.6889   -2.5424   -1.4048 H   0  0  0  0  0  0  0  0  0  0  0  0
    8.1692   -3.4397    1.1755 H   0  0  0  0  0  0  0  0  0  0  0  0
    9.0814   -2.0630    0.4081 H   0  0  0  0  0  0  0  0  0  0  0  0
    8.1614   -3.2028   -0.5846 H   0  0  0  0  0  0  0  0  0  0  0  0
    8.1845   -0.2171    1.2290 H   0  0  0  0  0  0  0  0  0  0  0  0
    7.7468   -0.1447   -0.5026 H   0  0  0  0  0  0  0  0  0  0  0  0
    6.6276    1.4694    0.5941 H   0  0  0  0  0  0  0  0  0  0  0  0
    5.9725    0.3907    1.8874 H   0  0  0  0  0  0  0  0  0  0  0  0
    1.4327    2.8281    0.6058 H   0  0  0  0  0  0  0  0  0  0  0  0
   -0.2496    3.1364   -0.4734 H   0  0  0  0  0  0  0  0  0  0  0  0
   -6.0802    4.3138   -1.0470 H   0  0  0  0  0  0  0  0  0  0  0  0
   -5.7803    4.9229    0.6404 H   0  0  0  0  0  0  0  0  0  0  0  0
   -4.8730    5.6475   -0.7131 H   0  0  0  0  0  0  0  0  0  0  0  0
   -5.4121    1.9712    0.4525 H   0  0  0  0  0  0  0  0  0  0  0  0
   -4.4124   -2.5309   -0.5139 H   0  0  0  0  0  0  0  0  0  0  0  0
   -6.2542   -3.1337    1.6289 H   0  0  0  0  0  0  0  0  0  0  0  0
   -6.0007   -4.0240    0.1016 H   0  0  0  0  0  0  0  0  0  0  0  0
   -8.4718   -2.8152    0.4318 H   0  0  0  0  0  0  0  0  0  0  0  0
   -6.2540   -0.1360   -0.2194 H   0  0  0  0  0  0  0  0  0  0  0  0
   -5.4763   -0.8554   -1.7526 H   0  0  0  0  0  0  0  0  0  0  0  0
  1  2  1  0
  2  3  1  0
  3  4  1  0
  4  5  2  0
  5  6  1  0
  6  7  1  0
  7  8  2  0
  8  9  1  0
  9 10  2  0
 10 11  1  0
 11 12  1  0
 12 13  1  0
 13 14  1  0
 14 15  1  0
 14 16  1  0
 16 17  1  0
 10 18  1  0
 18 19  1  0
 19 20  1  0
 19 21  1  0
 19 22  1  0
 18 23  2  0
  6 24  2  0
 24 25  1  0
 25 26  2  0
 26 27  1  0
 27 28  1  0
 27 29  1  0
 29 30  2  0
  2 31  1  0
 31 32  1  0
 32 33  1  0
 33 34  1  0
 34 35  2  0
 34 36  1  0
 30  4  1  0
 36 31  1  0
 23  7  1  0
 30 25  1  0
 17 11  1  0
  1 37  1  0
  1 38  1  0
  1 39  1  0
  2 40  1  1
  5 41  1  0
  8 42  1  0
  9 43  1  0
 12 44  1  0
 12 45  1  0
 13 46  1  0
 13 47  1  0
 15 48  1  0
 15 49  1  0
 15 50  1  0
 16 51  1  0
 16 52  1  0
 17 53  1  0
 17 54  1  0
 23 55  1  0
 24 56  1  0
 28 57  1  0
 28 58  1  0
 28 59  1  0
 29 60  1  0
 31 61  1  6
 32 62  1  0
 32 63  1  0
 33 64  1  0
 36 65  1  0
 36 66  1  0
M  END
$$$$
