@<TRIPOS>MOLECULE
*****
 66 70 0 0 0
SMALL
GASTEIGER

@<TRIPOS>ATOM
      1 C          -3.9859   -2.3434    2.1162 C.3     1  UNL1       -0.0275
      2 C          -4.6071   -1.2441    1.2412 C.3     1  UNL1        0.1021
      3 O          -3.7233   -0.3636    0.8958 O.3     1  UNL1       -0.4880
      4 C          -2.8398    0.5184    0.5501 C.ar    1  UNL1        0.1321
      5 C          -1.4624    0.2139    0.4703 C.ar    1  UNL1       -0.0114
      6 C          -0.5239    1.1266    0.1092 C.ar    1  UNL1       -0.0123
      7 C           0.9357    0.8492    0.0585 C.ar    1  UNL1       -0.0171
      8 C           1.4461   -0.3845   -0.2594 C.ar    1  UNL1       -0.0523
      9 C           2.8125   -0.5835   -0.2762 C.ar    1  UNL1       -0.0395
     10 C           3.7305    0.4388    0.0225 C.ar    1  UNL1        0.0415
     11 N           5.0917    0.1008   -0.0489 N.pl3   1  UNL1       -0.3270
     12 C           5.4896   -0.8292   -1.1496 C.3     1  UNL1        0.0250
     13 C           6.0865   -2.0708   -0.5848 C.3     1  UNL1        0.0144
     14 N           6.9701   -1.8328    0.5301 N.3     1  UNL1       -0.3024
     15 C           8.1364   -2.6613    0.3918 C.3     1  UNL1       -0.0126
     16 C           7.3781   -0.4708    0.4848 C.3     1  UNL1        0.0144
     17 C           6.1818    0.4782    0.7994 C.3     1  UNL1        0.0250
     18 C           3.1883    1.6490    0.3343 C.ar    1  UNL1        0.0763
     19 C           4.0624    2.8094    0.6999 C.3     1  UNL1        0.4191
     20 F           4.7332    2.6059    1.8620 F       1  UNL1       -0.1658
     21 F           3.2495    3.9175    0.9180 F       1  UNL1       -0.1658
     22 F           4.8622    3.1737   -0.3733 F       1  UNL1       -0.1658
     23 C           1.8249    1.8454    0.3504 C.ar    1  UNL1       -0.0406
     24 C          -0.9767    2.4033   -0.1897 C.ar    1  UNL1       -0.0260
     25 C          -2.3123    2.7381   -0.1245 C.ar    1  UNL1        0.0968
     26 N          -2.9773    3.9034   -0.3749 N.ar    1  UNL1       -0.1713
     27 N          -4.2523    3.7157   -0.1754 N.ar    1  UNL1       -0.2732
     28 C          -5.2991    4.6866   -0.3328 C.3     1  UNL1        0.0302
     29 C          -4.4879    2.4347    0.2122 C.ar    1  UNL1        0.0364
     30 C          -3.2456    1.8272    0.2380 C.ar    1  UNL1        0.0614
     31 C          -5.2188   -2.0284    0.0356 C.3     1  UNL1        0.0195
     32 C          -6.2359   -2.9993    0.5187 C.3     1  UNL1        0.0182
     33 N          -7.5199   -2.5587    0.0310 N.am    1  UNL1       -0.3149
     34 C          -7.3070   -1.7234   -1.0732 C.2     1  UNL1        0.2135
     35 O          -8.0311   -1.5524   -2.0655 O.2     1  UNL1       -0.2758
     36 C          -6.0069   -1.0572   -0.8198 C.3     1  UNL1        0.0315
     37 H          -4.6925   -2.7862    2.8212 H       1  UNL1        0.0265
     38 H          -3.1783   -1.8499    2.7122 H       1  UNL1        0.0265
     39 H          -3.4816   -3.0593    1.4314 H       1  UNL1        0.0265
     40 H          -5.5461   -0.8712    1.7759 H       1  UNL1        0.0733
     41 H          -1.1391   -0.8036    0.7095 H       1  UNL1        0.0660
     42 H           0.7460   -1.1753   -0.4878 H       1  UNL1        0.0624
     43 H           3.1433   -1.5693   -0.5258 H       1  UNL1        0.0636
     44 H           4.6158   -1.0869   -1.7697 H       1  UNL1        0.0476
     45 H           6.2211   -0.2765   -1.7684 H       1  UNL1        0.0476
     46 H           5.3446   -2.8297   -0.2704 H       1  UNL1        0.0442
     47 H           6.6889   -2.5424   -1.4048 H       1  UNL1        0.0442
     48 H           8.1692   -3.4397    1.1755 H       1  UNL1        0.0391
     49 H           9.0814   -2.0630    0.4081 H       1  UNL1        0.0391
     50 H           8.1614   -3.2028   -0.5846 H       1  UNL1        0.0391
     51 H           8.1845   -0.2171    1.2290 H       1  UNL1        0.0442
     52 H           7.7468   -0.1447   -0.5026 H       1  UNL1        0.0442
     53 H           6.6276    1.4694    0.5941 H       1  UNL1        0.0476
     54 H           5.9725    0.3907    1.8874 H       1  UNL1        0.0476
     55 H           1.4327    2.8281    0.6058 H       1  UNL1        0.0630
     56 H          -0.2496    3.1364   -0.4734 H       1  UNL1        0.0646
     57 H          -6.0802    4.3138   -1.0470 H       1  UNL1        0.0473
     58 H          -5.7803    4.9229    0.6404 H       1  UNL1        0.0473
     59 H          -4.8730    5.6475   -0.7131 H       1  UNL1        0.0473
     60 H          -5.4121    1.9712    0.4525 H       1  UNL1        0.0833
     61 H          -4.4124   -2.5309   -0.5139 H       1  UNL1        0.0356
     62 H          -6.2542   -3.1337    1.6289 H       1  UNL1        0.0466
     63 H          -6.0007   -4.0240    0.1016 H       1  UNL1        0.0466
     64 H          -8.4718   -2.8152    0.4318 H       1  UNL1        0.1487
     65 H          -6.2540   -0.1360   -0.2194 H       1  UNL1        0.0363
     66 H          -5.4763   -0.8554   -1.7526 H       1  UNL1        0.0363
@<TRIPOS>BOND
     1     1     2    1
     2     2     3    1
     3     3     4    1
     4     4     5   ar
     5     5     6   ar
     6     6     7    1
     7     7     8   ar
     8     8     9   ar
     9     9    10   ar
    10    10    11    1
    11    11    12    1
    12    12    13    1
    13    13    14    1
    14    14    15    1
    15    14    16    1
    16    16    17    1
    17    10    18   ar
    18    18    19    1
    19    19    20    1
    20    19    21    1
    21    19    22    1
    22    18    23   ar
    23     6    24   ar
    24    24    25   ar
    25    25    26   ar
    26    26    27   ar
    27    27    28    1
    28    27    29   ar
    29    29    30   ar
    30     2    31    1
    31    31    32    1
    32    32    33    1
    33    33    34   am
    34    34    35    2
    35    34    36    1
    36    30     4   ar
    37    36    31    1
    38    23     7   ar
    39    30    25   ar
    40    17    11    1
    41     1    37    1
    42     1    38    1
    43     1    39    1
    44     2    40    1
    45     5    41    1
    46     8    42    1
    47     9    43    1
    48    12    44    1
    49    12    45    1
    50    13    46    1
    51    13    47    1
    52    15    48    1
    53    15    49    1
    54    15    50    1
    55    16    51    1
    56    16    52    1
    57    17    53    1
    58    17    54    1
    59    23    55    1
    60    24    56    1
    61    28    57    1
    62    28    58    1
    63    28    59    1
    64    29    60    1
    65    31    61    1
    66    32    62    1
    67    32    63    1
    68    33    64    1
    69    36    65    1
    70    36    66    1
