@<TRIPOS>MOLECULE
*****
 75 75 0 0 0
SMALL
GASTEIGER

@<TRIPOS>ATOM
      1 C          -3.8467    4.9985    1.5383 C.3     1  UNL1       -0.0446
      2 C          -2.4864    4.6236    1.1071 C.2     1  UNL1       -0.0608
      3 C          -2.2615    3.5869    0.2991 C.2     1  UNL1        0.0917
      4 N          -3.4805    2.8683   -0.1093 N.am    1  UNL1       -0.2801
      5 C          -3.5495    1.4785   -0.1399 C.2     1  UNL1        0.2384
      6 O          -2.3674    1.0591    0.2507 O.2     1  UNL1       -0.2734
      7 C          -4.4460    0.3462   -0.4508 C.3     1  UNL1        0.1084
      8 C          -5.3946    0.5575   -1.5419 C.3     1  UNL1        0.0177
      9 S          -6.5135    1.9510   -1.1984 S.3     1  UNL1       -0.1759
     10 N          -3.5278   -0.8369   -0.7266 N.am    1  UNL1       -0.3030
     11 C          -2.8873   -1.4998    0.2812 C.2     1  UNL1        0.2174
     12 O          -3.3397   -1.0480    1.4304 O.2     1  UNL1       -0.2755
     13 C          -1.8475   -2.5623    0.4044 C.3     1  UNL1        0.0445
     14 C          -2.2842   -3.8728   -0.1470 C.3     1  UNL1       -0.0352
     15 C          -1.3215   -4.9840   -0.0736 C.3     1  UNL1       -0.0620
     16 C          -3.5145   -4.2897    0.6803 C.3     1  UNL1       -0.0620
     17 C          -0.5549   -2.0911   -0.2802 C.3     1  UNL1        0.0173
     18 C           0.6393   -2.6225    0.3350 C.2     1  UNL1        0.1379
     19 O           0.4645   -3.2740    1.4147 O.2     1  UNL1       -0.2972
     20 C           2.0528   -2.5566   -0.0489 C.3     1  UNL1        0.0467
     21 C           2.6687   -1.3103    0.6174 C.3     1  UNL1        0.1279
     22 C           4.1586   -1.4606    0.6736 C.2     1  UNL1       -0.0475
     23 C           4.8175   -2.2723   -0.1194 C.2     1  UNL1       -0.0837
     24 C           6.2798   -2.4272   -0.0746 C.3     1  UNL1       -0.0258
     25 C           6.9874   -1.5620    0.9329 C.3     1  UNL1       -0.0059
     26 S           6.8003    0.1993    0.6604 S.3     1  UNL1       -0.1779
     27 O           2.3864   -0.2295   -0.2850 O.3     1  UNL1       -0.4555
     28 C           1.5162    0.7765   -0.0136 C.2     1  UNL1        0.3285
     29 O           0.9171    0.7005    1.1175 O.2     1  UNL1       -0.2487
     30 C           1.2006    1.9370   -0.9146 C.3     1  UNL1        0.1230
     31 C           2.1607    3.0652   -0.6197 C.3     1  UNL1       -0.0178
     32 C           1.8833    4.2430   -1.4956 C.3     1  UNL1       -0.0605
     33 C           3.5995    2.5739   -0.7914 C.3     1  UNL1       -0.0605
     34 N          -0.2148    2.2642   -0.7791 N.am    1  UNL1       -0.2971
     35 C          -0.8981    3.1911   -0.0345 C.2     1  UNL1        0.2586
     36 O          -0.0014    3.9461    0.5534 O.2     1  UNL1       -0.2688
     37 H          -4.4611    4.0853    1.6884 H       1  UNL1        0.0272
     38 H          -4.3779    5.6127    0.7820 H       1  UNL1        0.0272
     39 H          -3.8028    5.5923    2.4713 H       1  UNL1        0.0272
     40 H          -1.6399    5.2345    1.4768 H       1  UNL1        0.0589
     41 H          -4.2139    3.5218   -0.3392 H       1  UNL1        0.1550
     42 H          -4.9626    0.0199    0.4809 H       1  UNL1        0.0603
     43 H          -4.9363    0.7180   -2.5423 H       1  UNL1        0.0397
     44 H          -6.0775   -0.3335   -1.6536 H       1  UNL1        0.0397
     45 H          -6.8564    2.0054    0.1657 H       1  UNL1        0.1017
     46 H          -3.5323   -0.9783   -1.7069 H       1  UNL1        0.1495
     47 H          -1.6073   -2.6860    1.4620 H       1  UNL1        0.0401
     48 H          -2.6969   -3.7276   -1.1936 H       1  UNL1        0.0303
     49 H          -1.1543   -5.3686    0.9309 H       1  UNL1        0.0233
     50 H          -0.3966   -4.7550   -0.6590 H       1  UNL1        0.0233
     51 H          -1.7464   -5.8803   -0.6410 H       1  UNL1        0.0233
     52 H          -3.6601   -5.3760    0.6607 H       1  UNL1        0.0233
     53 H          -4.3970   -3.6945    0.4178 H       1  UNL1        0.0233
     54 H          -3.2563   -4.0238    1.7348 H       1  UNL1        0.0233
     55 H          -0.6012   -2.3840   -1.3623 H       1  UNL1        0.0349
     56 H          -0.5983   -1.0140   -0.2599 H       1  UNL1        0.0349
     57 H           2.1768   -2.4282   -1.1549 H       1  UNL1        0.0381
     58 H           2.6269   -3.4672    0.2109 H       1  UNL1        0.0381
     59 H           2.2263   -1.2260    1.5735 H       1  UNL1        0.0783
     60 H           4.7095   -0.8858    1.4016 H       1  UNL1        0.0605
     61 H           4.2716   -2.8528   -0.8358 H       1  UNL1        0.0570
     62 H           6.5757   -3.4883    0.1986 H       1  UNL1        0.0315
     63 H           6.7560   -2.2764   -1.0726 H       1  UNL1        0.0315
     64 H           6.6661   -1.7950    1.9684 H       1  UNL1        0.0377
     65 H           8.0648   -1.8472    0.8835 H       1  UNL1        0.0377
     66 H           6.9776    0.5331   -0.7062 H       1  UNL1        0.1016
     67 H           1.4169    1.6840   -1.9657 H       1  UNL1        0.0617
     68 H           2.0831    3.3386    0.4335 H       1  UNL1        0.0319
     69 H           1.8791    5.2046   -0.9247 H       1  UNL1        0.0233
     70 H           0.9004    4.1360   -1.9873 H       1  UNL1        0.0233
     71 H           2.6606    4.2887   -2.3096 H       1  UNL1        0.0233
     72 H           3.9323    2.0853    0.1456 H       1  UNL1        0.0233
     73 H           3.6988    1.8500   -1.6096 H       1  UNL1        0.0233
     74 H           4.2255    3.4858   -0.9214 H       1  UNL1        0.0233
     75 H          -0.6681    1.6255   -1.4678 H       1  UNL1        0.1499
@<TRIPOS>BOND
     1     1     2    1
     2     2     3    2
     3     3     4    1
     4     4     5   am
     5     5     6    2
     6     5     7    1
     7     7     8    1
     8     8     9    1
     9     7    10    1
    10    10    11   am
    11    11    12    2
    12    11    13    1
    13    13    14    1
    14    14    15    1
    15    14    16    1
    16    13    17    1
    17    17    18    1
    18    18    19    2
    19    18    20    1
    20    20    21    1
    21    21    22    1
    22    22    23    2
    23    23    24    1
    24    24    25    1
    25    25    26    1
    26    21    27    1
    27    27    28    1
    28    28    29    2
    29    28    30    1
    30    30    31    1
    31    31    32    1
    32    31    33    1
    33    30    34    1
    34    34    35   am
    35    35    36    2
    36    35     3    1
    37     1    37    1
    38     1    38    1
    39     1    39    1
    40     2    40    1
    41     4    41    1
    42     7    42    1
    43     8    43    1
    44     8    44    1
    45     9    45    1
    46    10    46    1
    47    13    47    1
    48    14    48    1
    49    15    49    1
    50    15    50    1
    51    15    51    1
    52    16    52    1
    53    16    53    1
    54    16    54    1
    55    17    55    1
    56    17    56    1
    57    20    57    1
    58    20    58    1
    59    21    59    1
    60    22    60    1
    61    23    61    1
    62    24    62    1
    63    24    63    1
    64    25    64    1
    65    25    65    1
    66    26    66    1
    67    30    67    1
    68    31    68    1
    69    32    69    1
    70    32    70    1
    71    32    71    1
    72    33    72    1
    73    33    73    1
    74    33    74    1
    75    34    75    1
