
     RDKit          3D

 35 37  0  0  0  0  0  0  0  0999 V2000
    6.3285   -0.5621   -0.0036 C   0  0  0  0  0  0  0  0  0  0  0  0
    5.3377    0.2587    0.5842 O   0  0  0  0  0  0  0  0  0  0  0  0
    3.9890   -0.0279    0.5293 C   0  0  0  0  0  0  0  0  0  0  0  0
    3.3362   -1.0914   -0.0606 C   0  0  0  0  0  0  0  0  0  0  0  0
    1.9620   -1.1862    0.0036 C   0  0  0  0  0  0  0  0  0  0  0  0
    1.1994   -0.2354    0.6504 C   0  0  0  0  0  0  0  0  0  0  0  0
   -0.1821   -0.3300    0.7153 O   0  0  0  0  0  0  0  0  0  0  0  0
   -0.9549    0.2503   -0.2816 C   0  0  0  0  0  0  0  0  0  0  0  0
   -0.4762    0.9331   -1.3648 C   0  0  0  0  0  0  0  0  0  0  0  0
   -1.2891    1.4918   -2.3289 C   0  0  0  0  0  0  0  0  0  0  0  0
   -2.6526    1.3366   -2.1639 C   0  0  0  0  0  0  0  0  0  0  0  0
   -3.1853    0.6584   -1.0915 C   0  0  0  0  0  0  0  0  0  0  0  0
   -4.5245    0.5302   -0.9690 N   0  0  0  0  0  0  0  0  0  0  0  0
   -4.9993   -0.1523    0.1140 C   0  0  0  0  0  0  0  0  0  0  0  0
   -6.4208   -0.2388    0.1633 N   0  0  0  0  0  0  0  0  0  0  0  0
   -4.2056   -0.6984    1.0565 N   0  0  0  0  0  0  0  0  0  0  0  0
   -2.8754   -0.5749    0.9408 C   0  0  0  0  0  0  0  0  0  0  0  0
   -2.0239   -1.1539    1.9407 N   0  0  0  0  0  0  0  0  0  0  0  0
   -2.3394    0.1110   -0.1436 C   0  0  0  0  0  0  0  0  0  0  0  0
    1.8375    0.8287    1.2419 C   0  0  0  0  0  0  0  0  0  0  0  0
    3.2123    0.9255    1.1790 C   0  0  0  0  0  0  0  0  0  0  0  0
    7.3184   -0.3527    0.4165 H   0  0  0  0  0  0  0  0  0  0  0  0
    6.3625   -0.2961   -1.0962 H   0  0  0  0  0  0  0  0  0  0  0  0
    6.0691   -1.6318    0.1424 H   0  0  0  0  0  0  0  0  0  0  0  0
    4.0072   -1.7861   -0.5433 H   0  0  0  0  0  0  0  0  0  0  0  0
    1.5084   -2.0246   -0.4669 H   0  0  0  0  0  0  0  0  0  0  0  0
    0.5991    1.0343   -1.4604 H   0  0  0  0  0  0  0  0  0  0  0  0
   -0.8794    2.0263   -3.1747 H   0  0  0  0  0  0  0  0  0  0  0  0
   -3.3493    1.7523   -2.8871 H   0  0  0  0  0  0  0  0  0  0  0  0
   -7.1430   -0.8910   -0.2356 H   0  0  0  0  0  0  0  0  0  0  0  0
   -6.8260    0.5298    0.7303 H   0  0  0  0  0  0  0  0  0  0  0  0
   -1.4542   -0.6363    2.6534 H   0  0  0  0  0  0  0  0  0  0  0  0
   -2.1183   -2.1807    1.7772 H   0  0  0  0  0  0  0  0  0  0  0  0
    1.2175    1.5705    1.7488 H   0  0  0  0  0  0  0  0  0  0  0  0
    3.6144    1.8131    1.6840 H   0  0  0  0  0  0  0  0  0  0  0  0
  1  2  1  0
  2  3  1  0
  3  4  2  0
  4  5  1  0
  5  6  2  0
  6  7  1  0
  7  8  1  0
  8  9  2  0
  9 10  1  0
 10 11  2  0
 11 12  1  0
 12 13  2  0
 13 14  1  0
 14 15  1  0
 14 16  2  0
 16 17  1  0
 17 18  1  0
 17 19  2  0
  6 20  1  0
 20 21  2  0
 21  3  1  0
 19  8  1  0
 19 12  1  0
  1 22  1  0
  1 23  1  0
  1 24  1  0
  4 25  1  0
  5 26  1  0
  9 27  1  0
 10 28  1  0
 11 29  1  0
 15 30  1  0
 15 31  1  0
 18 32  1  0
 18 33  1  0
 20 34  1  0
 21 35  1  0
M  END
$$$$
