@<TRIPOS>MOLECULE
*****
 35 37 0 0 0
SMALL
GASTEIGER

@<TRIPOS>ATOM
      1 C           6.3285   -0.5621   -0.0036 C.3     1  UNL1        0.0788
      2 O           5.3377    0.2587    0.5842 O.3     1  UNL1       -0.4951
      3 C           3.9890   -0.0279    0.5293 C.ar    1  UNL1        0.1203
      4 C           3.3362   -1.0914   -0.0606 C.ar    1  UNL1       -0.0165
      5 C           1.9620   -1.1862    0.0036 C.ar    1  UNL1       -0.0159
      6 C           1.1994   -0.2354    0.6504 C.ar    1  UNL1        0.1287
      7 O          -0.1821   -0.3300    0.7153 O.3     1  UNL1       -0.4552
      8 C          -0.9549    0.2503   -0.2816 C.ar    1  UNL1        0.1409
      9 C          -0.4762    0.9331   -1.3648 C.ar    1  UNL1       -0.0185
     10 C          -1.2891    1.4918   -2.3289 C.ar    1  UNL1       -0.0562
     11 C          -2.6526    1.3366   -2.1639 C.ar    1  UNL1       -0.0353
     12 C          -3.1853    0.6584   -1.0915 C.ar    1  UNL1        0.0814
     13 N          -4.5245    0.5302   -0.9690 N.ar    1  UNL1       -0.2144
     14 C          -4.9993   -0.1523    0.1140 C.ar    1  UNL1        0.2148
     15 N          -6.4208   -0.2388    0.1633 N.pl3   1  UNL1       -0.3274
     16 N          -4.2056   -0.6984    1.0565 N.ar    1  UNL1       -0.1994
     17 C          -2.8754   -0.5749    0.9408 C.ar    1  UNL1        0.1326
     18 N          -2.0239   -1.1539    1.9407 N.pl3   1  UNL1       -0.3424
     19 C          -2.3394    0.1110   -0.1436 C.ar    1  UNL1        0.0822
     20 C           1.8375    0.8287    1.2419 C.ar    1  UNL1       -0.0159
     21 C           3.2123    0.9255    1.1790 C.ar    1  UNL1       -0.0165
     22 H           7.3184   -0.3527    0.4165 H       1  UNL1        0.0660
     23 H           6.3625   -0.2961   -1.0962 H       1  UNL1        0.0660
     24 H           6.0691   -1.6318    0.1424 H       1  UNL1        0.0660
     25 H           4.0072   -1.7861   -0.5433 H       1  UNL1        0.0655
     26 H           1.5084   -2.0246   -0.4669 H       1  UNL1        0.0655
     27 H           0.5991    1.0343   -1.4604 H       1  UNL1        0.0654
     28 H          -0.8794    2.0263   -3.1747 H       1  UNL1        0.0619
     29 H          -3.3493    1.7523   -2.8871 H       1  UNL1        0.0639
     30 H          -7.1430   -0.8910   -0.2356 H       1  UNL1        0.1452
     31 H          -6.8260    0.5298    0.7303 H       1  UNL1        0.1452
     32 H          -1.4542   -0.6363    2.6534 H       1  UNL1        0.1437
     33 H          -2.1183   -2.1807    1.7772 H       1  UNL1        0.1437
     34 H           1.2175    1.5705    1.7488 H       1  UNL1        0.0655
     35 H           3.6144    1.8131    1.6840 H       1  UNL1        0.0655
@<TRIPOS>BOND
     1     1     2    1
     2     2     3    1
     3     3     4   ar
     4     4     5   ar
     5     5     6   ar
     6     6     7    1
     7     7     8    1
     8     8     9   ar
     9     9    10   ar
    10    10    11   ar
    11    11    12   ar
    12    12    13   ar
    13    13    14   ar
    14    14    15    1
    15    14    16   ar
    16    16    17   ar
    17    17    18    1
    18    17    19   ar
    19     6    20   ar
    20    20    21   ar
    21    21     3   ar
    22    19     8   ar
    23    19    12   ar
    24     1    22    1
    25     1    23    1
    26     1    24    1
    27     4    25    1
    28     5    26    1
    29     9    27    1
    30    10    28    1
    31    11    29    1
    32    15    30    1
    33    15    31    1
    34    18    32    1
    35    18    33    1
    36    20    34    1
    37    21    35    1
