@<TRIPOS>MOLECULE
*****
 72 75 0 0 0
SMALL
GASTEIGER

@<TRIPOS>ATOM
      1 C           8.8493   -2.3962    0.7640 C.3     1  UNL1       -0.0444
      2 C           8.2599   -1.4926    1.8167 C.3     1  UNL1        0.0317
      3 C           9.2529   -0.4498    2.2551 C.3     1  UNL1       -0.0444
      4 N           6.9896   -0.9235    1.4002 N.ar    1  UNL1       -0.3127
      5 C           5.9695   -0.8091    2.2675 C.ar    1  UNL1        0.0088
      6 C           4.7420   -0.2689    1.8880 C.ar    1  UNL1       -0.0376
      7 C           4.5570    0.1615    0.5969 C.ar    1  UNL1       -0.0114
      8 C           3.2700    0.7333    0.1703 C.ar    1  UNL1       -0.0177
      9 C           2.0826    0.3262    0.7183 C.ar    1  UNL1       -0.0537
     10 C           0.8643    0.8746    0.2944 C.ar    1  UNL1       -0.0562
     11 C           0.8134    1.8201   -0.6641 C.ar    1  UNL1       -0.0271
     12 C          -0.4110    2.5098   -1.1937 C.3     1  UNL1        0.0515
     13 C          -0.5081    3.9375   -0.7848 C.3     1  UNL1       -0.0421
     14 N          -1.6124    1.7418   -1.0752 N.am    1  UNL1       -0.2605
     15 C          -2.4105    1.6512    0.1293 C.3     1  UNL1        0.0224
     16 C          -3.0111    0.2984    0.2742 C.3     1  UNL1        0.0076
     17 C          -3.7883   -0.1809   -0.9014 C.3     1  UNL1        0.1440
     18 C          -4.9995    0.5385   -1.2863 C.3     1  UNL1        0.0199
     19 C          -6.1372    0.7075   -0.3867 C.3     1  UNL1        0.0645
     20 C          -7.2599    1.4914   -1.0556 C.3     1  UNL1       -0.0362
     21 C          -6.7856   -0.6109   -0.0097 C.3     1  UNL1       -0.0362
     22 O          -5.8678    1.3354    0.8198 O.3     1  UNL1       -0.3890
     23 C          -3.9770   -1.6368   -0.7229 C.ar    1  UNL1       -0.0040
     24 C          -4.5102   -2.3260   -1.8150 C.ar    1  UNL1       -0.0548
     25 C          -4.7559   -3.6744   -1.8021 C.ar    1  UNL1       -0.0614
     26 C          -4.4582   -4.3765   -0.6573 C.ar    1  UNL1       -0.0617
     27 C          -3.9284   -3.7115    0.4340 C.ar    1  UNL1       -0.0614
     28 C          -3.6961   -2.3547    0.3851 C.ar    1  UNL1       -0.0548
     29 O          -2.8740   -0.0859   -2.0209 O.3     1  UNL1       -0.4387
     30 C          -2.1285    1.0703   -2.2139 C.2     1  UNL1        0.4042
     31 O          -1.9468    1.4613   -3.3895 O.2     1  UNL1       -0.2262
     32 C           2.0286    2.2258   -1.2125 C.ar    1  UNL1       -0.0562
     33 C           3.2295    1.6997   -0.8102 C.ar    1  UNL1       -0.0537
     34 C           5.6081    0.0399   -0.2890 C.ar    1  UNL1        0.0107
     35 C           6.8080   -0.5046    0.1389 C.ar    1  UNL1        0.2521
     36 O           7.7816   -0.6186   -0.6700 O.2     1  UNL1       -0.2677
     37 H           9.3668   -3.2649    1.2395 H       1  UNL1        0.0249
     38 H           9.5860   -1.8953    0.1191 H       1  UNL1        0.0249
     39 H           8.0105   -2.8469    0.1716 H       1  UNL1        0.0249
     40 H           8.0415   -2.1290    2.7033 H       1  UNL1        0.0523
     41 H           8.7012    0.3594    2.7699 H       1  UNL1        0.0249
     42 H          10.0179   -0.9227    2.9060 H       1  UNL1        0.0249
     43 H           9.7764   -0.0202    1.3783 H       1  UNL1        0.0249
     44 H           6.0826   -1.1402    3.2901 H       1  UNL1        0.0810
     45 H           3.9120   -0.1679    2.5731 H       1  UNL1        0.0638
     46 H           2.0610   -0.4382    1.5003 H       1  UNL1        0.0624
     47 H          -0.0213    0.5157    0.7446 H       1  UNL1        0.0621
     48 H          -0.1692    2.5002   -2.3282 H       1  UNL1        0.0549
     49 H          -1.2813    4.1466   -0.0294 H       1  UNL1        0.0251
     50 H          -0.6826    4.6091   -1.6480 H       1  UNL1        0.0251
     51 H           0.4677    4.2147   -0.3025 H       1  UNL1        0.0251
     52 H          -1.7885    1.9308    0.9857 H       1  UNL1        0.0467
     53 H          -3.2117    2.4648    0.1296 H       1  UNL1        0.0467
     54 H          -2.1615   -0.4177    0.3722 H       1  UNL1        0.0322
     55 H          -3.5549    0.2038    1.2396 H       1  UNL1        0.0322
     56 H          -5.3780    0.0795   -2.2389 H       1  UNL1        0.0335
     57 H          -4.6941    1.5781   -1.6301 H       1  UNL1        0.0335
     58 H          -7.9188    1.9288   -0.2546 H       1  UNL1        0.0257
     59 H          -7.8768    0.8502   -1.6974 H       1  UNL1        0.0257
     60 H          -6.8710    2.3253   -1.6490 H       1  UNL1        0.0257
     61 H          -7.8185   -0.4169    0.4272 H       1  UNL1        0.0257
     62 H          -7.0019   -1.2517   -0.8909 H       1  UNL1        0.0257
     63 H          -6.2607   -1.1325    0.8058 H       1  UNL1        0.0257
     64 H          -5.5754    2.2574    0.7496 H       1  UNL1        0.2101
     65 H          -4.7483   -1.7914   -2.7225 H       1  UNL1        0.0622
     66 H          -5.1713   -4.1599   -2.6804 H       1  UNL1        0.0618
     67 H          -4.6332   -5.4277   -0.5971 H       1  UNL1        0.0618
     68 H          -3.6962   -4.2890    1.3415 H       1  UNL1        0.0618
     69 H          -3.2837   -1.8527    1.2511 H       1  UNL1        0.0622
     70 H           2.0570    2.9892   -1.9893 H       1  UNL1        0.0621
     71 H           4.1667    2.0455   -1.2674 H       1  UNL1        0.0624
     72 H           5.5116    0.3628   -1.3159 H       1  UNL1        0.0678
@<TRIPOS>BOND
     1     1     2    1
     2     2     3    1
     3     2     4    1
     4     4     5   ar
     5     5     6   ar
     6     6     7   ar
     7     7     8    1
     8     8     9   ar
     9     9    10   ar
    10    10    11   ar
    11    11    12    1
    12    12    13    1
    13    12    14    1
    14    14    15    1
    15    15    16    1
    16    16    17    1
    17    17    18    1
    18    18    19    1
    19    19    20    1
    20    19    21    1
    21    19    22    1
    22    17    23    1
    23    23    24   ar
    24    24    25   ar
    25    25    26   ar
    26    26    27   ar
    27    27    28   ar
    28    17    29    1
    29    29    30    1
    30    30    31    2
    31    11    32   ar
    32    32    33   ar
    33     7    34   ar
    34    34    35   ar
    35    35    36    2
    36    35     4   ar
    37    33     8   ar
    38    30    14   am
    39    28    23   ar
    40     1    37    1
    41     1    38    1
    42     1    39    1
    43     2    40    1
    44     3    41    1
    45     3    42    1
    46     3    43    1
    47     5    44    1
    48     6    45    1
    49     9    46    1
    50    10    47    1
    51    12    48    1
    52    13    49    1
    53    13    50    1
    54    13    51    1
    55    15    52    1
    56    15    53    1
    57    16    54    1
    58    16    55    1
    59    18    56    1
    60    18    57    1
    61    20    58    1
    62    20    59    1
    63    20    60    1
    64    21    61    1
    65    21    62    1
    66    21    63    1
    67    22    64    1
    68    24    65    1
    69    25    66    1
    70    26    67    1
    71    27    68    1
    72    28    69    1
    73    32    70    1
    74    33    71    1
    75    34    72    1
