
     RDKit          3D

 72 75  0  0  0  0  0  0  0  0999 V2000
    8.8493   -2.3962    0.7640 C   0  0  0  0  0  0  0  0  0  0  0  0
    8.2599   -1.4926    1.8167 C   0  0  0  0  0  0  0  0  0  0  0  0
    9.2529   -0.4498    2.2551 C   0  0  0  0  0  0  0  0  0  0  0  0
    6.9896   -0.9235    1.4002 N   0  0  0  0  0  0  0  0  0  0  0  0
    5.9695   -0.8091    2.2675 C   0  0  0  0  0  0  0  0  0  0  0  0
    4.7420   -0.2689    1.8880 C   0  0  0  0  0  0  0  0  0  0  0  0
    4.5570    0.1615    0.5969 C   0  0  0  0  0  0  0  0  0  0  0  0
    3.2700    0.7333    0.1703 C   0  0  0  0  0  0  0  0  0  0  0  0
    2.0826    0.3262    0.7183 C   0  0  0  0  0  0  0  0  0  0  0  0
    0.8643    0.8746    0.2944 C   0  0  0  0  0  0  0  0  0  0  0  0
    0.8134    1.8201   -0.6641 C   0  0  0  0  0  0  0  0  0  0  0  0
   -0.4110    2.5098   -1.1937 C   0  0  2  0  0  0  0  0  0  0  0  0
   -0.5081    3.9375   -0.7848 C   0  0  0  0  0  0  0  0  0  0  0  0
   -1.6124    1.7418   -1.0752 N   0  0  0  0  0  0  0  0  0  0  0  0
   -2.4105    1.6512    0.1293 C   0  0  0  0  0  0  0  0  0  0  0  0
   -3.0111    0.2984    0.2742 C   0  0  0  0  0  0  0  0  0  0  0  0
   -3.7883   -0.1809   -0.9014 C   0  0  2  0  0  0  0  0  0  0  0  0
   -4.9995    0.5385   -1.2863 C   0  0  0  0  0  0  0  0  0  0  0  0
   -6.1372    0.7075   -0.3867 C   0  0  0  0  0  0  0  0  0  0  0  0
   -7.2599    1.4914   -1.0556 C   0  0  0  0  0  0  0  0  0  0  0  0
   -6.7856   -0.6109   -0.0097 C   0  0  0  0  0  0  0  0  0  0  0  0
   -5.8678    1.3354    0.8198 O   0  0  0  0  0  0  0  0  0  0  0  0
   -3.9770   -1.6368   -0.7229 C   0  0  0  0  0  0  0  0  0  0  0  0
   -4.5102   -2.3260   -1.8150 C   0  0  0  0  0  0  0  0  0  0  0  0
   -4.7559   -3.6744   -1.8021 C   0  0  0  0  0  0  0  0  0  0  0  0
   -4.4582   -4.3765   -0.6573 C   0  0  0  0  0  0  0  0  0  0  0  0
   -3.9284   -3.7115    0.4340 C   0  0  0  0  0  0  0  0  0  0  0  0
   -3.6961   -2.3547    0.3851 C   0  0  0  0  0  0  0  0  0  0  0  0
   -2.8740   -0.0859   -2.0209 O   0  0  0  0  0  0  0  0  0  0  0  0
   -2.1285    1.0703   -2.2139 C   0  0  0  0  0  0  0  0  0  0  0  0
   -1.9468    1.4613   -3.3895 O   0  0  0  0  0  0  0  0  0  0  0  0
    2.0286    2.2258   -1.2125 C   0  0  0  0  0  0  0  0  0  0  0  0
    3.2295    1.6997   -0.8102 C   0  0  0  0  0  0  0  0  0  0  0  0
    5.6081    0.0399   -0.2890 C   0  0  0  0  0  0  0  0  0  0  0  0
    6.8080   -0.5046    0.1389 C   0  0  0  0  0  0  0  0  0  0  0  0
    7.7816   -0.6186   -0.6700 O   0  0  0  0  0  0  0  0  0  0  0  0
    9.3668   -3.2649    1.2395 H   0  0  0  0  0  0  0  0  0  0  0  0
    9.5860   -1.8953    0.1191 H   0  0  0  0  0  0  0  0  0  0  0  0
    8.0105   -2.8469    0.1716 H   0  0  0  0  0  0  0  0  0  0  0  0
    8.0415   -2.1290    2.7033 H   0  0  0  0  0  0  0  0  0  0  0  0
    8.7012    0.3594    2.7699 H   0  0  0  0  0  0  0  0  0  0  0  0
   10.0179   -0.9227    2.9060 H   0  0  0  0  0  0  0  0  0  0  0  0
    9.7764   -0.0202    1.3783 H   0  0  0  0  0  0  0  0  0  0  0  0
    6.0826   -1.1402    3.2901 H   0  0  0  0  0  0  0  0  0  0  0  0
    3.9120   -0.1679    2.5731 H   0  0  0  0  0  0  0  0  0  0  0  0
    2.0610   -0.4382    1.5003 H   0  0  0  0  0  0  0  0  0  0  0  0
   -0.0213    0.5157    0.7446 H   0  0  0  0  0  0  0  0  0  0  0  0
   -0.1692    2.5002   -2.3282 H   0  0  0  0  0  0  0  0  0  0  0  0
   -1.2813    4.1466   -0.0294 H   0  0  0  0  0  0  0  0  0  0  0  0
   -0.6826    4.6091   -1.6480 H   0  0  0  0  0  0  0  0  0  0  0  0
    0.4677    4.2147   -0.3025 H   0  0  0  0  0  0  0  0  0  0  0  0
   -1.7885    1.9308    0.9857 H   0  0  0  0  0  0  0  0  0  0  0  0
   -3.2117    2.4648    0.1296 H   0  0  0  0  0  0  0  0  0  0  0  0
   -2.1615   -0.4177    0.3722 H   0  0  0  0  0  0  0  0  0  0  0  0
   -3.5549    0.2038    1.2396 H   0  0  0  0  0  0  0  0  0  0  0  0
   -5.3780    0.0795   -2.2389 H   0  0  0  0  0  0  0  0  0  0  0  0
   -4.6941    1.5781   -1.6301 H   0  0  0  0  0  0  0  0  0  0  0  0
   -7.9188    1.9288   -0.2546 H   0  0  0  0  0  0  0  0  0  0  0  0
   -7.8768    0.8502   -1.6974 H   0  0  0  0  0  0  0  0  0  0  0  0
   -6.8710    2.3253   -1.6490 H   0  0  0  0  0  0  0  0  0  0  0  0
   -7.8185   -0.4169    0.4272 H   0  0  0  0  0  0  0  0  0  0  0  0
   -7.0019   -1.2517   -0.8909 H   0  0  0  0  0  0  0  0  0  0  0  0
   -6.2607   -1.1325    0.8058 H   0  0  0  0  0  0  0  0  0  0  0  0
   -5.5754    2.2574    0.7496 H   0  0  0  0  0  0  0  0  0  0  0  0
   -4.7483   -1.7914   -2.7225 H   0  0  0  0  0  0  0  0  0  0  0  0
   -5.1713   -4.1599   -2.6804 H   0  0  0  0  0  0  0  0  0  0  0  0
   -4.6332   -5.4277   -0.5971 H   0  0  0  0  0  0  0  0  0  0  0  0
   -3.6962   -4.2890    1.3415 H   0  0  0  0  0  0  0  0  0  0  0  0
   -3.2837   -1.8527    1.2511 H   0  0  0  0  0  0  0  0  0  0  0  0
    2.0570    2.9892   -1.9893 H   0  0  0  0  0  0  0  0  0  0  0  0
    4.1667    2.0455   -1.2674 H   0  0  0  0  0  0  0  0  0  0  0  0
    5.5116    0.3628   -1.3159 H   0  0  0  0  0  0  0  0  0  0  0  0
  1  2  1  0
  2  3  1  0
  2  4  1  0
  4  5  1  0
  5  6  2  0
  6  7  1  0
  7  8  1  0
  8  9  2  0
  9 10  1  0
 10 11  2  0
 11 12  1  0
 12 13  1  0
 12 14  1  0
 14 15  1  0
 15 16  1  0
 16 17  1  0
 17 18  1  6
 18 19  1  0
 19 20  1  0
 19 21  1  0
 19 22  1  0
 17 23  1  0
 23 24  2  0
 24 25  1  0
 25 26  2  0
 26 27  1  0
 27 28  2  0
 17 29  1  0
 29 30  1  0
 30 31  2  0
 11 32  1  0
 32 33  2  0
  7 34  2  0
 34 35  1  0
 35 36  2  0
 35  4  1  0
 33  8  1  0
 30 14  1  0
 28 23  1  0
  1 37  1  0
  1 38  1  0
  1 39  1  0
  2 40  1  0
  3 41  1  0
  3 42  1  0
  3 43  1  0
  5 44  1  0
  6 45  1  0
  9 46  1  0
 10 47  1  0
 12 48  1  6
 13 49  1  0
 13 50  1  0
 13 51  1  0
 15 52  1  0
 15 53  1  0
 16 54  1  0
 16 55  1  0
 18 56  1  0
 18 57  1  0
 20 58  1  0
 20 59  1  0
 20 60  1  0
 21 61  1  0
 21 62  1  0
 21 63  1  0
 22 64  1  0
 24 65  1  0
 25 66  1  0
 26 67  1  0
 27 68  1  0
 28 69  1  0
 32 70  1  0
 33 71  1  0
 34 72  1  0
M  END
$$$$
