@<TRIPOS>MOLECULE
*****
 78 77 0 0 0
SMALL
GASTEIGER

@<TRIPOS>ATOM
      1 N           0.0649   -0.9575   -1.4425 N.3     1  UNL1       -0.3193
      2 C           0.0616   -0.2155   -0.1908 C.3     1  UNL1        0.0865
      3 C          -0.5411    1.1223   -0.4774 C.3     1  UNL1        0.0665
      4 O          -0.6194    1.9571    0.6122 O.3     1  UNL1       -0.3930
      5 C          -0.7610   -0.9540    0.8200 C.3     1  UNL1        0.0665
      6 O          -2.0741   -1.1086    0.3969 O.3     1  UNL1       -0.3930
      7 C           1.4822   -0.1073    0.3091 C.3     1  UNL1        0.0665
      8 O           2.3064    0.5509   -0.5915 O.3     1  UNL1       -0.3930
      9 C          -3.8735    2.9789   -0.6914 C.3     2  UNL2       -0.0653
     10 C          -5.1849    2.3889   -1.0450 C.3     2  UNL2       -0.0559
     11 C          -5.5004    1.0225   -0.5700 C.3     2  UNL2       -0.0532
     12 C          -4.6451   -0.1035   -0.9686 C.3     2  UNL2       -0.0504
     13 C          -3.2437   -0.1996   -0.4684 C.3     2  UNL2       -0.0232
     14 C          -3.1861   -0.4257    1.0009 C.3     2  UNL2        0.0734
     15 O          -3.7949    0.5771    1.7020 O.3     2  UNL2       -0.3878
     16 C          -1.7986   -0.5520    1.5259 C.2     2  UNL2       -0.0595
     17 C          -1.1128   -1.5765    1.0663 C.2     2  UNL2       -0.0796
     18 C           0.2643   -2.0844    1.3014 C.3     2  UNL2        0.0087
     19 C           0.1922   -3.5233    1.8271 C.3     2  UNL2        0.0641
     20 O           0.1466   -3.5631    3.2186 O.3     2  UNL2       -0.3911
     21 C           1.4821   -4.0922    1.2733 C.3     2  UNL2        0.0001
     22 C           1.4335   -3.6004   -0.1694 C.3     2  UNL2        0.0613
     23 O           2.7030   -3.6601   -0.7462 O.3     2  UNL2       -0.3914
     24 C           1.0993   -2.1334    0.0610 C.3     2  UNL2       -0.0029
     25 C           2.3911   -1.3306    0.1905 C.3     2  UNL2       -0.0290
     26 C           2.0812    0.0784    0.4612 C.2     2  UNL2       -0.0876
     27 C           2.4093    1.1419   -0.2738 C.2     2  UNL2       -0.0879
     28 C           3.1663    1.0962   -1.5307 C.3     2  UNL2       -0.0343
     29 C           4.4413    1.9173   -1.3454 C.3     2  UNL2       -0.0395
     30 C           4.1467    3.3609   -1.0045 C.3     2  UNL2        0.0451
     31 C           5.4537    4.0864   -0.8419 C.2     2  UNL2        0.3047
     32 O           6.6988    3.4946   -0.9882 O.3     2  UNL2       -0.4806
     33 O           5.5187    5.3089   -0.5552 O.2     2  UNL2       -0.2510
     34 H           0.8767   -1.6052   -1.4916 H       1  UNL1        0.1189
     35 H          -0.8539   -1.4109   -1.5962 H       1  UNL1        0.1189
     36 H          -1.5887    0.9323   -0.8371 H       1  UNL1        0.0577
     37 H           0.0537    1.5860   -1.2841 H       1  UNL1        0.0577
     38 H          -0.7237    2.8912    0.2671 H       1  UNL1        0.2095
     39 H          -0.7730   -0.4167    1.7850 H       1  UNL1        0.0577
     40 H          -0.3160   -1.9624    1.0040 H       1  UNL1        0.0577
     41 H          -2.7385   -0.7925    1.0639 H       1  UNL1        0.2095
     42 H           1.8524   -1.1530    0.4653 H       1  UNL1        0.0577
     43 H           1.4317    0.4520    1.2673 H       1  UNL1        0.0577
     44 H           2.8598    1.1916   -0.0796 H       1  UNL1        0.2095
     45 H          -3.4401    2.6764    0.2635 H       2  UNL2        0.0230
     46 H          -3.1547    2.8473   -1.5502 H       2  UNL2        0.0230
     47 H          -3.9828    4.1236   -0.5541 H       2  UNL2        0.0230
     48 H          -5.3459    2.4136   -2.1829 H       2  UNL2        0.0263
     49 H          -5.9702    3.0797   -0.5964 H       2  UNL2        0.0263
     50 H          -6.5512    0.7521   -0.9557 H       2  UNL2        0.0265
     51 H          -5.6778    1.0979    0.5341 H       2  UNL2        0.0265
     52 H          -5.1511   -1.1051   -0.7496 H       2  UNL2        0.0266
     53 H          -4.5870   -0.0872   -2.1013 H       2  UNL2        0.0266
     54 H          -2.6869    0.7002   -0.7966 H       2  UNL2        0.0293
     55 H          -2.7423   -1.0318   -1.0411 H       2  UNL2        0.0293
     56 H          -3.7123   -1.3803    1.2939 H       2  UNL2        0.0637
     57 H          -3.2289    1.0368    2.3721 H       2  UNL2        0.2102
     58 H          -1.1550    0.0058    2.2299 H       2  UNL2        0.0594
     59 H          -1.5336   -2.2940    0.3423 H       2  UNL2        0.0573
     60 H           0.8112   -1.5253    2.0775 H       2  UNL2        0.0372
     61 H          -0.6412   -4.0947    1.3474 H       2  UNL2        0.0600
     62 H          -0.7240   -3.9282    3.4693 H       2  UNL2        0.2098
     63 H           2.3146   -3.5684    1.7687 H       2  UNL2        0.0315
     64 H           1.5361   -5.1957    1.3306 H       2  UNL2        0.0315
     65 H           0.6760   -4.1206   -0.7730 H       2  UNL2        0.0597
     66 H           2.7989   -4.3857   -1.3895 H       2  UNL2        0.2098
     67 H           0.4962   -1.7601   -0.7958 H       2  UNL2        0.0335
     68 H           2.9870   -1.5205   -0.6982 H       2  UNL2        0.0311
     69 H           2.9188   -1.7241    1.0984 H       2  UNL2        0.0311
     70 H           1.5101    0.2612    1.3835 H       2  UNL2        0.0569
     71 H           2.1002    2.1229    0.0707 H       2  UNL2        0.0569
     72 H           3.5025    0.0942   -1.8334 H       2  UNL2        0.0307
     73 H           2.5581    1.6026   -2.3084 H       2  UNL2        0.0307
     74 H           5.0489    1.5257   -0.5053 H       2  UNL2        0.0273
     75 H           5.0898    1.8471   -2.2365 H       2  UNL2        0.0273
     76 H           3.5095    3.8222   -1.7661 H       2  UNL2        0.0378
     77 H           3.6961    3.3926    0.0279 H       2  UNL2        0.0378
     78 H           7.4431    3.7128   -0.3187 H       2  UNL2        0.2951
@<TRIPOS>BOND
     1     1     2    1
     2     2     3    1
     3     3     4    1
     4     2     5    1
     5     5     6    1
     6     2     7    1
     7     7     8    1
     8     9    10    1
     9    10    11    1
    10    11    12    1
    11    12    13    1
    12    13    14    1
    13    14    15    1
    14    14    16    1
    15    16    17    2
    16    17    18    1
    17    18    19    1
    18    19    20    1
    19    19    21    1
    20    21    22    1
    21    22    23    1
    22    22    24    1
    23    24    25    1
    24    25    26    1
    25    26    27    2
    26    27    28    1
    27    28    29    1
    28    29    30    1
    29    30    31    1
    30    31    32    1
    31    31    33    2
    32    24    18    1
    33     1    34    1
    34     1    35    1
    35     3    36    1
    36     3    37    1
    37     4    38    1
    38     5    39    1
    39     5    40    1
    40     6    41    1
    41     7    42    1
    42     7    43    1
    43     8    44    1
    44     9    45    1
    45     9    46    1
    46     9    47    1
    47    10    48    1
    48    10    49    1
    49    11    50    1
    50    11    51    1
    51    12    52    1
    52    12    53    1
    53    13    54    1
    54    13    55    1
    55    14    56    1
    56    15    57    1
    57    16    58    1
    58    17    59    1
    59    18    60    1
    60    19    61    1
    61    20    62    1
    62    21    63    1
    63    21    64    1
    64    22    65    1
    65    23    66    1
    66    24    67    1
    67    25    68    1
    68    25    69    1
    69    26    70    1
    70    27    71    1
    71    28    72    1
    72    28    73    1
    73    29    74    1
    74    29    75    1
    75    30    76    1
    76    30    77    1
    77    32    78    1
