
     RDKit          3D

 78 77  0  0  0  0  0  0  0  0999 V2000
    0.0649   -0.9575   -1.4425 N   0  0  0  0  0  0  0  0  0  0  0  0
    0.0616   -0.2155   -0.1908 C   0  0  0  0  0  0  0  0  0  0  0  0
   -0.5411    1.1223   -0.4774 C   0  0  0  0  0  0  0  0  0  0  0  0
   -0.6194    1.9571    0.6122 O   0  0  0  0  0  0  0  0  0  0  0  0
   -0.7610   -0.9540    0.8200 C   0  0  0  0  0  0  0  0  0  0  0  0
   -2.0741   -1.1086    0.3969 O   0  0  0  0  0  0  0  0  0  0  0  0
    1.4822   -0.1073    0.3091 C   0  0  0  0  0  0  0  0  0  0  0  0
    2.3064    0.5509   -0.5915 O   0  0  0  0  0  0  0  0  0  0  0  0
   -3.8735    2.9789   -0.6914 C   0  0  0  0  0  0  0  0  0  0  0  0
   -5.1849    2.3889   -1.0450 C   0  0  0  0  0  0  0  0  0  0  0  0
   -5.5004    1.0225   -0.5700 C   0  0  0  0  0  0  0  0  0  0  0  0
   -4.6451   -0.1035   -0.9686 C   0  0  0  0  0  0  0  0  0  0  0  0
   -3.2437   -0.1996   -0.4684 C   0  0  0  0  0  0  0  0  0  0  0  0
   -3.1861   -0.4257    1.0009 C   0  0  2  0  0  0  0  0  0  0  0  0
   -3.7949    0.5771    1.7020 O   0  0  0  0  0  0  0  0  0  0  0  0
   -1.7986   -0.5520    1.5259 C   0  0  0  0  0  0  0  0  0  0  0  0
   -1.1128   -1.5765    1.0663 C   0  0  0  0  0  0  0  0  0  0  0  0
    0.2643   -2.0844    1.3014 C   0  0  1  0  0  0  0  0  0  0  0  0
    0.1922   -3.5233    1.8271 C   0  0  2  0  0  0  0  0  0  0  0  0
    0.1466   -3.5631    3.2186 O   0  0  0  0  0  0  0  0  0  0  0  0
    1.4821   -4.0922    1.2733 C   0  0  0  0  0  0  0  0  0  0  0  0
    1.4335   -3.6004   -0.1694 C   0  0  2  0  0  0  0  0  0  0  0  0
    2.7030   -3.6601   -0.7462 O   0  0  0  0  0  0  0  0  0  0  0  0
    1.0993   -2.1334    0.0610 C   0  0  2  0  0  0  0  0  0  0  0  0
    2.3911   -1.3306    0.1905 C   0  0  0  0  0  0  0  0  0  0  0  0
    2.0812    0.0784    0.4612 C   0  0  0  0  0  0  0  0  0  0  0  0
    2.4093    1.1419   -0.2738 C   0  0  0  0  0  0  0  0  0  0  0  0
    3.1663    1.0962   -1.5307 C   0  0  0  0  0  0  0  0  0  0  0  0
    4.4413    1.9173   -1.3454 C   0  0  0  0  0  0  0  0  0  0  0  0
    4.1467    3.3609   -1.0045 C   0  0  0  0  0  0  0  0  0  0  0  0
    5.4537    4.0864   -0.8419 C   0  0  0  0  0  0  0  0  0  0  0  0
    6.6988    3.4946   -0.9882 O   0  0  0  0  0  0  0  0  0  0  0  0
    5.5187    5.3089   -0.5552 O   0  0  0  0  0  0  0  0  0  0  0  0
    0.8767   -1.6052   -1.4916 H   0  0  0  0  0  0  0  0  0  0  0  0
   -0.8539   -1.4109   -1.5962 H   0  0  0  0  0  0  0  0  0  0  0  0
   -1.5887    0.9323   -0.8371 H   0  0  0  0  0  0  0  0  0  0  0  0
    0.0537    1.5860   -1.2841 H   0  0  0  0  0  0  0  0  0  0  0  0
   -0.7237    2.8912    0.2671 H   0  0  0  0  0  0  0  0  0  0  0  0
   -0.7730   -0.4167    1.7850 H   0  0  0  0  0  0  0  0  0  0  0  0
   -0.3160   -1.9624    1.0040 H   0  0  0  0  0  0  0  0  0  0  0  0
   -2.7385   -0.7925    1.0639 H   0  0  0  0  0  0  0  0  0  0  0  0
    1.8524   -1.1530    0.4653 H   0  0  0  0  0  0  0  0  0  0  0  0
    1.4317    0.4520    1.2673 H   0  0  0  0  0  0  0  0  0  0  0  0
    2.8598    1.1916   -0.0796 H   0  0  0  0  0  0  0  0  0  0  0  0
   -3.4401    2.6764    0.2635 H   0  0  0  0  0  0  0  0  0  0  0  0
   -3.1547    2.8473   -1.5502 H   0  0  0  0  0  0  0  0  0  0  0  0
   -3.9828    4.1236   -0.5541 H   0  0  0  0  0  0  0  0  0  0  0  0
   -5.3459    2.4136   -2.1829 H   0  0  0  0  0  0  0  0  0  0  0  0
   -5.9702    3.0797   -0.5964 H   0  0  0  0  0  0  0  0  0  0  0  0
   -6.5512    0.7521   -0.9557 H   0  0  0  0  0  0  0  0  0  0  0  0
   -5.6778    1.0979    0.5341 H   0  0  0  0  0  0  0  0  0  0  0  0
   -5.1511   -1.1051   -0.7496 H   0  0  0  0  0  0  0  0  0  0  0  0
   -4.5870   -0.0872   -2.1013 H   0  0  0  0  0  0  0  0  0  0  0  0
   -2.6869    0.7002   -0.7966 H   0  0  0  0  0  0  0  0  0  0  0  0
   -2.7423   -1.0318   -1.0411 H   0  0  0  0  0  0  0  0  0  0  0  0
   -3.7123   -1.3803    1.2939 H   0  0  0  0  0  0  0  0  0  0  0  0
   -3.2289    1.0368    2.3721 H   0  0  0  0  0  0  0  0  0  0  0  0
   -1.1550    0.0058    2.2299 H   0  0  0  0  0  0  0  0  0  0  0  0
   -1.5336   -2.2940    0.3423 H   0  0  0  0  0  0  0  0  0  0  0  0
    0.8112   -1.5253    2.0775 H   0  0  0  0  0  0  0  0  0  0  0  0
   -0.6412   -4.0947    1.3474 H   0  0  0  0  0  0  0  0  0  0  0  0
   -0.7240   -3.9282    3.4693 H   0  0  0  0  0  0  0  0  0  0  0  0
    2.3146   -3.5684    1.7687 H   0  0  0  0  0  0  0  0  0  0  0  0
    1.5361   -5.1957    1.3306 H   0  0  0  0  0  0  0  0  0  0  0  0
    0.6760   -4.1206   -0.7730 H   0  0  0  0  0  0  0  0  0  0  0  0
    2.7989   -4.3857   -1.3895 H   0  0  0  0  0  0  0  0  0  0  0  0
    0.4962   -1.7601   -0.7958 H   0  0  0  0  0  0  0  0  0  0  0  0
    2.9870   -1.5205   -0.6982 H   0  0  0  0  0  0  0  0  0  0  0  0
    2.9188   -1.7241    1.0984 H   0  0  0  0  0  0  0  0  0  0  0  0
    1.5101    0.2612    1.3835 H   0  0  0  0  0  0  0  0  0  0  0  0
    2.1002    2.1229    0.0707 H   0  0  0  0  0  0  0  0  0  0  0  0
    3.5025    0.0942   -1.8334 H   0  0  0  0  0  0  0  0  0  0  0  0
    2.5581    1.6026   -2.3084 H   0  0  0  0  0  0  0  0  0  0  0  0
    5.0489    1.5257   -0.5053 H   0  0  0  0  0  0  0  0  0  0  0  0
    5.0898    1.8471   -2.2365 H   0  0  0  0  0  0  0  0  0  0  0  0
    3.5095    3.8222   -1.7661 H   0  0  0  0  0  0  0  0  0  0  0  0
    3.6961    3.3926    0.0279 H   0  0  0  0  0  0  0  0  0  0  0  0
    7.4431    3.7128   -0.3187 H   0  0  0  0  0  0  0  0  0  0  0  0
  1  2  1  0
  2  3  1  0
  3  4  1  0
  2  5  1  0
  5  6  1  0
  2  7  1  0
  7  8  1  0
  9 10  1  0
 10 11  1  0
 11 12  1  0
 12 13  1  0
 13 14  1  0
 14 15  1  0
 14 16  1  0
 16 17  2  0
 17 18  1  0
 18 19  1  0
 19 20  1  0
 19 21  1  0
 21 22  1  0
 22 23  1  0
 22 24  1  0
 24 25  1  0
 25 26  1  0
 26 27  2  0
 27 28  1  0
 28 29  1  0
 29 30  1  0
 30 31  1  0
 31 32  1  0
 31 33  2  0
 24 18  1  0
  1 34  1  0
  1 35  1  0
  3 36  1  0
  3 37  1  0
  4 38  1  0
  5 39  1  0
  5 40  1  0
  6 41  1  0
  7 42  1  0
  7 43  1  0
  8 44  1  0
  9 45  1  0
  9 46  1  0
  9 47  1  0
 10 48  1  0
 10 49  1  0
 11 50  1  0
 11 51  1  0
 12 52  1  0
 12 53  1  0
 13 54  1  0
 13 55  1  0
 14 56  1  6
 15 57  1  0
 16 58  1  0
 17 59  1  0
 18 60  1  1
 19 61  1  6
 20 62  1  0
 21 63  1  0
 21 64  1  0
 22 65  1  6
 23 66  1  0
 24 67  1  6
 25 68  1  0
 25 69  1  0
 26 70  1  0
 27 71  1  0
 28 72  1  0
 28 73  1  0
 29 74  1  0
 29 75  1  0
 30 76  1  0
 30 77  1  0
 32 78  1  0
M  END
$$$$
