
     RDKit          3D

 68 69  0  0  0  0  0  0  0  0999 V2000
   -6.6579   -0.9241   -2.0402 C   0  0  0  0  0  0  0  0  0  0  0  0
   -7.1672   -0.3803   -0.9410 C   0  0  0  0  0  0  0  0  0  0  0  0
   -7.0814    1.0744   -0.6509 C   0  0  0  0  0  0  0  0  0  0  0  0
   -6.3625    1.2688    0.5908 N   0  0  0  0  0  4  0  0  0  0  0  0
   -7.1789    0.8854    1.7211 C   0  0  0  0  0  0  0  0  0  0  0  0
   -5.9191    2.6218    0.7782 C   0  0  0  0  0  0  0  0  0  0  0  0
   -5.1898    0.4484    0.5327 C   0  0  0  0  0  0  0  0  0  0  0  0
   -4.8108   -0.3729    1.5738 C   0  0  0  0  0  0  0  0  0  0  0  0
   -3.6944   -1.1583    1.5293 C   0  0  0  0  0  0  0  0  0  0  0  0
   -2.9021   -1.1270    0.3764 C   0  0  0  0  0  0  0  0  0  0  0  0
   -1.7398   -2.0125    0.3041 C   0  0  0  0  0  0  0  0  0  0  0  0
   -0.5087   -1.6527    1.0053 C   0  0  0  0  0  0  0  0  0  0  0  0
    0.2569   -0.4683    0.6882 C   0  0  0  0  0  0  0  0  0  0  0  0
    1.1582   -0.1592    1.5362 O   0  0  0  0  0  0  0  0  0  0  0  0
    0.1994    0.4630   -0.4467 C   0  0  0  0  0  0  0  0  0  0  0  0
    1.0120   -0.0519   -1.6325 C   0  0  0  0  0  0  0  0  0  0  0  0
    2.4428   -0.2200   -1.2492 C   0  0  0  0  0  0  0  0  0  0  0  0
    3.3370    0.8166   -1.4030 C   0  0  0  0  0  0  0  0  0  0  0  0
    4.6722    0.7419   -1.0715 C   0  0  0  0  0  0  0  0  0  0  0  0
    5.1668   -0.4548   -0.5443 C   0  0  0  0  0  0  0  0  0  0  0  0
    6.5380   -0.5136   -0.2076 N   0  0  0  0  0  4  0  0  0  0  0  0
    7.3759    0.0437   -1.2545 C   0  0  0  0  0  0  0  0  0  0  0  0
    6.9250   -1.9279   -0.1232 C   0  0  0  0  0  0  0  0  0  0  0  0
    6.7308    0.1346    1.0616 C   0  0  0  0  0  0  0  0  0  0  0  0
    7.3327    1.4780    0.8403 C   0  0  0  0  0  0  0  0  0  0  0  0
    6.7092    2.5890    1.2344 C   0  0  0  0  0  0  0  0  0  0  0  0
    4.2719   -1.4993   -0.3879 C   0  0  0  0  0  0  0  0  0  0  0  0
    2.9343   -1.3962   -0.7299 C   0  0  0  0  0  0  0  0  0  0  0  0
   -3.2550   -0.3283   -0.6589 C   0  0  0  0  0  0  0  0  0  0  0  0
   -4.3867    0.4540   -0.5868 C   0  0  0  0  0  0  0  0  0  0  0  0
   -6.1487   -0.3197   -2.7865 H   0  0  0  0  0  0  0  0  0  0  0  0
   -6.7295   -1.9860   -2.2353 H   0  0  0  0  0  0  0  0  0  0  0  0
   -7.6640   -1.0300   -0.2320 H   0  0  0  0  0  0  0  0  0  0  0  0
   -6.6392    1.6266   -1.4877 H   0  0  0  0  0  0  0  0  0  0  0  0
   -8.1400    1.4208   -0.5028 H   0  0  0  0  0  0  0  0  0  0  0  0
   -8.1837    1.3755    1.6282 H   0  0  0  0  0  0  0  0  0  0  0  0
   -6.6784    1.2012    2.6572 H   0  0  0  0  0  0  0  0  0  0  0  0
   -7.3331   -0.2179    1.7855 H   0  0  0  0  0  0  0  0  0  0  0  0
   -6.7057    3.3159    1.1029 H   0  0  0  0  0  0  0  0  0  0  0  0
   -5.1454    2.5945    1.6015 H   0  0  0  0  0  0  0  0  0  0  0  0
   -5.3806    2.9645   -0.1235 H   0  0  0  0  0  0  0  0  0  0  0  0
   -5.4337   -0.4023    2.4902 H   0  0  0  0  0  0  0  0  0  0  0  0
   -3.3787   -1.8152    2.3442 H   0  0  0  0  0  0  0  0  0  0  0  0
   -1.5398   -2.1855   -0.7858 H   0  0  0  0  0  0  0  0  0  0  0  0
   -2.1175   -3.0362    0.6441 H   0  0  0  0  0  0  0  0  0  0  0  0
    0.2032   -2.5523    0.8547 H   0  0  0  0  0  0  0  0  0  0  0  0
   -0.6427   -1.7287    2.1478 H   0  0  0  0  0  0  0  0  0  0  0  0
    0.7401    1.4287   -0.1509 H   0  0  0  0  0  0  0  0  0  0  0  0
   -0.7838    0.8216   -0.7510 H   0  0  0  0  0  0  0  0  0  0  0  0
    0.5931   -1.0327   -1.9023 H   0  0  0  0  0  0  0  0  0  0  0  0
    0.9905    0.6869   -2.4503 H   0  0  0  0  0  0  0  0  0  0  0  0
    2.9414    1.7392   -1.8127 H   0  0  0  0  0  0  0  0  0  0  0  0
    5.3407    1.5963   -1.2136 H   0  0  0  0  0  0  0  0  0  0  0  0
    8.4122   -0.3187   -1.0860 H   0  0  0  0  0  0  0  0  0  0  0  0
    7.3118    1.1240   -1.3624 H   0  0  0  0  0  0  0  0  0  0  0  0
    7.0279   -0.4138   -2.2126 H   0  0  0  0  0  0  0  0  0  0  0  0
    8.0273   -2.0276   -0.2264 H   0  0  0  0  0  0  0  0  0  0  0  0
    6.4428   -2.4481   -0.9752 H   0  0  0  0  0  0  0  0  0  0  0  0
    6.5458   -2.3607    0.8163 H   0  0  0  0  0  0  0  0  0  0  0  0
    5.7467    0.2736    1.5400 H   0  0  0  0  0  0  0  0  0  0  0  0
    7.3382   -0.4811    1.7589 H   0  0  0  0  0  0  0  0  0  0  0  0
    8.2943    1.6025    0.3544 H   0  0  0  0  0  0  0  0  0  0  0  0
    7.1102    3.5658    1.0924 H   0  0  0  0  0  0  0  0  0  0  0  0
    5.7546    2.4945    1.7200 H   0  0  0  0  0  0  0  0  0  0  0  0
    4.6752   -2.4360    0.0288 H   0  0  0  0  0  0  0  0  0  0  0  0
    2.2890   -2.2495   -0.5822 H   0  0  0  0  0  0  0  0  0  0  0  0
   -2.6811   -0.2651   -1.5990 H   0  0  0  0  0  0  0  0  0  0  0  0
   -4.6684    1.1032   -1.4360 H   0  0  0  0  0  0  0  0  0  0  0  0
  1  2  2  3
  2  3  1  0
  3  4  1  0
  4  5  1  0
  4  6  1  0
  4  7  1  0
  7  8  2  0
  8  9  1  0
  9 10  2  0
 10 11  1  0
 11 12  1  0
 12 13  1  0
 13 14  2  0
 13 15  1  0
 15 16  1  0
 16 17  1  0
 17 18  2  0
 18 19  1  0
 19 20  2  0
 20 21  1  0
 21 22  1  0
 21 23  1  0
 21 24  1  0
 24 25  1  0
 25 26  2  3
 20 27  1  0
 27 28  2  0
 10 29  1  0
 29 30  2  0
 30  7  1  0
 28 17  1  0
  1 31  1  0
  1 32  1  0
  2 33  1  0
  3 34  1  0
  3 35  1  0
  5 36  1  0
  5 37  1  0
  5 38  1  0
  6 39  1  0
  6 40  1  0
  6 41  1  0
  8 42  1  0
  9 43  1  0
 11 44  1  0
 11 45  1  0
 12 46  1  0
 12 47  1  0
 15 48  1  0
 15 49  1  0
 16 50  1  0
 16 51  1  0
 18 52  1  0
 19 53  1  0
 22 54  1  0
 22 55  1  0
 22 56  1  0
 23 57  1  0
 23 58  1  0
 23 59  1  0
 24 60  1  0
 24 61  1  0
 25 62  1  0
 26 63  1  0
 26 64  1  0
 27 65  1  0
 28 66  1  0
 29 67  1  0
 30 68  1  0
M  CHG  2   4   1  21   1
M  END
$$$$
