@<TRIPOS>MOLECULE
*****
 68 69 0 0 0
SMALL
GASTEIGER

@<TRIPOS>ATOM
      1 C          -6.6579   -0.9241   -2.0402 C.2     1  UNL1       -0.0969
      2 C          -7.1672   -0.3803   -0.9410 C.2     1  UNL1       -0.0324
      3 C          -7.0814    1.0744   -0.6509 C.3     1  UNL1        0.1104
      4 N          -6.3625    1.2688    0.5908 N.pl3   1  UNL1       -0.3777
      5 C          -7.1789    0.8854    1.7211 C.3     1  UNL1        0.0816
      6 C          -5.9191    2.6218    0.7782 C.3     1  UNL1        0.0816
      7 C          -5.1898    0.4484    0.5327 C.ar    1  UNL1        0.1458
      8 C          -4.8108   -0.3729    1.5738 C.ar    1  UNL1        0.0039
      9 C          -3.6944   -1.1583    1.5293 C.ar    1  UNL1       -0.0526
     10 C          -2.9021   -1.1270    0.3764 C.ar    1  UNL1       -0.0466
     11 C          -1.7398   -2.0125    0.3041 C.3     1  UNL1       -0.0210
     12 C          -0.5087   -1.6527    1.0053 C.3     1  UNL1        0.0098
     13 C           0.2569   -0.4683    0.6882 C.2     1  UNL1        0.1340
     14 O           1.1582   -0.1592    1.5362 O.2     1  UNL1       -0.2974
     15 C           0.1994    0.4630   -0.4467 C.3     1  UNL1        0.0098
     16 C           1.0120   -0.0519   -1.6325 C.3     1  UNL1       -0.0210
     17 C           2.4428   -0.2200   -1.2492 C.ar    1  UNL1       -0.0466
     18 C           3.3370    0.8166   -1.4030 C.ar    1  UNL1       -0.0526
     19 C           4.6722    0.7419   -1.0715 C.ar    1  UNL1        0.0039
     20 C           5.1668   -0.4548   -0.5443 C.ar    1  UNL1        0.1458
     21 N           6.5380   -0.5136   -0.2076 N.pl3   1  UNL1       -0.3777
     22 C           7.3759    0.0437   -1.2545 C.3     1  UNL1        0.0816
     23 C           6.9250   -1.9279   -0.1232 C.3     1  UNL1        0.0816
     24 C           6.7308    0.1346    1.0616 C.3     1  UNL1        0.1104
     25 C           7.3327    1.4780    0.8403 C.2     1  UNL1       -0.0324
     26 C           6.7092    2.5890    1.2344 C.2     1  UNL1       -0.0969
     27 C           4.2719   -1.4993   -0.3879 C.ar    1  UNL1        0.0039
     28 C           2.9343   -1.3962   -0.7299 C.ar    1  UNL1       -0.0526
     29 C          -3.2550   -0.3283   -0.6589 C.ar    1  UNL1       -0.0526
     30 C          -4.3867    0.4540   -0.5868 C.ar    1  UNL1        0.0039
     31 H          -6.1487   -0.3197   -2.7865 H       1  UNL1        0.0534
     32 H          -6.7295   -1.9860   -2.2353 H       1  UNL1        0.0534
     33 H          -7.6640   -1.0300   -0.2320 H       1  UNL1        0.0627
     34 H          -6.6392    1.6266   -1.4877 H       1  UNL1        0.1016
     35 H          -8.1400    1.4208   -0.5028 H       1  UNL1        0.1016
     36 H          -8.1837    1.3755    1.6282 H       1  UNL1        0.0931
     37 H          -6.6784    1.2012    2.6572 H       1  UNL1        0.0931
     38 H          -7.3331   -0.2179    1.7855 H       1  UNL1        0.0931
     39 H          -6.7057    3.3159    1.1029 H       1  UNL1        0.0931
     40 H          -5.1454    2.5945    1.6015 H       1  UNL1        0.0931
     41 H          -5.3806    2.9645   -0.1235 H       1  UNL1        0.0931
     42 H          -5.4337   -0.4023    2.4902 H       1  UNL1        0.0681
     43 H          -3.3787   -1.8152    2.3442 H       1  UNL1        0.0622
     44 H          -1.5398   -2.1855   -0.7858 H       1  UNL1        0.0317
     45 H          -2.1175   -3.0362    0.6441 H       1  UNL1        0.0317
     46 H           0.2032   -2.5523    0.8547 H       1  UNL1        0.0345
     47 H          -0.6427   -1.7287    2.1478 H       1  UNL1        0.0345
     48 H           0.7401    1.4287   -0.1509 H       1  UNL1        0.0345
     49 H          -0.7838    0.8216   -0.7510 H       1  UNL1        0.0345
     50 H           0.5931   -1.0327   -1.9023 H       1  UNL1        0.0317
     51 H           0.9905    0.6869   -2.4503 H       1  UNL1        0.0317
     52 H           2.9414    1.7392   -1.8127 H       1  UNL1        0.0622
     53 H           5.3407    1.5963   -1.2136 H       1  UNL1        0.0681
     54 H           8.4122   -0.3187   -1.0860 H       1  UNL1        0.0931
     55 H           7.3118    1.1240   -1.3624 H       1  UNL1        0.0931
     56 H           7.0279   -0.4138   -2.2126 H       1  UNL1        0.0931
     57 H           8.0273   -2.0276   -0.2264 H       1  UNL1        0.0931
     58 H           6.4428   -2.4481   -0.9752 H       1  UNL1        0.0931
     59 H           6.5458   -2.3607    0.8163 H       1  UNL1        0.0931
     60 H           5.7467    0.2736    1.5400 H       1  UNL1        0.1016
     61 H           7.3382   -0.4811    1.7589 H       1  UNL1        0.1016
     62 H           8.2943    1.6025    0.3544 H       1  UNL1        0.0627
     63 H           7.1102    3.5658    1.0924 H       1  UNL1        0.0534
     64 H           5.7546    2.4945    1.7200 H       1  UNL1        0.0534
     65 H           4.6752   -2.4360    0.0288 H       1  UNL1        0.0681
     66 H           2.2890   -2.2495   -0.5822 H       1  UNL1        0.0622
     67 H          -2.6811   -0.2651   -1.5990 H       1  UNL1        0.0622
     68 H          -4.6684    1.1032   -1.4360 H       1  UNL1        0.0681
@<TRIPOS>UNITY_ATOM_ATTR
4 1
charge 1
21 1
charge 1
@<TRIPOS>BOND
     1     1     2    2
     2     2     3    1
     3     3     4    1
     4     4     5    1
     5     4     6    1
     6     4     7    1
     7     7     8   ar
     8     8     9   ar
     9     9    10   ar
    10    10    11    1
    11    11    12    1
    12    12    13    1
    13    13    14    2
    14    13    15    1
    15    15    16    1
    16    16    17    1
    17    17    18   ar
    18    18    19   ar
    19    19    20   ar
    20    20    21    1
    21    21    22    1
    22    21    23    1
    23    21    24    1
    24    24    25    1
    25    25    26    2
    26    20    27   ar
    27    27    28   ar
    28    10    29   ar
    29    29    30   ar
    30    30     7   ar
    31    28    17   ar
    32     1    31    1
    33     1    32    1
    34     2    33    1
    35     3    34    1
    36     3    35    1
    37     5    36    1
    38     5    37    1
    39     5    38    1
    40     6    39    1
    41     6    40    1
    42     6    41    1
    43     8    42    1
    44     9    43    1
    45    11    44    1
    46    11    45    1
    47    12    46    1
    48    12    47    1
    49    15    48    1
    50    15    49    1
    51    16    50    1
    52    16    51    1
    53    18    52    1
    54    19    53    1
    55    22    54    1
    56    22    55    1
    57    22    56    1
    58    23    57    1
    59    23    58    1
    60    23    59    1
    61    24    60    1
    62    24    61    1
    63    25    62    1
    64    26    63    1
    65    26    64    1
    66    27    65    1
    67    28    66    1
    68    29    67    1
    69    30    68    1
