@<TRIPOS>MOLECULE
*****
 33 35 0 0 0
SMALL
GASTEIGER

@<TRIPOS>ATOM
      1 C           5.1600    1.3954   -0.2350 C.3     1  UNL1        0.0789
      2 O           3.8955    1.9779   -0.2176 O.3     1  UNL1       -0.4936
      3 C           2.6943    1.2877   -0.2464 C.ar    1  UNL1        0.1386
      4 C           2.6103   -0.0902   -0.2967 C.ar    1  UNL1       -0.0146
      5 C           1.4360   -0.7750   -0.3268 C.ar    1  UNL1       -0.0329
      6 C           0.2325   -0.0550   -0.3059 C.ar    1  UNL1        0.0053
      7 C           0.3137    1.3124   -0.2526 C.ar    1  UNL1       -0.0304
      8 C           1.5271    2.0134   -0.2235 C.ar    1  UNL1        0.0831
      9 CL          1.5312    3.7526   -0.1604 Cl      1  UNL1       -0.0797
     10 C          -0.9966   -0.7752   -0.2045 C.2     1  UNL1        0.0730
     11 C          -2.3289   -0.1788   -0.1611 C.ar    1  UNL1        0.0020
     12 C          -2.6813    1.0508   -0.5526 C.ar    1  UNL1       -0.0511
     13 C          -3.9374    1.6019   -0.3502 C.ar    1  UNL1       -0.0413
     14 C          -4.8895    0.8485    0.2861 C.ar    1  UNL1        0.0593
     15 CL         -6.4806    1.5095    0.5579 Cl      1  UNL1       -0.0820
     16 C          -4.5780   -0.4293    0.7063 C.ar    1  UNL1        0.0599
     17 CL         -5.8226   -1.3770    1.5194 Cl      1  UNL1       -0.0820
     18 C          -3.3343   -0.9373    0.4928 C.ar    1  UNL1       -0.0328
     19 N          -0.9125   -2.0742   -0.1109 N.2     1  UNL1       -0.2824
     20 C           0.2118   -2.9072   -0.0926 C.3     1  UNL1        0.0444
     21 C           1.5122   -2.2472   -0.3880 C.3     1  UNL1       -0.0073
     22 H           5.2293    0.4151    0.2547 H       1  UNL1        0.0660
     23 H           5.6220    1.3982   -1.2649 H       1  UNL1        0.0660
     24 H           5.8391    2.0760    0.3579 H       1  UNL1        0.0660
     25 H           3.5705   -0.6299   -0.3119 H       1  UNL1        0.0657
     26 H          -0.5523    1.9221   -0.1500 H       1  UNL1        0.0640
     27 H          -2.0200    1.6886   -1.1661 H       1  UNL1        0.0625
     28 H          -4.1614    2.6275   -0.6963 H       1  UNL1        0.0633
     29 H          -3.0768   -1.9551    0.8248 H       1  UNL1        0.0639
     30 H           0.2365   -3.4275    0.9137 H       1  UNL1        0.0511
     31 H           0.0131   -3.7689   -0.8011 H       1  UNL1        0.0511
     32 H           1.8574   -2.6062   -1.4008 H       1  UNL1        0.0331
     33 H           2.2796   -2.6438    0.3395 H       1  UNL1        0.0331
@<TRIPOS>BOND
     1     1     2    1
     2     2     3    1
     3     3     4   ar
     4     4     5   ar
     5     5     6   ar
     6     6     7   ar
     7     7     8   ar
     8     8     9    1
     9     6    10    1
    10    10    11    1
    11    11    12   ar
    12    12    13   ar
    13    13    14   ar
    14    14    15    1
    15    14    16   ar
    16    16    17    1
    17    16    18   ar
    18    10    19    2
    19    19    20    1
    20    20    21    1
    21     8     3   ar
    22    18    11   ar
    23    21     5    1
    24     1    22    1
    25     1    23    1
    26     1    24    1
    27     4    25    1
    28     7    26    1
    29    12    27    1
    30    13    28    1
    31    18    29    1
    32    20    30    1
    33    20    31    1
    34    21    32    1
    35    21    33    1
