
     RDKit          3D

 54 57  0  0  0  0  0  0  0  0999 V2000
    3.4215   -1.3049   -0.1417 C   0  0  0  0  0  0  0  0  0  0  0  0
    3.8580    0.0812    0.2741 C   0  0  0  0  0  0  0  0  0  0  0  0
    2.9474    0.8782    0.6870 N   0  0  0  0  0  0  0  0  0  0  0  0
    1.6136    0.3950    0.7193 N   0  0  0  0  0  0  0  0  0  0  0  0
    1.2162   -0.5807    1.6325 C   0  0  0  0  0  0  0  0  0  0  0  0
    2.1061   -1.0049    2.4461 O   0  0  0  0  0  0  0  0  0  0  0  0
   -0.1050   -1.1990    1.7839 C   0  0  0  0  0  0  0  0  0  0  0  0
   -1.1182   -0.7523    0.9162 N   0  0  0  0  0  0  0  0  0  0  0  0
   -1.9023    0.2973    1.2950 C   0  0  0  0  0  0  0  0  0  0  0  0
   -1.6954    0.8281    2.4110 O   0  0  0  0  0  0  0  0  0  0  0  0
   -2.9021    0.7808    0.4970 C   0  0  0  0  0  0  0  0  0  0  0  0
   -3.8158    1.8969    0.9294 C   0  0  0  0  0  0  0  0  0  0  0  0
   -5.1861    1.5553    0.5275 C   0  0  0  0  0  0  0  0  0  0  0  0
   -6.0633    0.7325    1.1718 C   0  0  0  0  0  0  0  0  0  0  0  0
   -7.3523    0.4850    0.6957 C   0  0  0  0  0  0  0  0  0  0  0  0
   -7.7847    1.0950   -0.4867 C   0  0  0  0  0  0  0  0  0  0  0  0
   -6.9168    1.9208   -1.1417 C   0  0  0  0  0  0  0  0  0  0  0  0
   -5.6609    2.1400   -0.6472 C   0  0  0  0  0  0  0  0  0  0  0  0
   -3.1321    0.2168   -0.6973 N   0  0  0  0  0  0  0  0  0  0  0  0
   -2.3835   -0.8096   -1.0894 C   0  0  0  0  0  0  0  0  0  0  0  0
   -2.6794   -1.3590   -2.3064 C   0  0  0  0  0  0  0  0  0  0  0  0
   -1.9351   -2.4337   -2.7351 C   0  0  0  0  0  0  0  0  0  0  0  0
   -0.9210   -2.9252   -1.9415 C   0  0  0  0  0  0  0  0  0  0  0  0
   -0.6108   -2.3846   -0.7119 C   0  0  0  0  0  0  0  0  0  0  0  0
   -1.3656   -1.2984   -0.2766 C   0  0  0  0  0  0  0  0  0  0  0  0
    5.2784    0.3603    0.1521 C   0  0  0  0  0  0  0  0  0  0  0  0
    6.1755   -0.5986   -0.2776 C   0  0  0  0  0  0  0  0  0  0  0  0
    7.5100   -0.3473   -0.4236 C   0  0  0  0  0  0  0  0  0  0  0  0
    8.0350    0.8913   -0.1442 C   0  0  0  0  0  0  0  0  0  0  0  0
    9.4045    1.1526   -0.2932 O   0  0  0  0  0  0  0  0  0  0  0  0
    7.1392    1.8526    0.2868 C   0  0  0  0  0  0  0  0  0  0  0  0
    5.7749    1.6038    0.4370 C   0  0  0  0  0  0  0  0  0  0  0  0
    3.9138   -1.4952   -1.1367 H   0  0  0  0  0  0  0  0  0  0  0  0
    3.7917   -2.0612    0.5648 H   0  0  0  0  0  0  0  0  0  0  0  0
    2.3351   -1.3531   -0.3366 H   0  0  0  0  0  0  0  0  0  0  0  0
    0.9001    0.7707    0.0610 H   0  0  0  0  0  0  0  0  0  0  0  0
   -0.3968   -0.9990    2.8701 H   0  0  0  0  0  0  0  0  0  0  0  0
    0.0613   -2.3044    1.7911 H   0  0  0  0  0  0  0  0  0  0  0  0
   -3.8150    1.9576    2.0563 H   0  0  0  0  0  0  0  0  0  0  0  0
   -3.4993    2.8283    0.4384 H   0  0  0  0  0  0  0  0  0  0  0  0
   -5.7419    0.2544    2.0825 H   0  0  0  0  0  0  0  0  0  0  0  0
   -8.0236   -0.1713    1.2265 H   0  0  0  0  0  0  0  0  0  0  0  0
   -8.7852    0.9173   -0.8722 H   0  0  0  0  0  0  0  0  0  0  0  0
   -7.2339    2.4041   -2.0615 H   0  0  0  0  0  0  0  0  0  0  0  0
   -4.9845    2.8074   -1.1893 H   0  0  0  0  0  0  0  0  0  0  0  0
   -3.4939   -0.9570   -2.9238 H   0  0  0  0  0  0  0  0  0  0  0  0
   -2.1768   -2.8756   -3.7122 H   0  0  0  0  0  0  0  0  0  0  0  0
   -0.3432   -3.7722   -2.2946 H   0  0  0  0  0  0  0  0  0  0  0  0
    0.2064   -2.7911   -0.1004 H   0  0  0  0  0  0  0  0  0  0  0  0
    5.8130   -1.6055   -0.5057 H   0  0  0  0  0  0  0  0  0  0  0  0
    8.2035   -1.1164   -0.7633 H   0  0  0  0  0  0  0  0  0  0  0  0
    9.6381    2.1300   -0.4979 H   0  0  0  0  0  0  0  0  0  0  0  0
    7.5402    2.8483    0.5131 H   0  0  0  0  0  0  0  0  0  0  0  0
    5.1407    2.4187    0.7830 H   0  0  0  0  0  0  0  0  0  0  0  0
  1  2  1  0
  2  3  2  0
  3  4  1  0
  4  5  1  0
  5  6  2  0
  5  7  1  0
  7  8  1  0
  8  9  1  0
  9 10  2  0
  9 11  1  0
 11 12  1  0
 12 13  1  0
 13 14  2  0
 14 15  1  0
 15 16  2  0
 16 17  1  0
 17 18  2  0
 11 19  2  0
 19 20  1  0
 20 21  2  0
 21 22  1  0
 22 23  2  0
 23 24  1  0
 24 25  2  0
  2 26  1  0
 26 27  2  0
 27 28  1  0
 28 29  2  0
 29 30  1  0
 29 31  1  0
 31 32  2  0
 25  8  1  0
 32 26  1  0
 18 13  1  0
 25 20  1  0
  1 33  1  0
  1 34  1  0
  1 35  1  0
  4 36  1  0
  7 37  1  0
  7 38  1  0
 12 39  1  0
 12 40  1  0
 14 41  1  0
 15 42  1  0
 16 43  1  0
 17 44  1  0
 18 45  1  0
 21 46  1  0
 22 47  1  0
 23 48  1  0
 24 49  1  0
 27 50  1  0
 28 51  1  0
 30 52  1  0
 31 53  1  0
 32 54  1  0
M  END
$$$$
