@<TRIPOS>MOLECULE
*****
 54 57 0 0 0
SMALL
GASTEIGER

@<TRIPOS>ATOM
      1 C           3.4215   -1.3049   -0.1417 C.3     1  UNL1       -0.0203
      2 C           3.8580    0.0812    0.2741 C.2     1  UNL1        0.0634
      3 N           2.9474    0.8782    0.6870 N.2     1  UNL1       -0.1845
      4 N           1.6136    0.3950    0.7193 N.am    1  UNL1       -0.2053
      5 C           1.2162   -0.5807    1.6325 C.2     1  UNL1        0.2521
      6 O           2.1061   -1.0049    2.4461 O.2     1  UNL1       -0.2721
      7 C          -0.1050   -1.1990    1.7839 C.3     1  UNL1        0.1046
      8 N          -1.1182   -0.7523    0.9162 N.ar    1  UNL1       -0.2963
      9 C          -1.9023    0.2973    1.2950 C.ar    1  UNL1        0.2739
     10 O          -1.6954    0.8281    2.4110 O.2     1  UNL1       -0.2657
     11 C          -2.9021    0.7808    0.4970 C.ar    1  UNL1        0.1105
     12 C          -3.8158    1.8969    0.9294 C.3     1  UNL1        0.0201
     13 C          -5.1861    1.5553    0.5275 C.ar    1  UNL1       -0.0414
     14 C          -6.0633    0.7325    1.1718 C.ar    1  UNL1       -0.0582
     15 C          -7.3523    0.4850    0.6957 C.ar    1  UNL1       -0.0615
     16 C          -7.7847    1.0950   -0.4867 C.ar    1  UNL1       -0.0617
     17 C          -6.9168    1.9208   -1.1417 C.ar    1  UNL1       -0.0615
     18 C          -5.6609    2.1400   -0.6472 C.ar    1  UNL1       -0.0582
     19 N          -3.1321    0.2168   -0.6973 N.ar    1  UNL1       -0.2444
     20 C          -2.3835   -0.8096   -1.0894 C.ar    1  UNL1        0.0879
     21 C          -2.6794   -1.3590   -2.3064 C.ar    1  UNL1       -0.0343
     22 C          -1.9351   -2.4337   -2.7351 C.ar    1  UNL1       -0.0596
     23 C          -0.9210   -2.9252   -1.9415 C.ar    1  UNL1       -0.0597
     24 C          -0.6108   -2.3846   -0.7119 C.ar    1  UNL1       -0.0360
     25 C          -1.3656   -1.2984   -0.2766 C.ar    1  UNL1        0.0708
     26 C           5.2784    0.3603    0.1521 C.ar    1  UNL1       -0.0023
     27 C           6.1755   -0.5986   -0.2776 C.ar    1  UNL1       -0.0494
     28 C           7.5100   -0.3473   -0.4236 C.ar    1  UNL1       -0.0196
     29 C           8.0350    0.8913   -0.1442 C.ar    1  UNL1        0.1169
     30 O           9.4045    1.1526   -0.2932 O.3     1  UNL1       -0.5068
     31 C           7.1392    1.8526    0.2868 C.ar    1  UNL1       -0.0196
     32 C           5.7749    1.6038    0.4370 C.ar    1  UNL1       -0.0494
     33 H           3.9138   -1.4952   -1.1367 H       1  UNL1        0.0293
     34 H           3.7917   -2.0612    0.5648 H       1  UNL1        0.0293
     35 H           2.3351   -1.3531   -0.3366 H       1  UNL1        0.0293
     36 H           0.9001    0.7707    0.0610 H       1  UNL1        0.1773
     37 H          -0.3968   -0.9990    2.8701 H       1  UNL1        0.0589
     38 H           0.0613   -2.3044    1.7911 H       1  UNL1        0.0589
     39 H          -3.8150    1.9576    2.0563 H       1  UNL1        0.0378
     40 H          -3.4993    2.8283    0.4384 H       1  UNL1        0.0378
     41 H          -5.7419    0.2544    2.0825 H       1  UNL1        0.0620
     42 H          -8.0236   -0.1713    1.2265 H       1  UNL1        0.0618
     43 H          -8.7852    0.9173   -0.8722 H       1  UNL1        0.0618
     44 H          -7.2339    2.4041   -2.0615 H       1  UNL1        0.0618
     45 H          -4.9845    2.8074   -1.1893 H       1  UNL1        0.0620
     46 H          -3.4939   -0.9570   -2.9238 H       1  UNL1        0.0639
     47 H          -2.1768   -2.8756   -3.7122 H       1  UNL1        0.0618
     48 H          -0.3432   -3.7722   -2.2946 H       1  UNL1        0.0618
     49 H           0.2064   -2.7911   -0.1004 H       1  UNL1        0.0639
     50 H           5.8130   -1.6055   -0.5057 H       1  UNL1        0.0625
     51 H           8.2035   -1.1164   -0.7633 H       1  UNL1        0.0654
     52 H           9.6381    2.1300   -0.4979 H       1  UNL1        0.2921
     53 H           7.5402    2.8483    0.5131 H       1  UNL1        0.0654
     54 H           5.1407    2.4187    0.7830 H       1  UNL1        0.0625
@<TRIPOS>BOND
     1     1     2    1
     2     2     3    2
     3     3     4    1
     4     4     5   am
     5     5     6    2
     6     5     7    1
     7     7     8    1
     8     8     9   ar
     9     9    10    2
    10     9    11   ar
    11    11    12    1
    12    12    13    1
    13    13    14   ar
    14    14    15   ar
    15    15    16   ar
    16    16    17   ar
    17    17    18   ar
    18    11    19   ar
    19    19    20   ar
    20    20    21   ar
    21    21    22   ar
    22    22    23   ar
    23    23    24   ar
    24    24    25   ar
    25     2    26    1
    26    26    27   ar
    27    27    28   ar
    28    28    29   ar
    29    29    30    1
    30    29    31   ar
    31    31    32   ar
    32    25     8   ar
    33    32    26   ar
    34    18    13   ar
    35    25    20   ar
    36     1    33    1
    37     1    34    1
    38     1    35    1
    39     4    36    1
    40     7    37    1
    41     7    38    1
    42    12    39    1
    43    12    40    1
    44    14    41    1
    45    15    42    1
    46    16    43    1
    47    17    44    1
    48    18    45    1
    49    21    46    1
    50    22    47    1
    51    23    48    1
    52    24    49    1
    53    27    50    1
    54    28    51    1
    55    30    52    1
    56    31    53    1
    57    32    54    1
