@<TRIPOS>MOLECULE
*****
 60 65 0 0 0
SMALL
GASTEIGER

@<TRIPOS>ATOM
      1 C          -5.4609   -0.1358   -4.0808 C.3     1  UNL1       -0.0200
      2 C          -5.9721    0.3534   -2.7717 C.ar    1  UNL1        0.0674
      3 N          -7.1976    0.8412   -2.5054 N.ar    1  UNL1       -0.1780
      4 N          -7.2964    1.1785   -1.2316 N.ar    1  UNL1       -0.2767
      5 C          -6.1221    0.9233   -0.5942 C.ar    1  UNL1        0.0660
      6 C          -5.7111    1.0917    0.7129 C.ar    1  UNL1       -0.0357
      7 C          -4.4334    0.7387    1.0905 C.ar    1  UNL1       -0.0519
      8 C          -3.6039    0.2203    0.1194 C.ar    1  UNL1       -0.0150
      9 C          -2.2512   -0.1556    0.5151 C.ar    1  UNL1        0.0117
     10 C          -1.1679    0.4769   -0.0115 C.ar    1  UNL1       -0.0087
     11 C           0.1319    0.1191    0.3692 C.ar    1  UNL1        0.1392
     12 O           1.1792    0.6932   -0.1061 O.3     1  UNL1       -0.4889
     13 C           2.2345    1.2694   -0.5829 C.3     1  UNL1        0.1050
     14 C           3.1616    1.9712    0.4133 C.3     1  UNL1        0.0435
     15 N           2.5166    3.0193    1.1394 N.3     1  UNL1       -0.3242
     16 C           3.8359    0.9891    1.3294 C.3     1  UNL1       -0.0073
     17 C           4.6583    0.0191    0.6065 C.ar    1  UNL1       -0.0208
     18 C           4.3495   -1.2960    0.3375 C.ar    1  UNL1        0.0060
     19 N           5.3534   -1.8731   -0.3519 N.ar    1  UNL1       -0.3604
     20 C           6.3054   -0.9699   -0.5381 C.ar    1  UNL1        0.0467
     21 C           7.5313   -1.0644   -1.1823 C.ar    1  UNL1       -0.0378
     22 C           8.3733    0.0268   -1.2518 C.ar    1  UNL1       -0.0598
     23 C           7.9796    1.2139   -0.6720 C.ar    1  UNL1       -0.0611
     24 C           6.7601    1.2927   -0.0361 C.ar    1  UNL1       -0.0523
     25 C           5.9029    0.2133    0.0451 C.ar    1  UNL1        0.0029
     26 C           0.2343   -0.9012    1.2987 C.ar    1  UNL1        0.0699
     27 N          -0.8472   -1.4921    1.7876 N.ar    1  UNL1       -0.2506
     28 C          -2.0873   -1.1632    1.4357 C.ar    1  UNL1        0.0819
     29 C          -3.2578   -1.8598    2.0155 C.ar    1  UNL1        0.0386
     30 C          -4.1705   -2.5995    1.2864 C.ar    1  UNL1       -0.0147
     31 C          -5.0883   -3.0698    2.2002 C.ar    1  UNL1        0.0923
     32 O          -4.7297   -2.6321    3.3727 O.2     1  UNL1       -0.4704
     33 C          -3.6533   -1.9114    3.3189 C.ar    1  UNL1        0.1008
     34 C          -4.0150    0.0525   -1.1859 C.ar    1  UNL1       -0.0430
     35 C          -5.2939    0.4047   -1.5687 C.ar    1  UNL1        0.0230
     36 H          -5.4408    0.6326   -4.8554 H       1  UNL1        0.0293
     37 H          -6.1810   -0.9299   -4.4330 H       1  UNL1        0.0293
     38 H          -4.5038   -0.6544   -3.9210 H       1  UNL1        0.0293
     39 H          -8.1287    1.5892   -0.7171 H       1  UNL1        0.1889
     40 H          -6.3791    1.4992    1.4524 H       1  UNL1        0.0639
     41 H          -4.0893    0.8656    2.1277 H       1  UNL1        0.0624
     42 H          -1.2479    1.2890   -0.7514 H       1  UNL1        0.0661
     43 H           2.0911    2.0077   -1.4493 H       1  UNL1        0.0712
     44 H           2.9326    0.5067   -1.0763 H       1  UNL1        0.0712
     45 H           3.9667    2.4307   -0.2209 H       1  UNL1        0.0495
     46 H           2.9023    3.0550    2.1317 H       1  UNL1        0.1186
     47 H           2.7475    3.9748    0.7525 H       1  UNL1        0.1186
     48 H           3.0478    0.4837    1.9281 H       1  UNL1        0.0330
     49 H           4.4402    1.5738    2.0459 H       1  UNL1        0.0330
     50 H           3.4404   -1.8493    0.6149 H       1  UNL1        0.0810
     51 H           5.3672   -2.8647   -0.6786 H       1  UNL1        0.1653
     52 H           7.8777   -1.9863   -1.6524 H       1  UNL1        0.0638
     53 H           9.3450   -0.0435   -1.7610 H       1  UNL1        0.0618
     54 H           8.6267    2.0606   -0.7217 H       1  UNL1        0.0618
     55 H           6.4602    2.2433    0.4206 H       1  UNL1        0.0624
     56 H           1.2293   -1.2121    1.6241 H       1  UNL1        0.0867
     57 H          -4.1740   -2.7770    0.2300 H       1  UNL1        0.0655
     58 H          -5.9658   -3.6964    2.0094 H       1  UNL1        0.1029
     59 H          -3.1329   -1.4223    4.1386 H       1  UNL1        0.1036
     60 H          -3.3795   -0.3518   -1.9607 H       1  UNL1        0.0631
@<TRIPOS>BOND
     1     1     2    1
     2     2     3   ar
     3     3     4   ar
     4     4     5   ar
     5     5     6   ar
     6     6     7   ar
     7     7     8   ar
     8     8     9    1
     9     9    10   ar
    10    10    11   ar
    11    11    12    1
    12    12    13    1
    13    13    14    1
    14    14    15    1
    15    14    16    1
    16    16    17    1
    17    17    18   ar
    18    18    19   ar
    19    19    20   ar
    20    20    21   ar
    21    21    22   ar
    22    22    23   ar
    23    23    24   ar
    24    24    25   ar
    25    11    26   ar
    26    26    27   ar
    27    27    28   ar
    28    28    29    1
    29    29    30   ar
    30    30    31   ar
    31    31    32   ar
    32    32    33   ar
    33     8    34   ar
    34    34    35   ar
    35    35     2   ar
    36    35     5   ar
    37    28     9   ar
    38    33    29   ar
    39    25    17   ar
    40    25    20   ar
    41     1    36    1
    42     1    37    1
    43     1    38    1
    44     4    39    1
    45     6    40    1
    46     7    41    1
    47    10    42    1
    48    13    43    1
    49    13    44    1
    50    14    45    1
    51    15    46    1
    52    15    47    1
    53    16    48    1
    54    16    49    1
    55    18    50    1
    56    19    51    1
    57    21    52    1
    58    22    53    1
    59    23    54    1
    60    24    55    1
    61    26    56    1
    62    30    57    1
    63    31    58    1
    64    33    59    1
    65    34    60    1
