
     RDKit          3D

 60 65  0  0  0  0  0  0  0  0999 V2000
   -5.4609   -0.1358   -4.0808 C   0  0  0  0  0  0  0  0  0  0  0  0
   -5.9721    0.3534   -2.7717 C   0  0  0  0  0  0  0  0  0  0  0  0
   -7.1976    0.8412   -2.5054 N   0  0  0  0  0  0  0  0  0  0  0  0
   -7.2964    1.1785   -1.2316 N   0  0  0  0  0  0  0  0  0  0  0  0
   -6.1221    0.9233   -0.5942 C   0  0  0  0  0  0  0  0  0  0  0  0
   -5.7111    1.0917    0.7129 C   0  0  0  0  0  0  0  0  0  0  0  0
   -4.4334    0.7387    1.0905 C   0  0  0  0  0  0  0  0  0  0  0  0
   -3.6039    0.2203    0.1194 C   0  0  0  0  0  0  0  0  0  0  0  0
   -2.2512   -0.1556    0.5151 C   0  0  0  0  0  0  0  0  0  0  0  0
   -1.1679    0.4769   -0.0115 C   0  0  0  0  0  0  0  0  0  0  0  0
    0.1319    0.1191    0.3692 C   0  0  0  0  0  0  0  0  0  0  0  0
    1.1792    0.6932   -0.1061 O   0  0  0  0  0  0  0  0  0  0  0  0
    2.2345    1.2694   -0.5829 C   0  0  0  0  0  0  0  0  0  0  0  0
    3.1616    1.9712    0.4133 C   0  0  1  0  0  0  0  0  0  0  0  0
    2.5166    3.0193    1.1394 N   0  0  0  0  0  0  0  0  0  0  0  0
    3.8359    0.9891    1.3294 C   0  0  0  0  0  0  0  0  0  0  0  0
    4.6583    0.0191    0.6065 C   0  0  0  0  0  0  0  0  0  0  0  0
    4.3495   -1.2960    0.3375 C   0  0  0  0  0  0  0  0  0  0  0  0
    5.3534   -1.8731   -0.3519 N   0  0  0  0  0  0  0  0  0  0  0  0
    6.3054   -0.9699   -0.5381 C   0  0  0  0  0  0  0  0  0  0  0  0
    7.5313   -1.0644   -1.1823 C   0  0  0  0  0  0  0  0  0  0  0  0
    8.3733    0.0268   -1.2518 C   0  0  0  0  0  0  0  0  0  0  0  0
    7.9796    1.2139   -0.6720 C   0  0  0  0  0  0  0  0  0  0  0  0
    6.7601    1.2927   -0.0361 C   0  0  0  0  0  0  0  0  0  0  0  0
    5.9029    0.2133    0.0451 C   0  0  0  0  0  0  0  0  0  0  0  0
    0.2343   -0.9012    1.2987 C   0  0  0  0  0  0  0  0  0  0  0  0
   -0.8472   -1.4921    1.7876 N   0  0  0  0  0  0  0  0  0  0  0  0
   -2.0873   -1.1632    1.4357 C   0  0  0  0  0  0  0  0  0  0  0  0
   -3.2578   -1.8598    2.0155 C   0  0  0  0  0  0  0  0  0  0  0  0
   -4.1705   -2.5995    1.2864 C   0  0  0  0  0  0  0  0  0  0  0  0
   -5.0883   -3.0698    2.2002 C   0  0  0  0  0  0  0  0  0  0  0  0
   -4.7297   -2.6321    3.3727 O   0  0  0  0  0  0  0  0  0  0  0  0
   -3.6533   -1.9114    3.3189 C   0  0  0  0  0  0  0  0  0  0  0  0
   -4.0150    0.0525   -1.1859 C   0  0  0  0  0  0  0  0  0  0  0  0
   -5.2939    0.4047   -1.5687 C   0  0  0  0  0  0  0  0  0  0  0  0
   -5.4408    0.6326   -4.8554 H   0  0  0  0  0  0  0  0  0  0  0  0
   -6.1810   -0.9299   -4.4330 H   0  0  0  0  0  0  0  0  0  0  0  0
   -4.5038   -0.6544   -3.9210 H   0  0  0  0  0  0  0  0  0  0  0  0
   -8.1287    1.5892   -0.7171 H   0  0  0  0  0  0  0  0  0  0  0  0
   -6.3791    1.4992    1.4524 H   0  0  0  0  0  0  0  0  0  0  0  0
   -4.0893    0.8656    2.1277 H   0  0  0  0  0  0  0  0  0  0  0  0
   -1.2479    1.2890   -0.7514 H   0  0  0  0  0  0  0  0  0  0  0  0
    2.0911    2.0077   -1.4493 H   0  0  0  0  0  0  0  0  0  0  0  0
    2.9326    0.5067   -1.0763 H   0  0  0  0  0  0  0  0  0  0  0  0
    3.9667    2.4307   -0.2209 H   0  0  0  0  0  0  0  0  0  0  0  0
    2.9023    3.0550    2.1317 H   0  0  0  0  0  0  0  0  0  0  0  0
    2.7475    3.9748    0.7525 H   0  0  0  0  0  0  0  0  0  0  0  0
    3.0478    0.4837    1.9281 H   0  0  0  0  0  0  0  0  0  0  0  0
    4.4402    1.5738    2.0459 H   0  0  0  0  0  0  0  0  0  0  0  0
    3.4404   -1.8493    0.6149 H   0  0  0  0  0  0  0  0  0  0  0  0
    5.3672   -2.8647   -0.6786 H   0  0  0  0  0  0  0  0  0  0  0  0
    7.8777   -1.9863   -1.6524 H   0  0  0  0  0  0  0  0  0  0  0  0
    9.3450   -0.0435   -1.7610 H   0  0  0  0  0  0  0  0  0  0  0  0
    8.6267    2.0606   -0.7217 H   0  0  0  0  0  0  0  0  0  0  0  0
    6.4602    2.2433    0.4206 H   0  0  0  0  0  0  0  0  0  0  0  0
    1.2293   -1.2121    1.6241 H   0  0  0  0  0  0  0  0  0  0  0  0
   -4.1740   -2.7770    0.2300 H   0  0  0  0  0  0  0  0  0  0  0  0
   -5.9658   -3.6964    2.0094 H   0  0  0  0  0  0  0  0  0  0  0  0
   -3.1329   -1.4223    4.1386 H   0  0  0  0  0  0  0  0  0  0  0  0
   -3.3795   -0.3518   -1.9607 H   0  0  0  0  0  0  0  0  0  0  0  0
  1  2  1  0
  2  3  2  0
  3  4  1  0
  4  5  1  0
  5  6  2  0
  6  7  1  0
  7  8  2  0
  8  9  1  0
  9 10  2  0
 10 11  1  0
 11 12  1  0
 12 13  1  0
 13 14  1  0
 14 15  1  0
 14 16  1  0
 16 17  1  0
 17 18  2  0
 18 19  1  0
 19 20  1  0
 20 21  2  0
 21 22  1  0
 22 23  2  0
 23 24  1  0
 24 25  2  0
 11 26  2  0
 26 27  1  0
 27 28  2  0
 28 29  1  0
 29 30  1  0
 30 31  2  0
 31 32  1  0
 32 33  1  0
  8 34  1  0
 34 35  2  0
 35  2  1  0
 35  5  1  0
 28  9  1  0
 33 29  2  0
 25 17  1  0
 25 20  1  0
  1 36  1  0
  1 37  1  0
  1 38  1  0
  4 39  1  0
  6 40  1  0
  7 41  1  0
 10 42  1  0
 13 43  1  0
 13 44  1  0
 14 45  1  6
 15 46  1  0
 15 47  1  0
 16 48  1  0
 16 49  1  0
 18 50  1  0
 19 51  1  0
 21 52  1  0
 22 53  1  0
 23 54  1  0
 24 55  1  0
 26 56  1  0
 30 57  1  0
 31 58  1  0
 33 59  1  0
 34 60  1  0
M  END
$$$$
