@<TRIPOS>MOLECULE
*****
 55 58 0 0 0
SMALL
GASTEIGER

@<TRIPOS>ATOM
      1 C           2.6977    0.3295    4.4815 C.3     1  UNL1       -0.0185
      2 C           2.6757    0.1871    3.0037 C.2     1  UNL1        0.0888
      3 N           3.7609    0.3387    2.2861 N.2     1  UNL1       -0.1749
      4 N           3.4817    0.1558    0.9287 N.am    1  UNL1       -0.1551
      5 C           2.0958   -0.1358    0.7958 C.2     1  UNL1        0.2921
      6 O           1.4399   -0.3649   -0.2436 O.2     1  UNL1       -0.2661
      7 C           1.5333   -0.1236    2.1407 C.2     1  UNL1        0.1678
      8 N           0.3299   -0.3268    2.5605 N.2     1  UNL1       -0.1754
      9 N          -0.6386   -0.6123    1.5914 N.pl3   1  UNL1       -0.2335
     10 C          -1.9507   -0.0438    1.7802 C.ar    1  UNL1        0.0902
     11 C          -2.9868   -0.2667    0.8731 C.ar    1  UNL1        0.1469
     12 O          -2.7589   -1.0585   -0.2490 O.3     1  UNL1       -0.5043
     13 C          -4.2365    0.2771    1.0565 C.ar    1  UNL1        0.0255
     14 C          -4.4513    1.0635    2.1773 C.ar    1  UNL1       -0.0504
     15 C          -3.4711    1.3200    3.1072 C.ar    1  UNL1       -0.0592
     16 C          -2.2434    0.7573    2.8823 C.ar    1  UNL1       -0.0355
     17 C          -5.3386    0.0799    0.1546 C.ar    1  UNL1       -0.0136
     18 C          -6.5581   -0.2174    0.7703 C.ar    1  UNL1       -0.0539
     19 C          -7.7152   -0.4355    0.0488 C.ar    1  UNL1       -0.0604
     20 C          -7.6973   -0.3635   -1.3370 C.ar    1  UNL1       -0.0477
     21 C          -6.4985   -0.0706   -1.9549 C.ar    1  UNL1        0.0594
     22 C          -5.3290    0.1500   -1.2302 C.ar    1  UNL1       -0.0399
     23 C          -6.4058    0.0213   -3.4118 C.2     1  UNL1        0.3368
     24 O          -7.5486   -0.1918   -4.1715 O.3     1  UNL1       -0.4771
     25 O          -5.3785    0.2805   -4.1081 O.2     1  UNL1       -0.2451
     26 C           4.4356    0.2497   -0.1238 C.ar    1  UNL1        0.0606
     27 C           4.6623    1.4671   -0.7438 C.ar    1  UNL1       -0.0381
     28 C           5.5937    1.5438   -1.7668 C.ar    1  UNL1       -0.0568
     29 C           6.3198    0.4338   -2.2022 C.ar    1  UNL1       -0.0474
     30 C           7.3171    0.5802   -3.3174 C.3     1  UNL1       -0.0395
     31 C           6.0961   -0.7768   -1.5875 C.ar    1  UNL1       -0.0457
     32 C           6.8603   -1.9845   -2.0336 C.3     1  UNL1       -0.0394
     33 C           5.1717   -0.8415   -0.5757 C.ar    1  UNL1       -0.0352
     34 H           3.1134   -0.6101    4.8996 H       1  UNL1        0.0294
     35 H           3.3277    1.2111    4.7158 H       1  UNL1        0.0294
     36 H           1.6850    0.5533    4.8670 H       1  UNL1        0.0294
     37 H          -0.5061   -1.1900    0.7546 H       1  UNL1        0.1745
     38 H          -3.3432   -1.8642   -0.4477 H       1  UNL1        0.2922
     39 H          -5.4330    1.5024    2.3400 H       1  UNL1        0.0625
     40 H          -3.6977    1.9348    3.9518 H       1  UNL1        0.0618
     41 H          -1.4317    0.9343    3.5965 H       1  UNL1        0.0638
     42 H          -6.6837   -0.2975    1.8411 H       1  UNL1        0.0624
     43 H          -8.6644   -0.6662    0.5138 H       1  UNL1        0.0618
     44 H          -8.5573   -0.5203   -1.9804 H       1  UNL1        0.0626
     45 H          -4.3750    0.3803   -1.6652 H       1  UNL1        0.0632
     46 H          -7.5598   -0.2325   -5.1850 H       1  UNL1        0.2954
     47 H           4.1180    2.3637   -0.4374 H       1  UNL1        0.0637
     48 H           5.7956    2.4663   -2.2689 H       1  UNL1        0.0621
     49 H           7.1174    1.5203   -3.8629 H       1  UNL1        0.0278
     50 H           8.3565    0.6650   -2.8891 H       1  UNL1        0.0278
     51 H           7.3470   -0.3187   -3.9689 H       1  UNL1        0.0278
     52 H           6.3934   -2.8781   -1.5382 H       1  UNL1        0.0278
     53 H           7.8979   -1.9077   -1.6104 H       1  UNL1        0.0278
     54 H           6.8505   -2.1089   -3.1254 H       1  UNL1        0.0278
     55 H           4.9849   -1.7878   -0.0824 H       1  UNL1        0.0639
@<TRIPOS>BOND
     1     1     2    1
     2     2     3    2
     3     3     4    1
     4     4     5   am
     5     5     6    2
     6     5     7    1
     7     7     8    2
     8     8     9    1
     9     9    10    1
    10    10    11   ar
    11    11    12    1
    12    11    13   ar
    13    13    14   ar
    14    14    15   ar
    15    15    16   ar
    16    13    17    1
    17    17    18   ar
    18    18    19   ar
    19    19    20   ar
    20    20    21   ar
    21    21    22   ar
    22    21    23    1
    23    23    24    1
    24    23    25    2
    25     4    26    1
    26    26    27   ar
    27    27    28   ar
    28    28    29   ar
    29    29    30    1
    30    29    31   ar
    31    31    32    1
    32    31    33   ar
    33     7     2    1
    34    16    10   ar
    35    22    17   ar
    36    33    26   ar
    37     1    34    1
    38     1    35    1
    39     1    36    1
    40     9    37    1
    41    12    38    1
    42    14    39    1
    43    15    40    1
    44    16    41    1
    45    18    42    1
    46    19    43    1
    47    20    44    1
    48    22    45    1
    49    24    46    1
    50    27    47    1
    51    28    48    1
    52    30    49    1
    53    30    50    1
    54    30    51    1
    55    32    52    1
    56    32    53    1
    57    32    54    1
    58    33    55    1
