
     RDKit          3D

 18 18  0  0  0  0  0  0  0  0999 V2000
   -0.7863    1.8362   -0.6471 N   0  0  0  0  0  0  0  0  0  0  0  0
    0.1366    0.8235   -0.2634 C   0  0  0  0  0  0  0  0  0  0  0  0
    1.4493    1.2049   -0.0616 C   0  0  0  0  0  0  0  0  0  0  0  0
    2.3871    0.2522    0.3088 C   0  0  0  0  0  0  0  0  0  0  0  0
    1.9076   -1.0318    0.4482 C   0  0  0  0  0  0  0  0  0  0  0  0
    0.6012   -1.4334    0.2512 C   0  0  0  0  0  0  0  0  0  0  0  0
   -0.3115   -0.4632   -0.1169 C   0  0  0  0  0  0  0  0  0  0  0  0
   -1.7476   -0.7679   -0.3568 C   0  0  0  0  0  0  0  0  0  0  0  0
   -2.5646   -0.3715    0.6968 O   0  0  0  0  0  0  0  0  0  0  0  0
   -1.1128    2.5322   -1.3567 H   0  0  0  0  0  0  0  0  0  0  0  0
   -1.4913    1.9753    0.1357 H   0  0  0  0  0  0  0  0  0  0  0  0
    1.7843    2.2297   -0.1903 H   0  0  0  0  0  0  0  0  0  0  0  0
    3.4248    0.5106    0.4755 H   0  0  0  0  0  0  0  0  0  0  0  0
    2.6596   -1.7644    0.7416 H   0  0  0  0  0  0  0  0  0  0  0  0
    0.2963   -2.4652    0.3768 H   0  0  0  0  0  0  0  0  0  0  0  0
   -2.0592   -0.2072   -1.2723 H   0  0  0  0  0  0  0  0  0  0  0  0
   -1.9118   -1.8317   -0.5854 H   0  0  0  0  0  0  0  0  0  0  0  0
   -2.6617   -1.0284    1.4159 H   0  0  0  0  0  0  0  0  0  0  0  0
  1  2  1  0
  2  3  2  0
  3  4  1  0
  4  5  2  0
  5  6  1  0
  6  7  2  0
  7  8  1  0
  8  9  1  0
  7  2  1  0
  1 10  1  0
  1 11  1  0
  3 12  1  0
  4 13  1  0
  5 14  1  0
  6 15  1  0
  8 16  1  0
  8 17  1  0
  9 18  1  0
M  END
$$$$
