
     RDKit          3D

 97100  0  0  0  0  0  0  0  0999 V2000
    5.9088    1.2985    4.0060 C   0  0  0  0  0  0  0  0  0  0  0  0
    6.2055    1.3675    2.5426 C   0  0  0  0  0  0  0  0  0  0  0  0
    6.2906    2.3557    1.7582 O   0  0  0  0  0  0  0  0  0  0  0  0
    6.4184    0.0866    1.9913 N   0  0  0  0  0  0  0  0  0  0  0  0
    6.7329   -0.4043    0.6543 C   0  0  1  0  0  0  0  0  0  0  0  0
    8.0255   -1.1845    0.6475 C   0  0  2  0  0  0  0  0  0  0  0  0
    9.0404   -0.5007    1.3201 O   0  0  0  0  0  0  0  0  0  0  0  0
    8.4234   -1.3601   -0.6675 O   0  0  0  0  0  0  0  0  0  0  0  0
    7.5120   -2.0816   -1.4197 C   0  0  2  0  0  0  0  0  0  0  0  0
    7.2605   -1.3346   -2.7037 C   0  0  0  0  0  0  0  0  0  0  0  0
    8.4250   -1.1724   -3.4515 O   0  0  0  0  0  0  0  0  0  0  0  0
    6.2534   -2.4134   -0.6824 C   0  0  1  0  0  0  0  0  0  0  0  0
    6.3890   -3.6209    0.0050 O   0  0  0  0  0  0  0  0  0  0  0  0
    5.6590   -1.3135    0.1273 C   0  0  0  0  0  0  0  0  0  0  0  0
    4.6600   -0.6334   -0.5359 O   0  0  0  0  0  0  0  0  0  0  0  0
    3.4029   -0.7166    0.0807 C   0  0  2  0  0  0  0  0  0  0  0  0
    2.4794   -1.2505   -0.7125 O   0  0  0  0  0  0  0  0  0  0  0  0
    1.1749   -0.9379   -0.7334 C   0  0  1  0  0  0  0  0  0  0  0  0
    0.8772    0.5420   -0.6696 C   0  0  1  0  0  0  0  0  0  0  0  0
   -0.0515    0.7616    0.3216 O   0  0  0  0  0  0  0  0  0  0  0  0
   -1.2301    1.3453   -0.0214 C   0  0  2  0  0  0  0  0  0  0  0  0
   -1.2730    2.5573    0.7457 O   0  0  0  0  0  0  0  0  0  0  0  0
   -2.2514    3.3361    0.1684 C   0  0  2  0  0  0  0  0  0  0  0  0
   -2.1666    4.7238    0.7678 C   0  0  0  0  0  0  0  0  0  0  0  0
   -3.1015    5.5929    0.2624 O   0  0  0  0  0  0  0  0  0  0  0  0
   -3.6259    2.7710    0.4321 C   0  0  1  0  0  0  0  0  0  0  0  0
   -4.5025    3.4500   -0.4119 O   0  0  0  0  0  0  0  0  0  0  0  0
   -3.7116    1.2836    0.1966 C   0  0  0  0  0  0  0  0  0  0  0  0
   -4.6915    0.7950    1.0776 O   0  0  0  0  0  0  0  0  0  0  0  0
   -5.7614    0.2455    0.3963 C   0  0  2  0  0  0  0  0  0  0  0  0
   -6.9459    0.9721    0.5834 O   0  0  0  0  0  0  0  0  0  0  0  0
   -7.9387    0.2228   -0.0833 C   0  0  1  0  0  0  0  0  0  0  0  0
   -8.4115   -0.8276    0.8895 C   0  0  1  0  0  0  0  0  0  0  0  0
   -9.1603   -1.8194    0.2565 O   0  0  0  0  0  0  0  0  0  0  0  0
   -7.2014   -1.4584    1.5317 C   0  0  2  0  0  0  0  0  0  0  0  0
   -7.0084   -0.9402    2.8279 O   0  0  0  0  0  0  0  0  0  0  0  0
   -5.9187   -1.1879    0.7782 C   0  0  1  0  0  0  0  0  0  0  0  0
   -5.9353   -1.9626   -0.3777 O   0  0  0  0  0  0  0  0  0  0  0  0
   -9.0193    1.1314   -0.5272 C   0  0  0  0  0  0  0  0  0  0  0  0
  -10.1464    0.7385   -1.2044 O   0  0  0  0  0  0  0  0  0  0  0  0
   -9.0653    2.3977   -0.3496 O   0  0  0  0  0  0  0  0  0  0  0  0
   -2.4185    0.5653    0.5080 C   0  0  1  0  0  0  0  0  0  0  0  0
   -2.4804   -0.7510   -0.0780 N   0  0  0  0  0  0  0  0  0  0  0  0
   -2.3200   -1.9074    0.7195 C   0  0  0  0  0  0  0  0  0  0  0  0
   -2.4127   -3.1793   -0.0531 C   0  0  0  0  0  0  0  0  0  0  0  0
   -2.1217   -1.7796    1.9569 O   0  0  0  0  0  0  0  0  0  0  0  0
    2.1696    1.3090   -0.4030 C   0  0  2  0  0  0  0  0  0  0  0  0
    2.9472    1.4259   -1.5458 O   0  0  0  0  0  0  0  0  0  0  0  0
    2.9796    0.6006    0.6460 C   0  0  1  0  0  0  0  0  0  0  0  0
    2.1661    0.4662    1.7724 O   0  0  0  0  0  0  0  0  0  0  0  0
    0.6527   -1.4790   -2.0521 C   0  0  0  0  0  0  0  0  0  0  0  0
    1.1062   -2.1728   -3.1649 O   0  0  0  0  0  0  0  0  0  0  0  0
   -0.4954   -1.4071   -2.5035 O   0  0  0  0  0  0  0  0  0  0  0  0
    6.7627    0.8199    4.5554 H   0  0  0  0  0  0  0  0  0  0  0  0
    5.7407    2.3350    4.3591 H   0  0  0  0  0  0  0  0  0  0  0  0
    4.9812    0.7225    4.2093 H   0  0  0  0  0  0  0  0  0  0  0  0
    6.3801   -0.8328    2.5199 H   0  0  0  0  0  0  0  0  0  0  0  0
    6.8007    0.4688   -0.0532 H   0  0  0  0  0  0  0  0  0  0  0  0
    7.8579   -2.1835    1.0914 H   0  0  0  0  0  0  0  0  0  0  0  0
    9.8950   -0.9726    1.1022 H   0  0  0  0  0  0  0  0  0  0  0  0
    8.0033   -3.0426   -1.6824 H   0  0  0  0  0  0  0  0  0  0  0  0
    6.5733   -1.9313   -3.3534 H   0  0  0  0  0  0  0  0  0  0  0  0
    6.8625   -0.3095   -2.5184 H   0  0  0  0  0  0  0  0  0  0  0  0
    8.2055   -0.5454   -4.1953 H   0  0  0  0  0  0  0  0  0  0  0  0
    5.4875   -2.6421   -1.4836 H   0  0  0  0  0  0  0  0  0  0  0  0
    6.9938   -4.2097   -0.4962 H   0  0  0  0  0  0  0  0  0  0  0  0
    5.2154   -1.8060    1.0429 H   0  0  0  0  0  0  0  0  0  0  0  0
    3.6228   -1.3610    1.0053 H   0  0  0  0  0  0  0  0  0  0  0  0
    0.6404   -1.5141    0.0429 H   0  0  0  0  0  0  0  0  0  0  0  0
    0.4847    0.8914   -1.6194 H   0  0  0  0  0  0  0  0  0  0  0  0
   -1.4060    1.5691   -1.0715 H   0  0  0  0  0  0  0  0  0  0  0  0
   -2.1277    3.4037   -0.9307 H   0  0  0  0  0  0  0  0  0  0  0  0
   -2.2589    4.6849    1.8706 H   0  0  0  0  0  0  0  0  0  0  0  0
   -1.1469    5.1538    0.5577 H   0  0  0  0  0  0  0  0  0  0  0  0
   -3.8436    5.6826    0.9077 H   0  0  0  0  0  0  0  0  0  0  0  0
   -3.8510    2.9609    1.4997 H   0  0  0  0  0  0  0  0  0  0  0  0
   -5.2139    3.8476    0.1442 H   0  0  0  0  0  0  0  0  0  0  0  0
   -4.0249    1.1144   -0.8576 H   0  0  0  0  0  0  0  0  0  0  0  0
   -5.5297    0.3354   -0.6838 H   0  0  0  0  0  0  0  0  0  0  0  0
   -7.4991   -0.3269   -0.9635 H   0  0  0  0  0  0  0  0  0  0  0  0
   -9.0058   -0.3043    1.6689 H   0  0  0  0  0  0  0  0  0  0  0  0
  -10.1016   -1.5037    0.2687 H   0  0  0  0  0  0  0  0  0  0  0  0
   -7.3039   -2.5532    1.5975 H   0  0  0  0  0  0  0  0  0  0  0  0
   -6.9278    0.0442    2.7986 H   0  0  0  0  0  0  0  0  0  0  0  0
   -5.1050   -1.5749    1.4139 H   0  0  0  0  0  0  0  0  0  0  0  0
   -5.6770   -2.8914   -0.1598 H   0  0  0  0  0  0  0  0  0  0  0  0
  -10.5287    1.1895   -2.0269 H   0  0  0  0  0  0  0  0  0  0  0  0
   -2.3413    0.5026    1.6356 H   0  0  0  0  0  0  0  0  0  0  0  0
   -2.6554   -0.6071   -1.0848 H   0  0  0  0  0  0  0  0  0  0  0  0
   -1.4696   -3.2738   -0.6470 H   0  0  0  0  0  0  0  0  0  0  0  0
   -2.4685   -3.9862    0.7104 H   0  0  0  0  0  0  0  0  0  0  0  0
   -3.3091   -3.1865   -0.7057 H   0  0  0  0  0  0  0  0  0  0  0  0
    1.8864    2.2902    0.0158 H   0  0  0  0  0  0  0  0  0  0  0  0
    2.3851    1.6377   -2.3358 H   0  0  0  0  0  0  0  0  0  0  0  0
    3.8504    1.2674    0.8644 H   0  0  0  0  0  0  0  0  0  0  0  0
    2.3855    1.2402    2.3771 H   0  0  0  0  0  0  0  0  0  0  0  0
    0.9872   -3.1484   -3.3039 H   0  0  0  0  0  0  0  0  0  0  0  0
  1  2  1  0
  2  3  2  0
  2  4  1  0
  4  5  1  0
  5  6  1  0
  6  7  1  0
  6  8  1  0
  8  9  1  0
  9 10  1  0
 10 11  1  0
  9 12  1  0
 12 13  1  0
 12 14  1  0
 14 15  1  0
 15 16  1  0
 16 17  1  0
 17 18  1  0
 18 19  1  0
 19 20  1  0
 20 21  1  0
 21 22  1  0
 22 23  1  0
 23 24  1  0
 24 25  1  0
 23 26  1  0
 26 27  1  0
 26 28  1  0
 28 29  1  0
 29 30  1  0
 30 31  1  0
 31 32  1  0
 32 33  1  0
 33 34  1  0
 33 35  1  0
 35 36  1  0
 35 37  1  0
 37 38  1  0
 32 39  1  0
 39 40  1  0
 39 41  2  0
 28 42  1  0
 42 43  1  0
 43 44  1  0
 44 45  1  0
 44 46  2  0
 19 47  1  0
 47 48  1  0
 47 49  1  0
 49 50  1  0
 18 51  1  0
 51 52  1  0
 51 53  2  0
 14  5  1  0
 49 16  1  0
 42 21  1  0
 37 30  1  0
  1 54  1  0
  1 55  1  0
  1 56  1  0
  4 57  1  0
  5 58  1  6
  6 59  1  1
  7 60  1  0
  9 61  1  6
 10 62  1  0
 10 63  1  0
 11 64  1  0
 12 65  1  6
 13 66  1  0
 14 67  1  0
 16 68  1  1
 18 69  1  1
 19 70  1  6
 21 71  1  6
 23 72  1  6
 24 73  1  0
 24 74  1  0
 25 75  1  0
 26 76  1  1
 27 77  1  0
 28 78  1  0
 30 79  1  6
 32 80  1  6
 33 81  1  1
 34 82  1  0
 35 83  1  1
 36 84  1  0
 37 85  1  1
 38 86  1  0
 40 87  1  0
 42 88  1  1
 43 89  1  0
 45 90  1  0
 45 91  1  0
 45 92  1  0
 47 93  1  1
 48 94  1  0
 49 95  1  1
 50 96  1  0
 52 97  1  0
M  END
$$$$
