@<TRIPOS>MOLECULE
*****
 54 58 0 0 0
SMALL
GASTEIGER

@<TRIPOS>ATOM
      1 O          -1.3978   -2.0499   -1.0359 O.2     1  UNL1       -0.2699
      2 C          -1.9249   -0.9397   -1.1701 C.2     1  UNL1        0.2491
      3 C          -3.2656   -0.7059   -1.6924 C.ar    1  UNL1        0.0653
      4 C          -3.3381   -0.5959   -3.0884 C.ar    1  UNL1       -0.0292
      5 C          -4.5888   -0.3780   -3.6333 C.ar    1  UNL1        0.0418
      6 CL         -4.7316   -0.2385   -5.3788 Cl      1  UNL1       -0.0835
      7 C          -5.6848   -0.2795   -2.8201 C.ar    1  UNL1       -0.0413
      8 C          -5.6002   -0.3889   -1.4568 C.ar    1  UNL1       -0.0324
      9 C          -4.3343   -0.6121   -0.8641 C.ar    1  UNL1        0.0983
     10 N          -4.2786   -0.7065    0.5395 N.ar    1  UNL1       -0.1496
     11 N          -4.9977    0.1066    1.3218 N.ar    1  UNL1       -0.1556
     12 C          -4.7931   -0.1755    2.6101 C.ar    1  UNL1        0.0697
     13 C          -3.9003   -1.2196    2.6392 C.ar    1  UNL1        0.0697
     14 N          -3.6184   -1.5045    1.3413 N.ar    1  UNL1       -0.1556
     15 N          -1.1788    0.2263   -0.7939 N.am    1  UNL1       -0.2897
     16 C          -1.7803    1.5478   -0.8879 C.3     1  UNL1        0.0388
     17 C          -0.9694    2.6586   -0.3458 C.3     1  UNL1        0.0635
     18 O           0.3812    2.4974   -0.2816 O.3     1  UNL1       -0.3764
     19 C           0.8400    1.4063   -0.9635 C.3     1  UNL1        0.0666
     20 C           0.2013    0.1822   -0.3544 C.3     1  UNL1        0.0537
     21 C           0.2492    0.1291    1.1267 C.3     1  UNL1       -0.0041
     22 C           1.6248    0.0928    1.6842 C.ar    1  UNL1       -0.0097
     23 C           2.6817   -0.3168    0.9023 C.ar    1  UNL1       -0.0451
     24 C           3.9745   -0.3226    1.4356 C.ar    1  UNL1        0.0195
     25 C           5.0582   -0.7594    0.5487 C.ar    1  UNL1        0.1597
     26 N           6.3110   -0.8013    1.0183 N.ar    1  UNL1       -0.2357
     27 C           7.3508   -1.1941    0.2253 C.ar    1  UNL1        0.0314
     28 C           7.0910   -1.5503   -1.0781 C.ar    1  UNL1       -0.0254
     29 C           5.8104   -1.5082   -1.5592 C.ar    1  UNL1        0.0314
     30 N           4.8516   -1.1138   -0.7185 N.ar    1  UNL1       -0.2357
     31 C           4.2207    0.0736    2.7345 C.ar    1  UNL1       -0.0483
     32 C           3.1548    0.4847    3.5209 C.ar    1  UNL1       -0.0255
     33 C           1.8798    0.4867    2.9809 C.ar    1  UNL1        0.1267
     34 F           0.8859    0.9040    3.8046 F       1  UNL1       -0.2052
     35 H          -2.4792   -0.6692   -3.7258 H       1  UNL1        0.0640
     36 H          -6.6512   -0.1076   -3.2800 H       1  UNL1        0.0633
     37 H          -6.4627   -0.3117   -0.8214 H       1  UNL1        0.0640
     38 H          -5.2650    0.3471    3.4307 H       1  UNL1        0.0864
     39 H          -3.5134   -1.7008    3.5215 H       1  UNL1        0.0864
     40 H          -2.1457    1.7570   -1.9112 H       1  UNL1        0.0487
     41 H          -2.7156    1.4703   -0.2547 H       1  UNL1        0.0487
     42 H          -1.1579    3.5546   -0.9902 H       1  UNL1        0.0575
     43 H          -1.3031    2.9857    0.6836 H       1  UNL1        0.0575
     44 H           1.9142    1.3736   -1.0938 H       1  UNL1        0.0578
     45 H           0.4237    1.4901   -2.0132 H       1  UNL1        0.0578
     46 H           0.6718   -0.7590   -0.7553 H       1  UNL1        0.0526
     47 H          -0.2347    1.0350    1.5952 H       1  UNL1        0.0333
     48 H          -0.3010   -0.7424    1.5255 H       1  UNL1        0.0333
     49 H           2.5824   -0.6529   -0.1219 H       1  UNL1        0.0628
     50 H           8.3645   -1.2351    0.5823 H       1  UNL1        0.0831
     51 H           7.8717   -1.8689   -1.7469 H       1  UNL1        0.0648
     52 H           5.6196   -1.7868   -2.5797 H       1  UNL1        0.0831
     53 H           5.2333    0.0572    3.1140 H       1  UNL1        0.0625
     54 H           3.3640    0.7890    4.5303 H       1  UNL1        0.0646
@<TRIPOS>BOND
     1     1     2    2
     2     2     3    1
     3     3     4   ar
     4     4     5   ar
     5     5     6    1
     6     5     7   ar
     7     7     8   ar
     8     8     9   ar
     9     9    10    1
    10    10    11   ar
    11    11    12   ar
    12    12    13   ar
    13    13    14   ar
    14     2    15   am
    15    15    16    1
    16    16    17    1
    17    17    18    1
    18    18    19    1
    19    19    20    1
    20    20    21    1
    21    21    22    1
    22    22    23   ar
    23    23    24   ar
    24    24    25    1
    25    25    26   ar
    26    26    27   ar
    27    27    28   ar
    28    28    29   ar
    29    29    30   ar
    30    24    31   ar
    31    31    32   ar
    32    32    33   ar
    33    33    34    1
    34     9     3   ar
    35    14    10   ar
    36    20    15    1
    37    33    22   ar
    38    30    25   ar
    39     4    35    1
    40     7    36    1
    41     8    37    1
    42    12    38    1
    43    13    39    1
    44    16    40    1
    45    16    41    1
    46    17    42    1
    47    17    43    1
    48    19    44    1
    49    19    45    1
    50    20    46    1
    51    21    47    1
    52    21    48    1
    53    23    49    1
    54    27    50    1
    55    28    51    1
    56    29    52    1
    57    31    53    1
    58    32    54    1
