
     RDKit          3D

 54 58  0  0  0  0  0  0  0  0999 V2000
   -1.3978   -2.0499   -1.0359 O   0  0  0  0  0  0  0  0  0  0  0  0
   -1.9249   -0.9397   -1.1701 C   0  0  0  0  0  0  0  0  0  0  0  0
   -3.2656   -0.7059   -1.6924 C   0  0  0  0  0  0  0  0  0  0  0  0
   -3.3381   -0.5959   -3.0884 C   0  0  0  0  0  0  0  0  0  0  0  0
   -4.5888   -0.3780   -3.6333 C   0  0  0  0  0  0  0  0  0  0  0  0
   -4.7316   -0.2385   -5.3788 Cl  0  0  0  0  0  0  0  0  0  0  0  0
   -5.6848   -0.2795   -2.8201 C   0  0  0  0  0  0  0  0  0  0  0  0
   -5.6002   -0.3889   -1.4568 C   0  0  0  0  0  0  0  0  0  0  0  0
   -4.3343   -0.6121   -0.8641 C   0  0  0  0  0  0  0  0  0  0  0  0
   -4.2786   -0.7065    0.5395 N   0  0  0  0  0  0  0  0  0  0  0  0
   -4.9977    0.1066    1.3218 N   0  0  0  0  0  0  0  0  0  0  0  0
   -4.7931   -0.1755    2.6101 C   0  0  0  0  0  0  0  0  0  0  0  0
   -3.9003   -1.2196    2.6392 C   0  0  0  0  0  0  0  0  0  0  0  0
   -3.6184   -1.5045    1.3413 N   0  0  0  0  0  0  0  0  0  0  0  0
   -1.1788    0.2263   -0.7939 N   0  0  0  0  0  0  0  0  0  0  0  0
   -1.7803    1.5478   -0.8879 C   0  0  0  0  0  0  0  0  0  0  0  0
   -0.9694    2.6586   -0.3458 C   0  0  0  0  0  0  0  0  0  0  0  0
    0.3812    2.4974   -0.2816 O   0  0  0  0  0  0  0  0  0  0  0  0
    0.8400    1.4063   -0.9635 C   0  0  0  0  0  0  0  0  0  0  0  0
    0.2013    0.1822   -0.3544 C   0  0  1  0  0  0  0  0  0  0  0  0
    0.2492    0.1291    1.1267 C   0  0  0  0  0  0  0  0  0  0  0  0
    1.6248    0.0928    1.6842 C   0  0  0  0  0  0  0  0  0  0  0  0
    2.6817   -0.3168    0.9023 C   0  0  0  0  0  0  0  0  0  0  0  0
    3.9745   -0.3226    1.4356 C   0  0  0  0  0  0  0  0  0  0  0  0
    5.0582   -0.7594    0.5487 C   0  0  0  0  0  0  0  0  0  0  0  0
    6.3110   -0.8013    1.0183 N   0  0  0  0  0  0  0  0  0  0  0  0
    7.3508   -1.1941    0.2253 C   0  0  0  0  0  0  0  0  0  0  0  0
    7.0910   -1.5503   -1.0781 C   0  0  0  0  0  0  0  0  0  0  0  0
    5.8104   -1.5082   -1.5592 C   0  0  0  0  0  0  0  0  0  0  0  0
    4.8516   -1.1138   -0.7185 N   0  0  0  0  0  0  0  0  0  0  0  0
    4.2207    0.0736    2.7345 C   0  0  0  0  0  0  0  0  0  0  0  0
    3.1548    0.4847    3.5209 C   0  0  0  0  0  0  0  0  0  0  0  0
    1.8798    0.4867    2.9809 C   0  0  0  0  0  0  0  0  0  0  0  0
    0.8859    0.9040    3.8046 F   0  0  0  0  0  0  0  0  0  0  0  0
   -2.4792   -0.6692   -3.7258 H   0  0  0  0  0  0  0  0  0  0  0  0
   -6.6512   -0.1076   -3.2800 H   0  0  0  0  0  0  0  0  0  0  0  0
   -6.4627   -0.3117   -0.8214 H   0  0  0  0  0  0  0  0  0  0  0  0
   -5.2650    0.3471    3.4307 H   0  0  0  0  0  0  0  0  0  0  0  0
   -3.5134   -1.7008    3.5215 H   0  0  0  0  0  0  0  0  0  0  0  0
   -2.1457    1.7570   -1.9112 H   0  0  0  0  0  0  0  0  0  0  0  0
   -2.7156    1.4703   -0.2547 H   0  0  0  0  0  0  0  0  0  0  0  0
   -1.1579    3.5546   -0.9902 H   0  0  0  0  0  0  0  0  0  0  0  0
   -1.3031    2.9857    0.6836 H   0  0  0  0  0  0  0  0  0  0  0  0
    1.9142    1.3736   -1.0938 H   0  0  0  0  0  0  0  0  0  0  0  0
    0.4237    1.4901   -2.0132 H   0  0  0  0  0  0  0  0  0  0  0  0
    0.6718   -0.7590   -0.7553 H   0  0  0  0  0  0  0  0  0  0  0  0
   -0.2347    1.0350    1.5952 H   0  0  0  0  0  0  0  0  0  0  0  0
   -0.3010   -0.7424    1.5255 H   0  0  0  0  0  0  0  0  0  0  0  0
    2.5824   -0.6529   -0.1219 H   0  0  0  0  0  0  0  0  0  0  0  0
    8.3645   -1.2351    0.5823 H   0  0  0  0  0  0  0  0  0  0  0  0
    7.8717   -1.8689   -1.7469 H   0  0  0  0  0  0  0  0  0  0  0  0
    5.6196   -1.7868   -2.5797 H   0  0  0  0  0  0  0  0  0  0  0  0
    5.2333    0.0572    3.1140 H   0  0  0  0  0  0  0  0  0  0  0  0
    3.3640    0.7890    4.5303 H   0  0  0  0  0  0  0  0  0  0  0  0
  1  2  2  0
  2  3  1  0
  3  4  2  0
  4  5  1  0
  5  6  1  0
  5  7  2  0
  7  8  1  0
  8  9  2  0
  9 10  1  0
 10 11  1  0
 11 12  2  0
 12 13  1  0
 13 14  2  0
  2 15  1  0
 15 16  1  0
 16 17  1  0
 17 18  1  0
 18 19  1  0
 19 20  1  0
 20 21  1  0
 21 22  1  0
 22 23  2  0
 23 24  1  0
 24 25  1  0
 25 26  2  0
 26 27  1  0
 27 28  2  0
 28 29  1  0
 29 30  2  0
 24 31  2  0
 31 32  1  0
 32 33  2  0
 33 34  1  0
  9  3  1  0
 14 10  1  0
 20 15  1  0
 33 22  1  0
 30 25  1  0
  4 35  1  0
  7 36  1  0
  8 37  1  0
 12 38  1  0
 13 39  1  0
 16 40  1  0
 16 41  1  0
 17 42  1  0
 17 43  1  0
 19 44  1  0
 19 45  1  0
 20 46  1  6
 21 47  1  0
 21 48  1  0
 23 49  1  0
 27 50  1  0
 28 51  1  0
 29 52  1  0
 31 53  1  0
 32 54  1  0
M  END
$$$$
