
     RDKit          3D

 29 31  0  0  0  0  0  0  0  0999 V2000
    0.3540    2.5426   -0.1350 N   0  0  0  0  0  0  0  0  0  0  0  0
    0.3884    1.1317    0.0452 C   0  0  0  0  0  0  0  0  0  0  0  0
   -0.7627    0.3801    0.2999 C   0  0  0  0  0  0  0  0  0  0  0  0
   -2.0683    1.0562    0.3885 C   0  0  0  0  0  0  0  0  0  0  0  0
   -3.0759    0.3082   -0.4645 C   0  0  0  0  0  0  0  0  0  0  0  0
   -2.9494   -1.1814   -0.3786 C   0  0  0  0  0  0  0  0  0  0  0  0
   -2.0049   -1.6228    0.7308 C   0  0  0  0  0  0  0  0  0  0  0  0
   -0.6857   -0.9871    0.4685 C   0  0  0  0  0  0  0  0  0  0  0  0
    0.4627   -1.6542    0.4000 N   0  0  0  0  0  0  0  0  0  0  0  0
    1.5957   -0.9557    0.1548 C   0  0  0  0  0  0  0  0  0  0  0  0
    2.7617   -1.6993    0.0939 C   0  0  0  0  0  0  0  0  0  0  0  0
    3.9665   -1.0359   -0.1565 C   0  0  0  0  0  0  0  0  0  0  0  0
    3.9281    0.3326   -0.3306 C   0  0  0  0  0  0  0  0  0  0  0  0
    2.7680    1.0770   -0.2706 C   0  0  0  0  0  0  0  0  0  0  0  0
    1.5612    0.4205   -0.0208 C   0  0  0  0  0  0  0  0  0  0  0  0
    0.1039    3.3000    0.5234 H   0  0  0  0  0  0  0  0  0  0  0  0
    0.6442    2.7211   -1.1182 H   0  0  0  0  0  0  0  0  0  0  0  0
   -2.4709    0.9792    1.4296 H   0  0  0  0  0  0  0  0  0  0  0  0
   -2.0381    2.0967    0.0662 H   0  0  0  0  0  0  0  0  0  0  0  0
   -4.0753    0.6864   -0.1291 H   0  0  0  0  0  0  0  0  0  0  0  0
   -2.9598    0.7083   -1.4964 H   0  0  0  0  0  0  0  0  0  0  0  0
   -2.4681   -1.5694   -1.3238 H   0  0  0  0  0  0  0  0  0  0  0  0
   -3.9138   -1.6997   -0.1996 H   0  0  0  0  0  0  0  0  0  0  0  0
   -2.4155   -1.2715    1.6812 H   0  0  0  0  0  0  0  0  0  0  0  0
   -1.9249   -2.7279    0.6560 H   0  0  0  0  0  0  0  0  0  0  0  0
    2.7943   -2.7693    0.2297 H   0  0  0  0  0  0  0  0  0  0  0  0
    4.8819   -1.6055   -0.2061 H   0  0  0  0  0  0  0  0  0  0  0  0
    4.8450    0.8797   -0.5267 H   0  0  0  0  0  0  0  0  0  0  0  0
    2.7581    2.1596   -0.4111 H   0  0  0  0  0  0  0  0  0  0  0  0
  1  2  1  0
  2  3  2  0
  3  4  1  0
  4  5  1  0
  5  6  1  0
  6  7  1  0
  7  8  1  0
  8  9  2  0
  9 10  1  0
 10 11  2  0
 11 12  1  0
 12 13  2  0
 13 14  1  0
 14 15  2  0
 15  2  1  0
  8  3  1  0
 15 10  1  0
  1 16  1  0
  1 17  1  0
  4 18  1  0
  4 19  1  0
  5 20  1  0
  5 21  1  0
  6 22  1  0
  6 23  1  0
  7 24  1  0
  7 25  1  0
 11 26  1  0
 12 27  1  0
 13 28  1  0
 14 29  1  0
M  END
$$$$
