@<TRIPOS>MOLECULE
*****
 29 31 0 0 0
SMALL
GASTEIGER

@<TRIPOS>ATOM
      1 N           0.3540    2.5426   -0.1350 N.pl3   1  UNL1       -0.3572
      2 C           0.3884    1.1317    0.0452 C.ar    1  UNL1        0.0388
      3 C          -0.7627    0.3801    0.2999 C.ar    1  UNL1       -0.0049
      4 C          -2.0683    1.0562    0.3885 C.3     1  UNL1       -0.0242
      5 C          -3.0759    0.3082   -0.4645 C.3     1  UNL1       -0.0486
      6 C          -2.9494   -1.1814   -0.3786 C.3     1  UNL1       -0.0473
      7 C          -2.0049   -1.6228    0.7308 C.3     1  UNL1       -0.0101
      8 C          -0.6857   -0.9871    0.4685 C.ar    1  UNL1        0.0469
      9 N           0.4627   -1.6542    0.4000 N.ar    1  UNL1       -0.2512
     10 C           1.5957   -0.9557    0.1548 C.ar    1  UNL1        0.0730
     11 C           2.7617   -1.6993    0.0939 C.ar    1  UNL1       -0.0357
     12 C           3.9665   -1.0359   -0.1565 C.ar    1  UNL1       -0.0597
     13 C           3.9281    0.3326   -0.3306 C.ar    1  UNL1       -0.0610
     14 C           2.7680    1.0770   -0.2706 C.ar    1  UNL1       -0.0508
     15 C           1.5612    0.4205   -0.0208 C.ar    1  UNL1        0.0213
     16 H           0.1039    3.3000    0.5234 H       1  UNL1        0.1423
     17 H           0.6442    2.7211   -1.1182 H       1  UNL1        0.1423
     18 H          -2.4709    0.9792    1.4296 H       1  UNL1        0.0314
     19 H          -2.0381    2.0967    0.0662 H       1  UNL1        0.0314
     20 H          -4.0753    0.6864   -0.1291 H       1  UNL1        0.0269
     21 H          -2.9598    0.7083   -1.4964 H       1  UNL1        0.0269
     22 H          -2.4681   -1.5694   -1.3238 H       1  UNL1        0.0269
     23 H          -3.9138   -1.6997   -0.1996 H       1  UNL1        0.0269
     24 H          -2.4155   -1.2715    1.6812 H       1  UNL1        0.0328
     25 H          -1.9249   -2.7279    0.6560 H       1  UNL1        0.0328
     26 H           2.7943   -2.7693    0.2297 H       1  UNL1        0.0639
     27 H           4.8819   -1.6055   -0.2061 H       1  UNL1        0.0618
     28 H           4.8450    0.8797   -0.5267 H       1  UNL1        0.0618
     29 H           2.7581    2.1596   -0.4111 H       1  UNL1        0.0625
@<TRIPOS>BOND
     1     1     2    1
     2     2     3   ar
     3     3     4    1
     4     4     5    1
     5     5     6    1
     6     6     7    1
     7     7     8    1
     8     8     9   ar
     9     9    10   ar
    10    10    11   ar
    11    11    12   ar
    12    12    13   ar
    13    13    14   ar
    14    14    15   ar
    15    15     2   ar
    16     8     3   ar
    17    15    10   ar
    18     1    16    1
    19     1    17    1
    20     4    18    1
    21     4    19    1
    22     5    20    1
    23     5    21    1
    24     6    22    1
    25     6    23    1
    26     7    24    1
    27     7    25    1
    28    11    26    1
    29    12    27    1
    30    13    28    1
    31    14    29    1
