@<TRIPOS>MOLECULE
*****
 43 45 0 0 0
SMALL
GASTEIGER

@<TRIPOS>ATOM
      1 C           6.3196    0.1005    0.1689 C.3     1  UNL1       -0.0397
      2 C           4.8388    0.1761    0.2842 C.ar    1  UNL1       -0.0501
      3 C           4.2276    0.8937   -0.7290 C.ar    1  UNL1       -0.0578
      4 C           2.8537    1.0323   -0.7277 C.ar    1  UNL1       -0.0475
      5 C           2.0493    0.4760    0.2581 C.ar    1  UNL1        0.0157
      6 S           0.2968    0.6492    0.2652 S.3     1  UNL1       -0.0873
      7 C          -0.5440   -0.6353   -0.6081 C.ar    1  UNL1        0.0337
      8 C           0.2660   -1.5954   -1.1755 C.ar    1  UNL1       -0.0462
      9 C          -0.2926   -2.6443   -1.8741 C.ar    1  UNL1       -0.0606
     10 C          -1.6666   -2.6905   -1.9785 C.ar    1  UNL1       -0.0599
     11 C          -2.4265   -1.7016   -1.3902 C.ar    1  UNL1       -0.0396
     12 C          -1.9207   -0.6321   -0.6814 C.ar    1  UNL1        0.0437
     13 N          -2.7622    0.3549   -0.1100 N.pl3   1  UNL1       -0.3266
     14 C          -4.2103    0.2698   -0.1186 C.3     1  UNL1        0.0248
     15 C          -4.6685    0.4650    1.3376 C.3     1  UNL1        0.0117
     16 N          -4.4957    1.8862    1.5920 N.3     1  UNL1       -0.3130
     17 C          -3.4930    2.4630    0.7604 C.3     1  UNL1        0.0117
     18 C          -2.2873    1.5401    0.5252 C.3     1  UNL1        0.0248
     19 C           2.7130   -0.2307    1.2462 C.ar    1  UNL1       -0.0365
     20 C           1.8680   -0.8329    2.3093 C.3     1  UNL1       -0.0386
     21 C           4.0720   -0.3817    1.2664 C.ar    1  UNL1       -0.0549
     22 H           6.7101    1.1088   -0.0584 H       1  UNL1        0.0278
     23 H           6.6163   -0.5540   -0.6524 H       1  UNL1        0.0278
     24 H           6.7715   -0.2400    1.1236 H       1  UNL1        0.0278
     25 H           4.7466    1.3770   -1.5572 H       1  UNL1        0.0621
     26 H           2.3540    1.5903   -1.5117 H       1  UNL1        0.0629
     27 H           1.3432   -1.5731   -1.1025 H       1  UNL1        0.0629
     28 H           0.3314   -3.3959   -2.3188 H       1  UNL1        0.0618
     29 H          -2.0610   -3.5287   -2.5338 H       1  UNL1        0.0618
     30 H          -3.4800   -1.8670   -1.5560 H       1  UNL1        0.0636
     31 H          -4.6671    1.0285   -0.7836 H       1  UNL1        0.0476
     32 H          -4.6067   -0.7144   -0.3971 H       1  UNL1        0.0476
     33 H          -3.9701   -0.0714    2.0032 H       1  UNL1        0.0439
     34 H          -5.6921    0.1098    1.4848 H       1  UNL1        0.0439
     35 H          -4.2536    2.0418    2.5980 H       1  UNL1        0.1220
     36 H          -3.8486    2.7942   -0.2287 H       1  UNL1        0.0439
     37 H          -3.1328    3.3888    1.2775 H       1  UNL1        0.0439
     38 H          -1.7811    1.4053    1.4922 H       1  UNL1        0.0476
     39 H          -1.6481    2.1699   -0.1659 H       1  UNL1        0.0476
     40 H           1.6172   -1.8704    1.9722 H       1  UNL1        0.0278
     41 H           0.9153   -0.2971    2.4302 H       1  UNL1        0.0278
     42 H           2.4095   -0.9344    3.2716 H       1  UNL1        0.0278
     43 H           4.5887   -0.9306    2.0337 H       1  UNL1        0.0623
@<TRIPOS>BOND
     1     1     2    1
     2     2     3   ar
     3     3     4   ar
     4     4     5   ar
     5     5     6    1
     6     6     7    1
     7     7     8   ar
     8     8     9   ar
     9     9    10   ar
    10    10    11   ar
    11    11    12   ar
    12    12    13    1
    13    13    14    1
    14    14    15    1
    15    15    16    1
    16    16    17    1
    17    17    18    1
    18     5    19   ar
    19    19    20    1
    20    19    21   ar
    21    21     2   ar
    22    12     7   ar
    23    18    13    1
    24     1    22    1
    25     1    23    1
    26     1    24    1
    27     3    25    1
    28     4    26    1
    29     8    27    1
    30     9    28    1
    31    10    29    1
    32    11    30    1
    33    14    31    1
    34    14    32    1
    35    15    33    1
    36    15    34    1
    37    16    35    1
    38    17    36    1
    39    17    37    1
    40    18    38    1
    41    18    39    1
    42    20    40    1
    43    20    41    1
    44    20    42    1
    45    21    43    1
