@<TRIPOS>MOLECULE
*****
 32 34 0 0 0
SMALL
GASTEIGER

@<TRIPOS>ATOM
      1 O           0.4355    1.7679    1.0301 O.3     1  UNL1       -0.5059
      2 C           0.8441    0.4903    0.6766 C.ar    1  UNL1        0.1280
      3 C           0.1329   -0.6382    0.9734 C.ar    1  UNL1       -0.0010
      4 C          -1.1434   -0.6056    1.6979 C.3     1  UNL1        0.0011
      5 C          -2.3033   -0.1743    0.8810 C.ar    1  UNL1       -0.0429
      6 C          -2.7445    1.1285    0.8359 C.ar    1  UNL1       -0.0583
      7 C          -3.8359    1.5216    0.0585 C.ar    1  UNL1       -0.0615
      8 C          -4.4928    0.5887   -0.6845 C.ar    1  UNL1       -0.0617
      9 C          -4.0840   -0.7290   -0.6687 C.ar    1  UNL1       -0.0615
     10 C          -2.9933   -1.1024    0.1128 C.ar    1  UNL1       -0.0583
     11 C           0.6363   -1.8553    0.5724 C.ar    1  UNL1       -0.0542
     12 C           1.8281   -1.9773   -0.1157 C.ar    1  UNL1       -0.0535
     13 C           2.5404   -0.8352   -0.4119 C.ar    1  UNL1       -0.0144
     14 C           3.7373   -0.9488   -1.1023 C.ar    1  UNL1       -0.0539
     15 C           4.4460    0.1908   -1.3967 C.ar    1  UNL1       -0.0612
     16 C           3.9668    1.4252   -1.0078 C.ar    1  UNL1       -0.0611
     17 C           2.7741    1.5436   -0.3195 C.ar    1  UNL1       -0.0505
     18 C           2.0498    0.3993   -0.0166 C.ar    1  UNL1        0.0238
     19 H           0.9744    2.2822    1.7181 H       1  UNL1        0.2922
     20 H          -1.4106   -1.5997    2.1166 H       1  UNL1        0.0363
     21 H          -1.0132    0.0522    2.5924 H       1  UNL1        0.0363
     22 H          -2.2614    1.8958    1.4060 H       1  UNL1        0.0620
     23 H          -4.1653    2.5645    0.0408 H       1  UNL1        0.0618
     24 H          -5.3389    0.8908   -1.2877 H       1  UNL1        0.0618
     25 H          -4.6262   -1.4483   -1.2701 H       1  UNL1        0.0618
     26 H          -2.6541   -2.1369    0.1396 H       1  UNL1        0.0620
     27 H           0.1106   -2.7726    0.7837 H       1  UNL1        0.0622
     28 H           2.2293   -2.9298   -0.4336 H       1  UNL1        0.0624
     29 H           4.0879   -1.9261   -1.3940 H       1  UNL1        0.0624
     30 H           5.3747    0.0901   -1.9331 H       1  UNL1        0.0618
     31 H           4.5154    2.3371   -1.2330 H       1  UNL1        0.0618
     32 H           2.3833    2.5111   -0.0059 H       1  UNL1        0.0625
@<TRIPOS>BOND
     1     1     2    1
     2     2     3   ar
     3     3     4    1
     4     4     5    1
     5     5     6   ar
     6     6     7   ar
     7     7     8   ar
     8     8     9   ar
     9     9    10   ar
    10     3    11   ar
    11    11    12   ar
    12    12    13   ar
    13    13    14   ar
    14    14    15   ar
    15    15    16   ar
    16    16    17   ar
    17    17    18   ar
    18    18     2   ar
    19    10     5   ar
    20    18    13   ar
    21     1    19    1
    22     4    20    1
    23     4    21    1
    24     6    22    1
    25     7    23    1
    26     8    24    1
    27     9    25    1
    28    10    26    1
    29    11    27    1
    30    12    28    1
    31    14    29    1
    32    15    30    1
    33    16    31    1
    34    17    32    1
