
     RDKit          3D

 32 34  0  0  0  0  0  0  0  0999 V2000
    0.4355    1.7679    1.0301 O   0  0  0  0  0  0  0  0  0  0  0  0
    0.8441    0.4903    0.6766 C   0  0  0  0  0  0  0  0  0  0  0  0
    0.1329   -0.6382    0.9734 C   0  0  0  0  0  0  0  0  0  0  0  0
   -1.1434   -0.6056    1.6979 C   0  0  0  0  0  0  0  0  0  0  0  0
   -2.3033   -0.1743    0.8810 C   0  0  0  0  0  0  0  0  0  0  0  0
   -2.7445    1.1285    0.8359 C   0  0  0  0  0  0  0  0  0  0  0  0
   -3.8359    1.5216    0.0585 C   0  0  0  0  0  0  0  0  0  0  0  0
   -4.4928    0.5887   -0.6845 C   0  0  0  0  0  0  0  0  0  0  0  0
   -4.0840   -0.7290   -0.6687 C   0  0  0  0  0  0  0  0  0  0  0  0
   -2.9933   -1.1024    0.1128 C   0  0  0  0  0  0  0  0  0  0  0  0
    0.6363   -1.8553    0.5724 C   0  0  0  0  0  0  0  0  0  0  0  0
    1.8281   -1.9773   -0.1157 C   0  0  0  0  0  0  0  0  0  0  0  0
    2.5404   -0.8352   -0.4119 C   0  0  0  0  0  0  0  0  0  0  0  0
    3.7373   -0.9488   -1.1023 C   0  0  0  0  0  0  0  0  0  0  0  0
    4.4460    0.1908   -1.3967 C   0  0  0  0  0  0  0  0  0  0  0  0
    3.9668    1.4252   -1.0078 C   0  0  0  0  0  0  0  0  0  0  0  0
    2.7741    1.5436   -0.3195 C   0  0  0  0  0  0  0  0  0  0  0  0
    2.0498    0.3993   -0.0166 C   0  0  0  0  0  0  0  0  0  0  0  0
    0.9744    2.2822    1.7181 H   0  0  0  0  0  0  0  0  0  0  0  0
   -1.4106   -1.5997    2.1166 H   0  0  0  0  0  0  0  0  0  0  0  0
   -1.0132    0.0522    2.5924 H   0  0  0  0  0  0  0  0  0  0  0  0
   -2.2614    1.8958    1.4060 H   0  0  0  0  0  0  0  0  0  0  0  0
   -4.1653    2.5645    0.0408 H   0  0  0  0  0  0  0  0  0  0  0  0
   -5.3389    0.8908   -1.2877 H   0  0  0  0  0  0  0  0  0  0  0  0
   -4.6262   -1.4483   -1.2701 H   0  0  0  0  0  0  0  0  0  0  0  0
   -2.6541   -2.1369    0.1396 H   0  0  0  0  0  0  0  0  0  0  0  0
    0.1106   -2.7726    0.7837 H   0  0  0  0  0  0  0  0  0  0  0  0
    2.2293   -2.9298   -0.4336 H   0  0  0  0  0  0  0  0  0  0  0  0
    4.0879   -1.9261   -1.3940 H   0  0  0  0  0  0  0  0  0  0  0  0
    5.3747    0.0901   -1.9331 H   0  0  0  0  0  0  0  0  0  0  0  0
    4.5154    2.3371   -1.2330 H   0  0  0  0  0  0  0  0  0  0  0  0
    2.3833    2.5111   -0.0059 H   0  0  0  0  0  0  0  0  0  0  0  0
  1  2  1  0
  2  3  2  0
  3  4  1  0
  4  5  1  0
  5  6  2  0
  6  7  1  0
  7  8  2  0
  8  9  1  0
  9 10  2  0
  3 11  1  0
 11 12  2  0
 12 13  1  0
 13 14  2  0
 14 15  1  0
 15 16  2  0
 16 17  1  0
 17 18  2  0
 18  2  1  0
 10  5  1  0
 18 13  1  0
  1 19  1  0
  4 20  1  0
  4 21  1  0
  6 22  1  0
  7 23  1  0
  8 24  1  0
  9 25  1  0
 10 26  1  0
 11 27  1  0
 12 28  1  0
 14 29  1  0
 15 30  1  0
 16 31  1  0
 17 32  1  0
M  END
$$$$
