@<TRIPOS>MOLECULE
*****
 85 88 0 0 0
SMALL
GASTEIGER

@<TRIPOS>ATOM
      1 C           1.4190    0.0147    3.7825 C.3     1  UNL1       -0.0381
      2 C           1.8724    0.0366    2.3661 C.3     1  UNL1        0.0966
      3 N           3.1745    0.6368    2.1477 N.am    1  UNL1       -0.3027
      4 C           4.2417   -0.0144    1.4737 C.2     1  UNL1        0.2362
      5 O           4.0351   -1.1736    1.0446 O.2     1  UNL1       -0.2737
      6 CA          5.5770    0.5867    1.2446 C.3     1  UNL1        0.1228
      7 C           6.3049    0.9202    2.5388 C.3     1  UNL1        0.0711
      8 O           5.5072    1.7596    3.2890 O.3     1  UNL1       -0.3927
      9 N           6.4177   -0.2967    0.4419 N.am    1  UNL1       -0.2981
     10 C           6.9108    0.1307   -0.8193 C.2     1  UNL1        0.2447
     11 O           6.5861    1.2843   -1.1869 O.2     1  UNL1       -0.2702
     12 C           7.7532   -0.6925   -1.6753 C.ar    1  UNL1        0.0367
     13 C           8.1262   -1.9691   -1.3517 C.ar    1  UNL1       -0.0496
     14 C           8.9422   -2.7189   -2.2072 C.ar    1  UNL1       -0.0610
     15 C           9.3943   -2.1966   -3.3990 C.ar    1  UNL1       -0.0617
     16 C           9.0273   -0.9238   -3.7306 C.ar    1  UNL1       -0.0610
     17 C           8.2249   -0.2010   -2.8773 C.ar    1  UNL1       -0.0496
     18 C           0.8381    0.6906    1.5074 C.2     1  UNL1        0.2338
     19 O           1.1579    1.6108    0.6875 O.2     1  UNL1       -0.2738
     20 N          -0.5322    0.3341    1.5517 N.am    1  UNL1       -0.2981
     21 C          -1.5290    0.9798    0.7001 C.3     1  UNL1        0.1520
     22 C          -2.4312    1.8186    1.5821 C.3     1  UNL1        0.0043
     23 C          -3.4716    2.5209    0.8212 C.ar    1  UNL1       -0.0447
     24 C          -3.1957    3.7602    0.2969 C.ar    1  UNL1       -0.0551
     25 C          -4.1389    4.4510   -0.4145 C.ar    1  UNL1       -0.0194
     26 C          -5.3835    3.9347   -0.6263 C.ar    1  UNL1        0.1420
     27 N          -6.3919    4.6321   -1.3709 N.pl3   1  UNL1       -0.0734
     28 C          -6.6507    5.8632   -1.1353 C.cat   1  UNL1        0.3821
     29 N          -5.9418    6.5543   -0.1331 N.pl3   1  UNL1       -0.2889
     30 N          -7.6513    6.5152   -1.8917 N.pl3   1  UNL1       -0.2889
     31 C          -5.6964    2.6837   -0.1097 C.ar    1  UNL1       -0.0194
     32 C          -4.7176    1.9925    0.6147 C.ar    1  UNL1       -0.0551
     33 P          -2.4210   -0.1888   -0.3179 P.3     1  UNL1        0.4539
     34 O          -3.2757    0.5979   -1.2848 O.2     1  UNL1       -0.2304
     35 O          -3.4327   -1.1787    0.6126 O.3     1  UNL1       -0.4144
     36 C          -4.1834   -2.2122    0.0738 C.ar    1  UNL1        0.1309
     37 C          -4.5372   -3.3009    0.8533 C.ar    1  UNL1       -0.0194
     38 C          -5.2778   -4.3654    0.3986 C.ar    1  UNL1       -0.0583
     39 C          -5.6850   -4.3212   -0.9292 C.ar    1  UNL1       -0.0615
     40 C          -5.3662   -3.2655   -1.7571 C.ar    1  UNL1       -0.0583
     41 C          -4.6121   -2.2162   -1.2362 C.ar    1  UNL1       -0.0194
     42 O          -1.3102   -1.0906   -1.2535 O.3     1  UNL1       -0.4144
     43 C          -1.3482   -2.4476   -1.3938 C.ar    1  UNL1        0.1309
     44 C          -1.2105   -3.3612   -0.3708 C.ar    1  UNL1       -0.0194
     45 C          -1.2617   -4.7195   -0.5970 C.ar    1  UNL1       -0.0583
     46 C          -1.4518   -5.2224   -1.8544 C.ar    1  UNL1       -0.0615
     47 C          -1.5924   -4.3550   -2.8951 C.ar    1  UNL1       -0.0583
     48 C          -1.5398   -2.9829   -2.6591 C.ar    1  UNL1       -0.0194
     49 H           0.6835    0.8025    4.0447 H       1  UNL1        0.0252
     50 H           2.2564    0.1298    4.5308 H       1  UNL1        0.0252
     51 H           0.9102   -0.9494    4.0698 H       1  UNL1        0.0252
     52 H           1.9221   -1.0139    1.9908 H       1  UNL1        0.0592
     53 H           3.3655    1.6073    2.4932 H       1  UNL1        0.1495
     54 HA          5.4263    1.5421    0.7069 H       1  UNL1        0.0618
     55 H1          6.6034    0.0074    3.0845 H       1  UNL1        0.0580
     56 H2          7.2017    1.5147    2.2181 H       1  UNL1        0.0580
     57 H           5.9860    2.3014    3.9528 H       1  UNL1        0.2095
     58 H           6.6594   -1.2364    0.7785 H       1  UNL1        0.1498
     59 H           7.7939   -2.4236   -0.4236 H       1  UNL1        0.0625
     60 H           9.2234   -3.7076   -1.9394 H       1  UNL1        0.0618
     61 H          10.0233   -2.7537   -4.0765 H       1  UNL1        0.0618
     62 H           9.3804   -0.4981   -4.6713 H       1  UNL1        0.0618
     63 H           7.9484    0.8019   -3.1631 H       1  UNL1        0.0625
     64 H          -0.8679   -0.4017    2.1966 H       1  UNL1        0.1497
     65 H          -0.9442    1.6618    0.0097 H       1  UNL1        0.0651
     66 H          -2.8258    1.1824    2.4011 H       1  UNL1        0.0338
     67 H          -1.7379    2.5512    2.0955 H       1  UNL1        0.0338
     68 H          -2.2057    4.1856    0.4579 H       1  UNL1        0.0621
     69 H          -3.9247    5.4285   -0.8339 H       1  UNL1        0.0653
     70 H          -5.2730    7.3533   -0.3523 H       1  UNL1        0.2547
     71 H          -6.0167    6.3374    0.8913 H       1  UNL1        0.2547
     72 H          -7.5721    6.4827   -2.9409 H       1  UNL1        0.2547
     73 H          -8.4137    6.9933   -1.3932 H       1  UNL1        0.2547
     74 H          -6.6862    2.2858   -0.2838 H       1  UNL1        0.0653
     75 H          -5.0049    1.0306    0.9974 H       1  UNL1        0.0621
     76 H          -4.2054   -3.3018    1.8804 H       1  UNL1        0.0654
     77 H          -5.5411   -5.2145    1.0407 H       1  UNL1        0.0619
     78 H          -6.2714   -5.1574   -1.2982 H       1  UNL1        0.0618
     79 H          -5.6979   -3.2636   -2.7858 H       1  UNL1        0.0619
     80 H          -4.3595   -1.3817   -1.8965 H       1  UNL1        0.0654
     81 H          -1.0602   -3.0089    0.6217 H       1  UNL1        0.0654
     82 H          -1.1516   -5.3985    0.2240 H       1  UNL1        0.0619
     83 H          -1.4967   -6.2890   -2.0578 H       1  UNL1        0.0618
     84 H          -1.7427   -4.7467   -3.9042 H       1  UNL1        0.0619
     85 H          -1.6572   -2.3475   -3.5138 H       1  UNL1        0.0654
@<TRIPOS>BOND
     1     1     2    1
     2     2     3    1
     3     3     4   am
     4     4     5    2
     5     4     6    1
     6     6     7    1
     7     7     8    1
     8     6     9    1
     9     9    10   am
    10    10    11    2
    11    10    12    1
    12    12    13   ar
    13    13    14   ar
    14    14    15   ar
    15    15    16   ar
    16    16    17   ar
    17     2    18    1
    18    18    19    2
    19    18    20   am
    20    20    21    1
    21    21    22    1
    22    22    23    1
    23    23    24   ar
    24    24    25   ar
    25    25    26   ar
    26    26    27    1
    27    27    28    2
    28    28    29    1
    29    28    30    1
    30    26    31   ar
    31    31    32   ar
    32    21    33    1
    33    33    34    2
    34    33    35    1
    35    35    36    1
    36    36    37   ar
    37    37    38   ar
    38    38    39   ar
    39    39    40   ar
    40    40    41   ar
    41    33    42    1
    42    42    43    1
    43    43    44   ar
    44    44    45   ar
    45    45    46   ar
    46    46    47   ar
    47    47    48   ar
    48    17    12   ar
    49    32    23   ar
    50    41    36   ar
    51    48    43   ar
    52     1    49    1
    53     1    50    1
    54     1    51    1
    55     2    52    1
    56     3    53    1
    57     6    54    1
    58     7    55    1
    59     7    56    1
    60     8    57    1
    61     9    58    1
    62    13    59    1
    63    14    60    1
    64    15    61    1
    65    16    62    1
    66    17    63    1
    67    20    64    1
    68    21    65    1
    69    22    66    1
    70    22    67    1
    71    24    68    1
    72    25    69    1
    73    29    70    1
    74    29    71    1
    75    30    72    1
    76    30    73    1
    77    31    74    1
    78    32    75    1
    79    37    76    1
    80    38    77    1
    81    39    78    1
    82    40    79    1
    83    41    80    1
    84    44    81    1
    85    45    82    1
    86    46    83    1
    87    47    84    1
    88    48    85    1
