
     RDKit          3D

 85 88  0  0  0  0  0  0  0  0999 V2000
    1.4190    0.0147    3.7825 C   0  0  0  0  0  0  0  0  0  0  0  0
    1.8724    0.0366    2.3661 C   0  0  2  0  0  0  0  0  0  0  0  0
    3.1745    0.6368    2.1477 N   0  0  0  0  0  0  0  0  0  0  0  0
    4.2417   -0.0144    1.4737 C   0  0  0  0  0  0  0  0  0  0  0  0
    4.0351   -1.1736    1.0446 O   0  0  0  0  0  0  0  0  0  0  0  0
    5.5770    0.5867    1.2446 C   0  0  1  0  0  0  0  0  0  0  0  0
    6.3049    0.9202    2.5388 C   0  0  0  0  0  0  0  0  0  0  0  0
    5.5072    1.7596    3.2890 O   0  0  0  0  0  0  0  0  0  0  0  0
    6.4177   -0.2967    0.4419 N   0  0  0  0  0  0  0  0  0  0  0  0
    6.9108    0.1307   -0.8193 C   0  0  0  0  0  0  0  0  0  0  0  0
    6.5861    1.2843   -1.1869 O   0  0  0  0  0  0  0  0  0  0  0  0
    7.7532   -0.6925   -1.6753 C   0  0  0  0  0  0  0  0  0  0  0  0
    8.1262   -1.9691   -1.3517 C   0  0  0  0  0  0  0  0  0  0  0  0
    8.9422   -2.7189   -2.2072 C   0  0  0  0  0  0  0  0  0  0  0  0
    9.3943   -2.1966   -3.3990 C   0  0  0  0  0  0  0  0  0  0  0  0
    9.0273   -0.9238   -3.7306 C   0  0  0  0  0  0  0  0  0  0  0  0
    8.2249   -0.2010   -2.8773 C   0  0  0  0  0  0  0  0  0  0  0  0
    0.8381    0.6906    1.5074 C   0  0  0  0  0  0  0  0  0  0  0  0
    1.1579    1.6108    0.6875 O   0  0  0  0  0  0  0  0  0  0  0  0
   -0.5322    0.3341    1.5517 N   0  0  0  0  0  0  0  0  0  0  0  0
   -1.5290    0.9798    0.7001 C   0  0  0  0  0  0  0  0  0  0  0  0
   -2.4312    1.8186    1.5821 C   0  0  0  0  0  0  0  0  0  0  0  0
   -3.4716    2.5209    0.8212 C   0  0  0  0  0  0  0  0  0  0  0  0
   -3.1957    3.7602    0.2969 C   0  0  0  0  0  0  0  0  0  0  0  0
   -4.1389    4.4510   -0.4145 C   0  0  0  0  0  0  0  0  0  0  0  0
   -5.3835    3.9347   -0.6263 C   0  0  0  0  0  0  0  0  0  0  0  0
   -6.3919    4.6321   -1.3709 N   0  0  0  0  0  0  0  0  0  0  0  0
   -6.6507    5.8632   -1.1353 C   0  0  0  0  0  0  0  0  0  0  0  0
   -5.9418    6.5543   -0.1331 N   0  0  0  0  0  0  0  0  0  0  0  0
   -7.6513    6.5152   -1.8917 N   0  0  0  0  0  0  0  0  0  0  0  0
   -5.6964    2.6837   -0.1097 C   0  0  0  0  0  0  0  0  0  0  0  0
   -4.7176    1.9925    0.6147 C   0  0  0  0  0  0  0  0  0  0  0  0
   -2.4210   -0.1888   -0.3179 P   0  0  0  0  0  5  0  0  0  0  0  0
   -3.2757    0.5979   -1.2848 O   0  0  0  0  0  0  0  0  0  0  0  0
   -3.4327   -1.1787    0.6126 O   0  0  0  0  0  0  0  0  0  0  0  0
   -4.1834   -2.2122    0.0738 C   0  0  0  0  0  0  0  0  0  0  0  0
   -4.5372   -3.3009    0.8533 C   0  0  0  0  0  0  0  0  0  0  0  0
   -5.2778   -4.3654    0.3986 C   0  0  0  0  0  0  0  0  0  0  0  0
   -5.6850   -4.3212   -0.9292 C   0  0  0  0  0  0  0  0  0  0  0  0
   -5.3662   -3.2655   -1.7571 C   0  0  0  0  0  0  0  0  0  0  0  0
   -4.6121   -2.2162   -1.2362 C   0  0  0  0  0  0  0  0  0  0  0  0
   -1.3102   -1.0906   -1.2535 O   0  0  0  0  0  0  0  0  0  0  0  0
   -1.3482   -2.4476   -1.3938 C   0  0  0  0  0  0  0  0  0  0  0  0
   -1.2105   -3.3612   -0.3708 C   0  0  0  0  0  0  0  0  0  0  0  0
   -1.2617   -4.7195   -0.5970 C   0  0  0  0  0  0  0  0  0  0  0  0
   -1.4518   -5.2224   -1.8544 C   0  0  0  0  0  0  0  0  0  0  0  0
   -1.5924   -4.3550   -2.8951 C   0  0  0  0  0  0  0  0  0  0  0  0
   -1.5398   -2.9829   -2.6591 C   0  0  0  0  0  0  0  0  0  0  0  0
    0.6835    0.8025    4.0447 H   0  0  0  0  0  0  0  0  0  0  0  0
    2.2564    0.1298    4.5308 H   0  0  0  0  0  0  0  0  0  0  0  0
    0.9102   -0.9494    4.0698 H   0  0  0  0  0  0  0  0  0  0  0  0
    1.9221   -1.0139    1.9908 H   0  0  0  0  0  0  0  0  0  0  0  0
    3.3655    1.6073    2.4932 H   0  0  0  0  0  0  0  0  0  0  0  0
    5.4263    1.5421    0.7069 H   0  0  0  0  0  0  0  0  0  0  0  0
    6.6034    0.0074    3.0845 H   0  0  0  0  0  0  0  0  0  0  0  0
    7.2017    1.5147    2.2181 H   0  0  0  0  0  0  0  0  0  0  0  0
    5.9860    2.3014    3.9528 H   0  0  0  0  0  0  0  0  0  0  0  0
    6.6594   -1.2364    0.7785 H   0  0  0  0  0  0  0  0  0  0  0  0
    7.7939   -2.4236   -0.4236 H   0  0  0  0  0  0  0  0  0  0  0  0
    9.2234   -3.7076   -1.9394 H   0  0  0  0  0  0  0  0  0  0  0  0
   10.0233   -2.7537   -4.0765 H   0  0  0  0  0  0  0  0  0  0  0  0
    9.3804   -0.4981   -4.6713 H   0  0  0  0  0  0  0  0  0  0  0  0
    7.9484    0.8019   -3.1631 H   0  0  0  0  0  0  0  0  0  0  0  0
   -0.8679   -0.4017    2.1966 H   0  0  0  0  0  0  0  0  0  0  0  0
   -0.9442    1.6618    0.0097 H   0  0  0  0  0  0  0  0  0  0  0  0
   -2.8258    1.1824    2.4011 H   0  0  0  0  0  0  0  0  0  0  0  0
   -1.7379    2.5512    2.0955 H   0  0  0  0  0  0  0  0  0  0  0  0
   -2.2057    4.1856    0.4579 H   0  0  0  0  0  0  0  0  0  0  0  0
   -3.9247    5.4285   -0.8339 H   0  0  0  0  0  0  0  0  0  0  0  0
   -5.2730    7.3533   -0.3523 H   0  0  0  0  0  0  0  0  0  0  0  0
   -6.0167    6.3374    0.8913 H   0  0  0  0  0  0  0  0  0  0  0  0
   -7.5721    6.4827   -2.9409 H   0  0  0  0  0  0  0  0  0  0  0  0
   -8.4137    6.9933   -1.3932 H   0  0  0  0  0  0  0  0  0  0  0  0
   -6.6862    2.2858   -0.2838 H   0  0  0  0  0  0  0  0  0  0  0  0
   -5.0049    1.0306    0.9974 H   0  0  0  0  0  0  0  0  0  0  0  0
   -4.2054   -3.3018    1.8804 H   0  0  0  0  0  0  0  0  0  0  0  0
   -5.5411   -5.2145    1.0407 H   0  0  0  0  0  0  0  0  0  0  0  0
   -6.2714   -5.1574   -1.2982 H   0  0  0  0  0  0  0  0  0  0  0  0
   -5.6979   -3.2636   -2.7858 H   0  0  0  0  0  0  0  0  0  0  0  0
   -4.3595   -1.3817   -1.8965 H   0  0  0  0  0  0  0  0  0  0  0  0
   -1.0602   -3.0089    0.6217 H   0  0  0  0  0  0  0  0  0  0  0  0
   -1.1516   -5.3985    0.2240 H   0  0  0  0  0  0  0  0  0  0  0  0
   -1.4967   -6.2890   -2.0578 H   0  0  0  0  0  0  0  0  0  0  0  0
   -1.7427   -4.7467   -3.9042 H   0  0  0  0  0  0  0  0  0  0  0  0
   -1.6572   -2.3475   -3.5138 H   0  0  0  0  0  0  0  0  0  0  0  0
  1  2  1  0
  2  3  1  0
  3  4  1  0
  4  5  2  0
  4  6  1  0
  6  7  1  0
  7  8  1  0
  6  9  1  0
  9 10  1  0
 10 11  2  0
 10 12  1  0
 12 13  2  0
 13 14  1  0
 14 15  2  0
 15 16  1  0
 16 17  2  0
  2 18  1  0
 18 19  2  0
 18 20  1  0
 20 21  1  0
 21 22  1  0
 22 23  1  0
 23 24  2  0
 24 25  1  0
 25 26  2  0
 26 27  1  0
 27 28  2  3
 28 29  1  0
 28 30  1  0
 26 31  1  0
 31 32  2  0
 21 33  1  0
 33 34  2  0
 33 35  1  0
 35 36  1  0
 36 37  2  0
 37 38  1  0
 38 39  2  0
 39 40  1  0
 40 41  2  0
 33 42  1  0
 42 43  1  0
 43 44  2  0
 44 45  1  0
 45 46  2  0
 46 47  1  0
 47 48  2  0
 17 12  1  0
 32 23  1  0
 41 36  1  0
 48 43  1  0
  1 49  1  0
  1 50  1  0
  1 51  1  0
  2 52  1  6
  3 53  1  0
  6 54  1  6
  7 55  1  0
  7 56  1  0
  8 57  1  0
  9 58  1  0
 13 59  1  0
 14 60  1  0
 15 61  1  0
 16 62  1  0
 17 63  1  0
 20 64  1  0
 21 65  1  0
 22 66  1  0
 22 67  1  0
 24 68  1  0
 25 69  1  0
 29 70  1  0
 29 71  1  0
 30 72  1  0
 30 73  1  0
 31 74  1  0
 32 75  1  0
 37 76  1  0
 38 77  1  0
 39 78  1  0
 40 79  1  0
 41 80  1  0
 44 81  1  0
 45 82  1  0
 46 83  1  0
 47 84  1  0
 48 85  1  0
M  END
$$$$
