@<TRIPOS>MOLECULE
*****
 52 56 0 0 0
SMALL
GASTEIGER

@<TRIPOS>ATOM
      1 O           3.8303    3.8110   -2.3600 O.2     1  UNL1       -0.2446
      2 C           2.6668    3.3204   -2.1831 C.ar    1  UNL1        0.3489
      3 N           1.4973    3.8800   -2.5727 N.ar    1  UNL1       -0.2260
      4 N           0.5443    3.0496   -2.1969 N.ar    1  UNL1       -0.1509
      5 C           1.0753    1.9724   -1.5763 C.ar    1  UNL1        0.1693
      6 C           0.3345    0.8663   -1.0360 C.ar    1  UNL1        0.0243
      7 C           0.7549   -0.4398   -1.1035 C.ar    1  UNL1       -0.0327
      8 C           0.0272   -1.4796   -0.5785 C.ar    1  UNL1        0.0304
      9 N          -1.1667   -1.2296    0.0411 N.ar    1  UNL1       -0.2405
     10 C          -1.6276    0.0187    0.1379 C.ar    1  UNL1        0.1195
     11 N          -2.8882    0.2513    0.7958 N.pl3   1  UNL1       -0.3262
     12 C          -3.6852   -0.7918    1.3511 C.3     1  UNL1        0.0220
     13 C          -4.9152   -0.1845    2.0071 C.3     1  UNL1       -0.0345
     14 C          -6.1922   -0.7354    1.4323 C.3     1  UNL1       -0.0514
     15 C          -6.3095   -0.5286   -0.0590 C.3     1  UNL1       -0.0529
     16 C          -4.9912   -0.8267   -0.7265 C.3     1  UNL1       -0.0514
     17 C          -4.1680   -1.6866    0.2110 C.3     1  UNL1       -0.0345
     18 C          -0.8953    1.0564   -0.3894 C.ar    1  UNL1       -0.0112
     19 N           2.3896    2.1503   -1.5733 N.ar    1  UNL1       -0.2437
     20 C           3.3160    1.2312   -1.0082 C.ar    1  UNL1        0.0535
     21 C           4.2742    0.6740   -1.8285 C.ar    1  UNL1       -0.0370
     22 C           5.2077   -0.2345   -1.3219 C.ar    1  UNL1       -0.0521
     23 C           5.1991   -0.6002    0.0090 C.ar    1  UNL1       -0.0178
     24 C           6.1261   -1.5037    0.5169 C.ar    1  UNL1       -0.0540
     25 C           6.1268   -1.8761    1.8446 C.ar    1  UNL1       -0.0612
     26 C           5.1655   -1.3152    2.6606 C.ar    1  UNL1       -0.0612
     27 C           4.2458   -0.4188    2.1567 C.ar    1  UNL1       -0.0540
     28 C           4.2405   -0.0428    0.8294 C.ar    1  UNL1       -0.0159
     29 C           3.3238    0.8535    0.3175 C.ar    1  UNL1       -0.0299
     30 H           1.3452    4.7843   -3.0715 H       1  UNL1        0.1937
     31 H           1.6874   -0.6505   -1.5857 H       1  UNL1        0.0640
     32 H           0.3898   -2.4821   -0.6522 H       1  UNL1        0.0830
     33 H          -3.2213    1.2492    0.8599 H       1  UNL1        0.1477
     34 H          -3.1142   -1.4374    2.0327 H       1  UNL1        0.0498
     35 H          -4.8792   -0.4940    3.0708 H       1  UNL1        0.0283
     36 H          -4.8941    0.9271    1.9789 H       1  UNL1        0.0283
     37 H          -6.3082   -1.7883    1.7391 H       1  UNL1        0.0266
     38 H          -7.0222   -0.1899    1.9711 H       1  UNL1        0.0266
     39 H          -6.7035    0.4785   -0.3061 H       1  UNL1        0.0265
     40 H          -7.0378   -1.2893   -0.4647 H       1  UNL1        0.0265
     41 H          -4.4532    0.1094   -0.8928 H       1  UNL1        0.0266
     42 H          -5.1224   -1.3193   -1.7170 H       1  UNL1        0.0266
     43 H          -4.7908   -2.5373    0.6082 H       1  UNL1        0.0283
     44 H          -3.3256   -2.0823   -0.3804 H       1  UNL1        0.0283
     45 H          -1.2861    2.0572   -0.3002 H       1  UNL1        0.0659
     46 H           4.3143    0.9319   -2.8666 H       1  UNL1        0.0638
     47 H           5.9682   -0.6822   -1.9531 H       1  UNL1        0.0624
     48 H           6.8812   -1.9458   -0.1186 H       1  UNL1        0.0624
     49 H           6.8349   -2.5759    2.2671 H       1  UNL1        0.0618
     50 H           5.1641   -1.6101    3.7179 H       1  UNL1        0.0618
     51 H           3.4894    0.0224    2.7991 H       1  UNL1        0.0624
     52 H           2.5774    1.2832    0.9716 H       1  UNL1        0.0644
@<TRIPOS>BOND
     1     1     2    2
     2     2     3   ar
     3     3     4   ar
     4     4     5   ar
     5     5     6    1
     6     6     7   ar
     7     7     8   ar
     8     8     9   ar
     9     9    10   ar
    10    10    11    1
    11    11    12    1
    12    12    13    1
    13    13    14    1
    14    14    15    1
    15    15    16    1
    16    16    17    1
    17    10    18   ar
    18     5    19   ar
    19    19    20    1
    20    20    21   ar
    21    21    22   ar
    22    22    23   ar
    23    23    24   ar
    24    24    25   ar
    25    25    26   ar
    26    26    27   ar
    27    27    28   ar
    28    28    29   ar
    29    19     2   ar
    30    29    20   ar
    31    18     6   ar
    32    28    23   ar
    33    17    12    1
    34     3    30    1
    35     7    31    1
    36     8    32    1
    37    11    33    1
    38    12    34    1
    39    13    35    1
    40    13    36    1
    41    14    37    1
    42    14    38    1
    43    15    39    1
    44    15    40    1
    45    16    41    1
    46    16    42    1
    47    17    43    1
    48    17    44    1
    49    18    45    1
    50    21    46    1
    51    22    47    1
    52    24    48    1
    53    25    49    1
    54    26    50    1
    55    27    51    1
    56    29    52    1
