@<TRIPOS>MOLECULE
*****
 75 81 0 0 0
SMALL
GASTEIGER

@<TRIPOS>ATOM
      1 C          -9.2457   -2.2664   -0.3934 C.3     1  UNL1        0.0032
      2 N          -7.8613   -1.9660   -0.0924 N.am    1  UNL1       -0.3024
      3 C          -6.8532   -2.9232   -0.5043 C.3     1  UNL1        0.0032
      4 C          -7.4894   -0.7545    0.5953 C.2     1  UNL1        0.2627
      5 O          -8.4278    0.0162    0.9143 O.2     1  UNL1       -0.2684
      6 C          -6.0954   -0.4607    0.8938 C.ar    1  UNL1        0.1070
      7 C          -5.3716   -1.2586    1.7815 C.ar    1  UNL1       -0.0209
      8 C          -4.0971   -0.7393    1.8622 C.ar    1  UNL1        0.0378
      9 C          -2.9366   -1.0525    2.5356 C.ar    1  UNL1        0.0419
     10 N          -1.8107   -0.3218    2.3946 N.ar    1  UNL1       -0.2219
     11 C          -1.7925    0.7413    1.5855 C.ar    1  UNL1        0.2224
     12 N          -0.6750    1.5813    1.3442 N.pl3   1  UNL1       -0.2684
     13 C           0.5995    1.0023    1.1541 C.ar    1  UNL1        0.1251
     14 C           0.8629   -0.3380    1.1179 C.ar    1  UNL1       -0.0197
     15 C           2.1794   -0.7804    0.9268 C.ar    1  UNL1       -0.0355
     16 C           3.2066    0.1146    0.7758 C.ar    1  UNL1        0.0545
     17 N           4.5166   -0.3976    0.5741 N.am    1  UNL1       -0.2694
     18 C           5.1071   -0.6138   -0.7204 C.3     1  UNL1        0.0260
     19 C           6.6050   -0.5950   -0.4079 C.3     1  UNL1       -0.0020
     20 C           6.5902   -1.4757    0.8555 C.3     1  UNL1        0.0317
     21 C           5.4682   -0.7805    1.5817 C.2     1  UNL1        0.2204
     22 O           5.3782   -0.5771    2.8038 O.2     1  UNL1       -0.2752
     23 C           7.0721    0.7509    0.0282 C.3     1  UNL1       -0.0299
     24 C           8.3239    1.2435   -0.6262 C.3     1  UNL1        0.0085
     25 C           9.5514    0.4467   -0.2072 C.3     1  UNL1       -0.0361
     26 C           9.7403   -0.5890   -1.2932 C.3     1  UNL1       -0.0361
     27 C           8.4771   -0.4264   -2.1027 C.3     1  UNL1        0.0085
     28 C           7.4082   -1.2694   -1.4549 C.3     1  UNL1       -0.0299
     29 N           8.2377    0.9781   -2.0419 N.3     1  UNL1       -0.3105
     30 C           2.9012    1.4610    0.8183 C.ar    1  UNL1        0.0511
     31 N           1.6496    1.8553    0.9996 N.ar    1  UNL1       -0.2383
     32 N          -2.9293    1.0481    0.9244 N.ar    1  UNL1       -0.1962
     33 C          -4.0748    0.3464    1.0346 C.ar    1  UNL1        0.1466
     34 N          -5.2894    0.5150    0.4462 N.ar    1  UNL1       -0.3180
     35 C          -5.6228    1.5470   -0.4907 C.3     1  UNL1        0.0366
     36 C          -6.4056    2.6909    0.0585 C.3     1  UNL1       -0.0320
     37 C          -7.0641    3.2414   -1.2054 C.3     1  UNL1       -0.0511
     38 C          -7.5123    1.9627   -1.8837 C.3     1  UNL1       -0.0511
     39 C          -6.3350    1.0291   -1.7222 C.3     1  UNL1       -0.0320
     40 H          -9.9572   -1.6686    0.2298 H       1  UNL1        0.0428
     41 H          -9.4604   -1.9420   -1.4474 H       1  UNL1        0.0428
     42 H          -9.5146   -3.3229   -0.2752 H       1  UNL1        0.0428
     43 H          -6.6832   -3.6972    0.2646 H       1  UNL1        0.0428
     44 H          -5.8804   -2.4112   -0.7355 H       1  UNL1        0.0428
     45 H          -7.1545   -3.4236   -1.4482 H       1  UNL1        0.0428
     46 H          -5.7171   -2.1347    2.3296 H       1  UNL1        0.0647
     47 H          -2.9123   -1.9016    3.1998 H       1  UNL1        0.0838
     48 H          -0.7871    2.6334    1.3075 H       1  UNL1        0.1564
     49 H           0.0561   -1.0383    1.2318 H       1  UNL1        0.0652
     50 H           2.3585   -1.8361    0.9037 H       1  UNL1        0.0638
     51 H           4.8768   -1.6259   -1.0611 H       1  UNL1        0.0474
     52 H           4.8275    0.1983   -1.4059 H       1  UNL1        0.0474
     53 H           7.5273   -1.4463    1.4094 H       1  UNL1        0.0364
     54 H           6.2164   -2.4916    0.6061 H       1  UNL1        0.0364
     55 H           6.2776    1.5225   -0.1531 H       1  UNL1        0.0286
     56 H           7.2685    0.8143    1.1422 H       1  UNL1        0.0286
     57 H           8.4418    2.3190   -0.3978 H       1  UNL1        0.0461
     58 H           9.3824   -0.0938    0.7450 H       1  UNL1        0.0281
     59 H          10.4414    1.1048   -0.1053 H       1  UNL1        0.0281
     60 H           9.8389   -1.6163   -0.8805 H       1  UNL1        0.0281
     61 H          10.6091   -0.3161   -1.9298 H       1  UNL1        0.0281
     62 H           8.6367   -0.7630   -3.1693 H       1  UNL1        0.0461
     63 H           6.7148   -1.5698   -2.2950 H       1  UNL1        0.0286
     64 H           7.8081   -2.2306   -1.0744 H       1  UNL1        0.0286
     65 H           7.3738    1.3038   -2.4955 H       1  UNL1        0.1225
     66 H           3.7144    2.1951    0.7008 H       1  UNL1        0.0849
     67 H          -4.6584    1.9939   -0.8885 H       1  UNL1        0.0528
     68 H          -5.7697    3.4614    0.5416 H       1  UNL1        0.0285
     69 H          -7.1945    2.4451    0.7651 H       1  UNL1        0.0285
     70 H          -7.9165    3.8800   -0.9273 H       1  UNL1        0.0266
     71 H          -6.2924    3.7875   -1.7826 H       1  UNL1        0.0266
     72 H          -8.3946    1.5865   -1.3505 H       1  UNL1        0.0266
     73 H          -7.7149    2.1991   -2.9495 H       1  UNL1        0.0266
     74 H          -5.7351    1.1297   -2.6535 H       1  UNL1        0.0285
     75 H          -6.6127   -0.0307   -1.6580 H       1  UNL1        0.0285
@<TRIPOS>BOND
     1     1     2    1
     2     2     3    1
     3     2     4   am
     4     4     5    2
     5     4     6    1
     6     6     7   ar
     7     7     8   ar
     8     8     9   ar
     9     9    10   ar
    10    10    11   ar
    11    11    12    1
    12    12    13    1
    13    13    14   ar
    14    14    15   ar
    15    15    16   ar
    16    16    17    1
    17    17    18    1
    18    18    19    1
    19    19    20    1
    20    20    21    1
    21    21    22    2
    22    19    23    1
    23    23    24    1
    24    24    25    1
    25    25    26    1
    26    26    27    1
    27    27    28    1
    28    27    29    1
    29    16    30   ar
    30    30    31   ar
    31    11    32   ar
    32    32    33   ar
    33    33    34   ar
    34    34    35    1
    35    35    36    1
    36    36    37    1
    37    37    38    1
    38    38    39    1
    39    34     6   ar
    40    39    35    1
    41    33     8   ar
    42    31    13   ar
    43    21    17   am
    44    29    24    1
    45    28    19    1
    46     1    40    1
    47     1    41    1
    48     1    42    1
    49     3    43    1
    50     3    44    1
    51     3    45    1
    52     7    46    1
    53     9    47    1
    54    12    48    1
    55    14    49    1
    56    15    50    1
    57    18    51    1
    58    18    52    1
    59    20    53    1
    60    20    54    1
    61    23    55    1
    62    23    56    1
    63    24    57    1
    64    25    58    1
    65    25    59    1
    66    26    60    1
    67    26    61    1
    68    27    62    1
    69    28    63    1
    70    28    64    1
    71    29    65    1
    72    30    66    1
    73    35    67    1
    74    36    68    1
    75    36    69    1
    76    37    70    1
    77    37    71    1
    78    38    72    1
    79    38    73    1
    80    39    74    1
    81    39    75    1
