
     RDKit          3D

 75 81  0  0  0  0  0  0  0  0999 V2000
   -9.2457   -2.2664   -0.3934 C   0  0  0  0  0  0  0  0  0  0  0  0
   -7.8613   -1.9660   -0.0924 N   0  0  0  0  0  0  0  0  0  0  0  0
   -6.8532   -2.9232   -0.5043 C   0  0  0  0  0  0  0  0  0  0  0  0
   -7.4894   -0.7545    0.5953 C   0  0  0  0  0  0  0  0  0  0  0  0
   -8.4278    0.0162    0.9143 O   0  0  0  0  0  0  0  0  0  0  0  0
   -6.0954   -0.4607    0.8938 C   0  0  0  0  0  0  0  0  0  0  0  0
   -5.3716   -1.2586    1.7815 C   0  0  0  0  0  0  0  0  0  0  0  0
   -4.0971   -0.7393    1.8622 C   0  0  0  0  0  0  0  0  0  0  0  0
   -2.9366   -1.0525    2.5356 C   0  0  0  0  0  0  0  0  0  0  0  0
   -1.8107   -0.3218    2.3946 N   0  0  0  0  0  0  0  0  0  0  0  0
   -1.7925    0.7413    1.5855 C   0  0  0  0  0  0  0  0  0  0  0  0
   -0.6750    1.5813    1.3442 N   0  0  0  0  0  0  0  0  0  0  0  0
    0.5995    1.0023    1.1541 C   0  0  0  0  0  0  0  0  0  0  0  0
    0.8629   -0.3380    1.1179 C   0  0  0  0  0  0  0  0  0  0  0  0
    2.1794   -0.7804    0.9268 C   0  0  0  0  0  0  0  0  0  0  0  0
    3.2066    0.1146    0.7758 C   0  0  0  0  0  0  0  0  0  0  0  0
    4.5166   -0.3976    0.5741 N   0  0  0  0  0  0  0  0  0  0  0  0
    5.1071   -0.6138   -0.7204 C   0  0  0  0  0  0  0  0  0  0  0  0
    6.6050   -0.5950   -0.4079 C   0  0  0  0  0  0  0  0  0  0  0  0
    6.5902   -1.4757    0.8555 C   0  0  0  0  0  0  0  0  0  0  0  0
    5.4682   -0.7805    1.5817 C   0  0  0  0  0  0  0  0  0  0  0  0
    5.3782   -0.5771    2.8038 O   0  0  0  0  0  0  0  0  0  0  0  0
    7.0721    0.7509    0.0282 C   0  0  0  0  0  0  0  0  0  0  0  0
    8.3239    1.2435   -0.6262 C   0  0  0  0  0  0  0  0  0  0  0  0
    9.5514    0.4467   -0.2072 C   0  0  0  0  0  0  0  0  0  0  0  0
    9.7403   -0.5890   -1.2932 C   0  0  0  0  0  0  0  0  0  0  0  0
    8.4771   -0.4264   -2.1027 C   0  0  0  0  0  0  0  0  0  0  0  0
    7.4082   -1.2694   -1.4549 C   0  0  0  0  0  0  0  0  0  0  0  0
    8.2377    0.9781   -2.0419 N   0  0  0  0  0  0  0  0  0  0  0  0
    2.9012    1.4610    0.8183 C   0  0  0  0  0  0  0  0  0  0  0  0
    1.6496    1.8553    0.9996 N   0  0  0  0  0  0  0  0  0  0  0  0
   -2.9293    1.0481    0.9244 N   0  0  0  0  0  0  0  0  0  0  0  0
   -4.0748    0.3464    1.0346 C   0  0  0  0  0  0  0  0  0  0  0  0
   -5.2894    0.5150    0.4462 N   0  0  0  0  0  0  0  0  0  0  0  0
   -5.6228    1.5470   -0.4907 C   0  0  0  0  0  0  0  0  0  0  0  0
   -6.4056    2.6909    0.0585 C   0  0  0  0  0  0  0  0  0  0  0  0
   -7.0641    3.2414   -1.2054 C   0  0  0  0  0  0  0  0  0  0  0  0
   -7.5123    1.9627   -1.8837 C   0  0  0  0  0  0  0  0  0  0  0  0
   -6.3350    1.0291   -1.7222 C   0  0  0  0  0  0  0  0  0  0  0  0
   -9.9572   -1.6686    0.2298 H   0  0  0  0  0  0  0  0  0  0  0  0
   -9.4604   -1.9420   -1.4474 H   0  0  0  0  0  0  0  0  0  0  0  0
   -9.5146   -3.3229   -0.2752 H   0  0  0  0  0  0  0  0  0  0  0  0
   -6.6832   -3.6972    0.2646 H   0  0  0  0  0  0  0  0  0  0  0  0
   -5.8804   -2.4112   -0.7355 H   0  0  0  0  0  0  0  0  0  0  0  0
   -7.1545   -3.4236   -1.4482 H   0  0  0  0  0  0  0  0  0  0  0  0
   -5.7171   -2.1347    2.3296 H   0  0  0  0  0  0  0  0  0  0  0  0
   -2.9123   -1.9016    3.1998 H   0  0  0  0  0  0  0  0  0  0  0  0
   -0.7871    2.6334    1.3075 H   0  0  0  0  0  0  0  0  0  0  0  0
    0.0561   -1.0383    1.2318 H   0  0  0  0  0  0  0  0  0  0  0  0
    2.3585   -1.8361    0.9037 H   0  0  0  0  0  0  0  0  0  0  0  0
    4.8768   -1.6259   -1.0611 H   0  0  0  0  0  0  0  0  0  0  0  0
    4.8275    0.1983   -1.4059 H   0  0  0  0  0  0  0  0  0  0  0  0
    7.5273   -1.4463    1.4094 H   0  0  0  0  0  0  0  0  0  0  0  0
    6.2164   -2.4916    0.6061 H   0  0  0  0  0  0  0  0  0  0  0  0
    6.2776    1.5225   -0.1531 H   0  0  0  0  0  0  0  0  0  0  0  0
    7.2685    0.8143    1.1422 H   0  0  0  0  0  0  0  0  0  0  0  0
    8.4418    2.3190   -0.3978 H   0  0  0  0  0  0  0  0  0  0  0  0
    9.3824   -0.0938    0.7450 H   0  0  0  0  0  0  0  0  0  0  0  0
   10.4414    1.1048   -0.1053 H   0  0  0  0  0  0  0  0  0  0  0  0
    9.8389   -1.6163   -0.8805 H   0  0  0  0  0  0  0  0  0  0  0  0
   10.6091   -0.3161   -1.9298 H   0  0  0  0  0  0  0  0  0  0  0  0
    8.6367   -0.7630   -3.1693 H   0  0  0  0  0  0  0  0  0  0  0  0
    6.7148   -1.5698   -2.2950 H   0  0  0  0  0  0  0  0  0  0  0  0
    7.8081   -2.2306   -1.0744 H   0  0  0  0  0  0  0  0  0  0  0  0
    7.3738    1.3038   -2.4955 H   0  0  0  0  0  0  0  0  0  0  0  0
    3.7144    2.1951    0.7008 H   0  0  0  0  0  0  0  0  0  0  0  0
   -4.6584    1.9939   -0.8885 H   0  0  0  0  0  0  0  0  0  0  0  0
   -5.7697    3.4614    0.5416 H   0  0  0  0  0  0  0  0  0  0  0  0
   -7.1945    2.4451    0.7651 H   0  0  0  0  0  0  0  0  0  0  0  0
   -7.9165    3.8800   -0.9273 H   0  0  0  0  0  0  0  0  0  0  0  0
   -6.2924    3.7875   -1.7826 H   0  0  0  0  0  0  0  0  0  0  0  0
   -8.3946    1.5865   -1.3505 H   0  0  0  0  0  0  0  0  0  0  0  0
   -7.7149    2.1991   -2.9495 H   0  0  0  0  0  0  0  0  0  0  0  0
   -5.7351    1.1297   -2.6535 H   0  0  0  0  0  0  0  0  0  0  0  0
   -6.6127   -0.0307   -1.6580 H   0  0  0  0  0  0  0  0  0  0  0  0
  1  2  1  0
  2  3  1  0
  2  4  1  0
  4  5  2  0
  4  6  1  0
  6  7  2  0
  7  8  1  0
  8  9  2  0
  9 10  1  0
 10 11  2  0
 11 12  1  0
 12 13  1  0
 13 14  2  0
 14 15  1  0
 15 16  2  0
 16 17  1  0
 17 18  1  0
 18 19  1  0
 19 20  1  0
 20 21  1  0
 21 22  2  0
 19 23  1  0
 23 24  1  0
 24 25  1  0
 25 26  1  0
 26 27  1  0
 27 28  1  0
 27 29  1  0
 16 30  1  0
 30 31  2  0
 11 32  1  0
 32 33  2  0
 33 34  1  0
 34 35  1  0
 35 36  1  0
 36 37  1  0
 37 38  1  0
 38 39  1  0
 34  6  1  0
 39 35  1  0
 33  8  1  0
 31 13  1  0
 21 17  1  0
 29 24  1  0
 28 19  1  0
  1 40  1  0
  1 41  1  0
  1 42  1  0
  3 43  1  0
  3 44  1  0
  3 45  1  0
  7 46  1  0
  9 47  1  0
 12 48  1  0
 14 49  1  0
 15 50  1  0
 18 51  1  0
 18 52  1  0
 20 53  1  0
 20 54  1  0
 23 55  1  0
 23 56  1  0
 24 57  1  0
 25 58  1  0
 25 59  1  0
 26 60  1  0
 26 61  1  0
 27 62  1  0
 28 63  1  0
 28 64  1  0
 29 65  1  0
 30 66  1  0
 35 67  1  0
 36 68  1  0
 36 69  1  0
 37 70  1  0
 37 71  1  0
 38 72  1  0
 38 73  1  0
 39 74  1  0
 39 75  1  0
M  END
$$$$
