@<TRIPOS>MOLECULE
*****
 61 64 0 0 0
SMALL
GASTEIGER

@<TRIPOS>ATOM
      1 O          -4.9929   -0.3127    2.8705 O.3     1  UNL1       -0.3929
      2 C          -5.7404   -0.9235    1.8624 C.3     1  UNL1        0.0675
      3 C          -4.7994   -1.4931    0.8231 C.3     1  UNL1        0.0871
      4 C          -5.5278   -2.1646   -0.2907 C.3     1  UNL1        0.1067
      5 O          -6.5878   -2.9056    0.2697 O.3     1  UNL1       -0.3870
      6 C          -6.1236   -1.2151   -1.2749 C.3     1  UNL1        0.1158
      7 O          -7.2357   -0.5482   -0.7291 O.3     1  UNL1       -0.3861
      8 C          -5.1608   -0.2207   -1.8263 C.3     1  UNL1        0.1409
      9 O          -4.6928   -0.6560   -3.0742 O.3     1  UNL1       -0.3814
     10 C          -4.0372    0.0706   -0.9057 C.ar    1  UNL1        0.1417
     11 N          -3.0065    0.9175   -1.0596 N.ar    1  UNL1       -0.2345
     12 C          -2.2161    0.8706    0.0217 C.ar    1  UNL1        0.0595
     13 C          -0.9711    1.6450    0.2641 C.3     1  UNL1       -0.0086
     14 C          -0.7078    2.5247   -0.9177 C.3     1  UNL1       -0.0436
     15 C           0.5478    3.3524   -0.7520 C.3     1  UNL1       -0.0273
     16 C           1.6969    2.4394   -0.5844 C.ar    1  UNL1       -0.0473
     17 C           2.3742    2.0216   -1.7324 C.ar    1  UNL1       -0.0583
     18 C           3.4657    1.1624   -1.6478 C.ar    1  UNL1       -0.0581
     19 C           3.8842    0.7172   -0.4125 C.ar    1  UNL1       -0.0443
     20 C           5.0487   -0.1992   -0.3258 C.3     1  UNL1       -0.0158
     21 C           4.6212   -1.5024    0.3170 C.3     1  UNL1       -0.0462
     22 C           5.8329   -2.4184    0.3124 C.3     1  UNL1       -0.0525
     23 C           6.9376   -1.8478    1.1450 C.3     1  UNL1       -0.0530
     24 C           7.2879   -0.4277    0.7735 C.3     1  UNL1       -0.0525
     25 C           6.0652    0.4362    0.5961 C.3     1  UNL1       -0.0462
     26 C           3.2081    1.1363    0.7114 C.ar    1  UNL1       -0.0581
     27 C           2.1208    1.9903    0.6476 C.ar    1  UNL1       -0.0583
     28 C          -2.7634   -0.0311    0.8821 C.ar    1  UNL1        0.0280
     29 N          -3.8922   -0.5168    0.2898 N.ar    1  UNL1       -0.3241
     30 H          -5.2957    0.6083    3.0656 H       1  UNL1        0.2095
     31 H          -6.3069   -1.7409    2.3130 H       1  UNL1        0.0579
     32 H          -6.4366   -0.1782    1.4353 H       1  UNL1        0.0579
     33 H          -4.2035   -2.2918    1.3528 H       1  UNL1        0.0577
     34 H          -4.8272   -2.8383   -0.8293 H       1  UNL1        0.0642
     35 H          -7.2681   -3.0039   -0.4200 H       1  UNL1        0.2100
     36 H          -6.5234   -1.8101   -2.1213 H       1  UNL1        0.0650
     37 H          -7.4153    0.2664   -1.2809 H       1  UNL1        0.2100
     38 H          -5.7227    0.7395   -2.0102 H       1  UNL1        0.0702
     39 H          -4.8998   -1.6236   -3.1750 H       1  UNL1        0.2105
     40 H          -1.1182    2.2080    1.2035 H       1  UNL1        0.0329
     41 H          -0.1078    0.9661    0.4251 H       1  UNL1        0.0329
     42 H          -0.6637    1.8870   -1.8147 H       1  UNL1        0.0272
     43 H          -1.5398    3.2425   -1.0722 H       1  UNL1        0.0272
     44 H           0.4139    4.0363    0.1035 H       1  UNL1        0.0313
     45 H           0.7361    3.9880   -1.6399 H       1  UNL1        0.0313
     46 H           2.0696    2.3536   -2.7138 H       1  UNL1        0.0620
     47 H           3.9906    0.8374   -2.5247 H       1  UNL1        0.0620
     48 H           5.4448   -0.4129   -1.3182 H       1  UNL1        0.0349
     49 H           3.7913   -1.9890   -0.2237 H       1  UNL1        0.0271
     50 H           4.3701   -1.3098    1.3865 H       1  UNL1        0.0271
     51 H           5.5342   -3.3859    0.7716 H       1  UNL1        0.0265
     52 H           6.1989   -2.5513   -0.7274 H       1  UNL1        0.0265
     53 H           6.7425   -1.9673    2.2115 H       1  UNL1        0.0265
     54 H           7.8579   -2.4640    0.9237 H       1  UNL1        0.0265
     55 H           7.8783    0.0003    1.6109 H       1  UNL1        0.0265
     56 H           7.9142   -0.3557   -0.1312 H       1  UNL1        0.0265
     57 H           5.5749    0.7015    1.5304 H       1  UNL1        0.0271
     58 H           6.3965    1.3784    0.1037 H       1  UNL1        0.0271
     59 H           3.5416    0.7836    1.6742 H       1  UNL1        0.0620
     60 H           1.5941    2.3162    1.5298 H       1  UNL1        0.0620
     61 H          -2.3560   -0.2916    1.8465 H       1  UNL1        0.0828
@<TRIPOS>BOND
     1     1     2    1
     2     2     3    1
     3     3     4    1
     4     4     5    1
     5     4     6    1
     6     6     7    1
     7     6     8    1
     8     8     9    1
     9     8    10    1
    10    10    11   ar
    11    11    12   ar
    12    12    13    1
    13    13    14    1
    14    14    15    1
    15    15    16    1
    16    16    17   ar
    17    17    18   ar
    18    18    19   ar
    19    19    20    1
    20    20    21    1
    21    21    22    1
    22    22    23    1
    23    23    24    1
    24    24    25    1
    25    19    26   ar
    26    26    27   ar
    27    12    28   ar
    28    28    29   ar
    29    29     3    1
    30    29    10   ar
    31    27    16   ar
    32    25    20    1
    33     1    30    1
    34     2    31    1
    35     2    32    1
    36     3    33    1
    37     4    34    1
    38     5    35    1
    39     6    36    1
    40     7    37    1
    41     8    38    1
    42     9    39    1
    43    13    40    1
    44    13    41    1
    45    14    42    1
    46    14    43    1
    47    15    44    1
    48    15    45    1
    49    17    46    1
    50    18    47    1
    51    20    48    1
    52    21    49    1
    53    21    50    1
    54    22    51    1
    55    22    52    1
    56    23    53    1
    57    23    54    1
    58    24    55    1
    59    24    56    1
    60    25    57    1
    61    25    58    1
    62    26    59    1
    63    27    60    1
    64    28    61    1
