@<TRIPOS>MOLECULE
*****
 50 53 0 0 0
SMALL
GASTEIGER

@<TRIPOS>ATOM
      1 N           6.3904   -1.6955   -0.8013 N.pl3   1  UNL1       -0.3377
      2 C           5.7823   -0.7482    0.0404 C.ar    1  UNL1        0.1964
      3 N           4.4563   -0.8462    0.2247 N.ar    1  UNL1       -0.2113
      4 C           3.7453   -0.0144    0.9983 C.ar    1  UNL1        0.1213
      5 N           2.3480   -0.1487    1.1676 N.pl3   1  UNL1       -0.3275
      6 C           1.6119   -1.1988    0.5006 C.3     1  UNL1        0.0260
      7 C           1.7225   -1.0498   -1.0007 C.3     1  UNL1        0.0273
      8 N           1.1876    0.2360   -1.3712 N.pl3   1  UNL1       -0.3120
      9 C          -0.1676    0.5844   -1.1473 C.ar    1  UNL1        0.2158
     10 N          -0.5614    1.8325   -1.5254 N.ar    1  UNL1       -0.2222
     11 C          -1.8228    2.1975   -1.3387 C.ar    1  UNL1        0.0439
     12 C          -2.7317    1.3307   -0.7692 C.ar    1  UNL1        0.0614
     13 C          -4.1203    1.7881   -0.5956 C.ar    1  UNL1        0.1417
     14 N          -5.1510    1.1107   -0.0857 N.ar    1  UNL1       -0.2360
     15 C          -6.2404    1.8773   -0.1086 C.ar    1  UNL1        0.0458
     16 C          -5.8661    3.0834   -0.6575 C.ar    1  UNL1        0.0216
     17 N          -4.5607    3.0087   -0.9498 N.ar    1  UNL1       -0.3443
     18 C          -2.3403    0.0656   -0.3834 C.ar    1  UNL1        0.0880
     19 C          -3.2796   -0.8711    0.2357 C.ar    1  UNL1        0.0196
     20 C          -3.7618   -0.6649    1.5192 C.ar    1  UNL1       -0.0498
     21 C          -4.6381   -1.5488    2.0764 C.ar    1  UNL1       -0.0427
     22 C          -5.0930   -2.6723    1.4276 C.ar    1  UNL1        0.0424
     23 CL         -6.2170   -3.8172    2.1262 Cl      1  UNL1       -0.0835
     24 C          -4.6119   -2.8799    0.1443 C.ar    1  UNL1       -0.0244
     25 C          -3.7259   -1.9937   -0.4291 C.ar    1  UNL1        0.0515
     26 CL         -3.1207   -2.2712   -2.0676 Cl      1  UNL1       -0.0828
     27 N          -1.0518   -0.2573   -0.5937 N.ar    1  UNL1       -0.2137
     28 C           4.4225    1.0061    1.6450 C.ar    1  UNL1       -0.0153
     29 C           5.7833    1.1353    1.4779 C.ar    1  UNL1        0.0224
     30 C           6.4674    0.2587    0.6752 C.ar    1  UNL1        0.3123
     31 N           7.8696    0.3518    0.4726 N.pl3   1  UNL1        0.0832
     32 O           8.6207    0.8651    1.3528 O.2     1  UNL1        0.0416
     33 O           8.4042   -0.1283   -0.7041 O.co2   1  UNL1       -0.5759
     34 H           6.6751   -2.6111   -0.4164 H       1  UNL1        0.1439
     35 H           6.5554   -1.4865   -1.7969 H       1  UNL1        0.1439
     36 H           1.7826    0.4932    1.7731 H       1  UNL1        0.1475
     37 H           2.0565   -2.1879    0.8070 H       1  UNL1        0.0477
     38 H           0.5644   -1.2482    0.8022 H       1  UNL1        0.0477
     39 H           1.1010   -1.8868   -1.4433 H       1  UNL1        0.0477
     40 H           2.7549   -1.1925   -1.3649 H       1  UNL1        0.0477
     41 H           1.8507    0.9209   -1.8227 H       1  UNL1        0.1490
     42 H          -2.0820    3.2080   -1.6601 H       1  UNL1        0.0838
     43 H          -7.2600    1.6128    0.2418 H       1  UNL1        0.0845
     44 H          -6.5443    3.9360   -0.8139 H       1  UNL1        0.0823
     45 H          -4.0037    3.8033   -1.3874 H       1  UNL1        0.1668
     46 H          -3.4019    0.2304    2.0419 H       1  UNL1        0.0625
     47 H          -5.0055   -1.3728    3.0807 H       1  UNL1        0.0632
     48 H          -4.9508   -3.7537   -0.3931 H       1  UNL1        0.0647
     49 H           3.8420    1.6683    2.2642 H       1  UNL1        0.0654
     50 H           6.3157    1.9408    1.9889 H       1  UNL1        0.0687
@<TRIPOS>UNITY_ATOM_ATTR
31 1
charge 1
33 1
charge -1
@<TRIPOS>BOND
     1     1     2    1
     2     2     3   ar
     3     3     4   ar
     4     4     5    1
     5     5     6    1
     6     6     7    1
     7     7     8    1
     8     8     9    1
     9     9    10   ar
    10    10    11   ar
    11    11    12   ar
    12    12    13    1
    13    13    14   ar
    14    14    15   ar
    15    15    16   ar
    16    16    17   ar
    17    12    18   ar
    18    18    19    1
    19    19    20   ar
    20    20    21   ar
    21    21    22   ar
    22    22    23    1
    23    22    24   ar
    24    24    25   ar
    25    25    26    1
    26    18    27   ar
    27     4    28   ar
    28    28    29   ar
    29    29    30   ar
    30    30    31    1
    31    31    32    2
    32    31    33    1
    33    30     2   ar
    34    27     9   ar
    35    17    13   ar
    36    25    19   ar
    37     1    34    1
    38     1    35    1
    39     5    36    1
    40     6    37    1
    41     6    38    1
    42     7    39    1
    43     7    40    1
    44     8    41    1
    45    11    42    1
    46    15    43    1
    47    16    44    1
    48    17    45    1
    49    20    46    1
    50    21    47    1
    51    24    48    1
    52    28    49    1
    53    29    50    1
