
     RDKit          3D

 41 45  0  0  0  0  0  0  0  0999 V2000
    1.2273   -0.1667    4.0326 O   0  0  0  0  0  0  0  0  0  0  0  0
    0.7495   -0.1191    2.8609 C   0  0  0  0  0  0  0  0  0  0  0  0
   -0.5700   -0.1594    2.6175 N   0  0  0  0  0  0  0  0  0  0  0  0
   -1.0685   -0.1079    1.3699 C   0  0  0  0  0  0  0  0  0  0  0  0
   -2.4393   -0.1508    1.1165 C   0  0  0  0  0  0  0  0  0  0  0  0
   -2.9771   -0.1010   -0.1515 C   0  0  0  0  0  0  0  0  0  0  0  0
   -4.4130   -0.1496   -0.3843 C   0  0  0  0  0  0  0  0  0  0  0  0
   -5.2043   -0.8709    0.4780 C   0  0  0  0  0  0  0  0  0  0  0  0
   -6.5835   -0.9566    0.3112 C   0  0  0  0  0  0  0  0  0  0  0  0
   -7.1732   -0.2924   -0.7593 C   0  0  0  0  0  0  0  0  0  0  0  0
   -8.9012   -0.3831   -0.9938 Cl  0  0  0  0  0  0  0  0  0  0  0  0
   -6.3966    0.4373   -1.6368 C   0  0  0  0  0  0  0  0  0  0  0  0
   -5.0338    0.4945   -1.4327 C   0  0  0  0  0  0  0  0  0  0  0  0
   -2.0882   -0.0035   -1.2083 C   0  0  0  0  0  0  0  0  0  0  0  0
   -0.7146    0.0416   -0.9916 C   0  0  0  0  0  0  0  0  0  0  0  0
   -0.2044   -0.0101    0.2868 C   0  0  0  0  0  0  0  0  0  0  0  0
    1.1509    0.0337    0.4923 C   0  0  0  0  0  0  0  0  0  0  0  0
    2.1988    0.1218   -0.3010 N   0  0  0  0  0  0  0  0  0  0  0  0
    3.3701    0.1284    0.4123 C   0  0  0  0  0  0  0  0  0  0  0  0
    4.6984    0.2141   -0.1650 C   0  0  0  0  0  0  0  0  0  0  0  0
    4.7672    0.3018   -1.5626 C   0  0  0  0  0  0  0  0  0  0  0  0
    3.6534    0.3073   -2.3330 F   0  0  0  0  0  0  0  0  0  0  0  0
    5.9760    0.3861   -2.2145 C   0  0  0  0  0  0  0  0  0  0  0  0
    7.1261    0.3830   -1.4687 C   0  0  0  0  0  0  0  0  0  0  0  0
    7.0880    0.2996   -0.1243 C   0  0  0  0  0  0  0  0  0  0  0  0
    5.8693    0.2148    0.5310 C   0  0  0  0  0  0  0  0  0  0  0  0
    5.8881    0.1088    2.2696 Cl  0  0  0  0  0  0  0  0  0  0  0  0
    2.9667    0.0390    1.6831 N   0  0  0  0  0  0  0  0  0  0  0  0
    1.6117   -0.0215    1.7805 C   0  0  0  0  0  0  0  0  0  0  0  0
   -1.2553   -0.2328    3.4026 H   0  0  0  0  0  0  0  0  0  0  0  0
   -3.1135   -0.2270    1.9555 H   0  0  0  0  0  0  0  0  0  0  0  0
   -4.8034   -1.4073    1.3276 H   0  0  0  0  0  0  0  0  0  0  0  0
   -7.2074   -1.5237    0.9883 H   0  0  0  0  0  0  0  0  0  0  0  0
   -6.9084    0.9326   -2.4507 H   0  0  0  0  0  0  0  0  0  0  0  0
   -4.4367    1.0651   -2.1207 H   0  0  0  0  0  0  0  0  0  0  0  0
   -2.4967    0.0374   -2.2135 H   0  0  0  0  0  0  0  0  0  0  0  0
   -0.0088    0.1181   -1.8224 H   0  0  0  0  0  0  0  0  0  0  0  0
    6.0120    0.4538   -3.3081 H   0  0  0  0  0  0  0  0  0  0  0  0
    8.0798    0.4514   -2.0135 H   0  0  0  0  0  0  0  0  0  0  0  0
    8.0185    0.2994    0.4385 H   0  0  0  0  0  0  0  0  0  0  0  0
    3.5460    0.0137    2.5286 H   0  0  0  0  0  0  0  0  0  0  0  0
  1  2  2  0
  2  3  1  0
  3  4  1  0
  4  5  2  0
  5  6  1  0
  6  7  1  0
  7  8  2  0
  8  9  1  0
  9 10  2  0
 10 11  1  0
 10 12  1  0
 12 13  2  0
  6 14  2  0
 14 15  1  0
 15 16  2  0
 16 17  1  0
 17 18  1  0
 18 19  2  0
 19 20  1  0
 20 21  2  0
 21 22  1  0
 21 23  1  0
 23 24  2  0
 24 25  1  0
 25 26  2  0
 26 27  1  0
 19 28  1  0
 28 29  1  0
 29  2  1  0
 16  4  1  0
 29 17  2  0
 13  7  1  0
 26 20  1  0
  3 30  1  0
  5 31  1  0
  8 32  1  0
  9 33  1  0
 12 34  1  0
 13 35  1  0
 14 36  1  0
 15 37  1  0
 23 38  1  0
 24 39  1  0
 25 40  1  0
 28 41  1  0
M  END
$$$$
