@<TRIPOS>MOLECULE
*****
 41 45 0 0 0
SMALL
GASTEIGER

@<TRIPOS>ATOM
      1 O           1.2273   -0.1667    4.0326 O.2     1  UNL1       -0.2656
      2 C           0.7495   -0.1191    2.8609 C.ar    1  UNL1        0.2748
      3 N          -0.5700   -0.1594    2.6175 N.ar    1  UNL1       -0.3203
      4 C          -1.0685   -0.1079    1.3699 C.ar    1  UNL1        0.0519
      5 C          -2.4393   -0.1508    1.1165 C.ar    1  UNL1       -0.0299
      6 C          -2.9771   -0.1010   -0.1515 C.ar    1  UNL1       -0.0159
      7 C          -4.4130   -0.1496   -0.3843 C.ar    1  UNL1       -0.0177
      8 C          -5.2043   -0.8709    0.4780 C.ar    1  UNL1       -0.0527
      9 C          -6.5835   -0.9566    0.3112 C.ar    1  UNL1       -0.0428
     10 C          -7.1732   -0.2924   -0.7593 C.ar    1  UNL1        0.0410
     11 CL         -8.9012   -0.3831   -0.9938 Cl      1  UNL1       -0.0835
     12 C          -6.3966    0.4373   -1.6368 C.ar    1  UNL1       -0.0428
     13 C          -5.0338    0.4945   -1.4327 C.ar    1  UNL1       -0.0527
     14 C          -2.0882   -0.0035   -1.2083 C.ar    1  UNL1       -0.0533
     15 C          -0.7146    0.0416   -0.9916 C.ar    1  UNL1       -0.0499
     16 C          -0.2044   -0.0101    0.2868 C.ar    1  UNL1        0.0260
     17 C           1.1509    0.0337    0.4923 C.ar    1  UNL1        0.1039
     18 N           2.1988    0.1218   -0.3010 N.ar    1  UNL1       -0.2268
     19 C           3.3701    0.1284    0.4123 C.ar    1  UNL1        0.1436
     20 C           4.6984    0.2141   -0.1650 C.ar    1  UNL1        0.0707
     21 C           4.7672    0.3018   -1.5626 C.ar    1  UNL1        0.1354
     22 F           3.6534    0.3073   -2.3330 F       1  UNL1       -0.2047
     23 C           5.9760    0.3861   -2.2145 C.ar    1  UNL1       -0.0257
     24 C           7.1261    0.3830   -1.4687 C.ar    1  UNL1       -0.0576
     25 C           7.0880    0.2996   -0.1243 C.ar    1  UNL1       -0.0425
     26 C           5.8693    0.2148    0.5310 C.ar    1  UNL1        0.0544
     27 CL          5.8881    0.1088    2.2696 Cl      1  UNL1       -0.0827
     28 N           2.9667    0.0390    1.6831 N.ar    1  UNL1       -0.3335
     29 C           1.6117   -0.0215    1.7805 C.ar    1  UNL1        0.1322
     30 H          -1.2553   -0.2328    3.4026 H       1  UNL1        0.1690
     31 H          -3.1135   -0.2270    1.9555 H       1  UNL1        0.0644
     32 H          -4.8034   -1.4073    1.3276 H       1  UNL1        0.0624
     33 H          -7.2074   -1.5237    0.9883 H       1  UNL1        0.0632
     34 H          -6.9084    0.9326   -2.4507 H       1  UNL1        0.0632
     35 H          -4.4367    1.0651   -2.1207 H       1  UNL1        0.0624
     36 H          -2.4967    0.0374   -2.2135 H       1  UNL1        0.0624
     37 H          -0.0088    0.1181   -1.8224 H       1  UNL1        0.0625
     38 H           6.0120    0.4538   -3.3081 H       1  UNL1        0.0646
     39 H           8.0798    0.4514   -2.0135 H       1  UNL1        0.0619
     40 H           8.0185    0.2994    0.4385 H       1  UNL1        0.0632
     41 H           3.5460    0.0137    2.5286 H       1  UNL1        0.1675
@<TRIPOS>BOND
     1     1     2    2
     2     2     3   ar
     3     3     4   ar
     4     4     5   ar
     5     5     6   ar
     6     6     7    1
     7     7     8   ar
     8     8     9   ar
     9     9    10   ar
    10    10    11    1
    11    10    12   ar
    12    12    13   ar
    13     6    14   ar
    14    14    15   ar
    15    15    16   ar
    16    16    17   ar
    17    17    18   ar
    18    18    19   ar
    19    19    20    1
    20    20    21   ar
    21    21    22    1
    22    21    23   ar
    23    23    24   ar
    24    24    25   ar
    25    25    26   ar
    26    26    27    1
    27    19    28   ar
    28    28    29   ar
    29    29     2   ar
    30    16     4   ar
    31    29    17   ar
    32    13     7   ar
    33    26    20   ar
    34     3    30    1
    35     5    31    1
    36     8    32    1
    37     9    33    1
    38    12    34    1
    39    13    35    1
    40    14    36    1
    41    15    37    1
    42    23    38    1
    43    24    39    1
    44    25    40    1
    45    28    41    1
