@<TRIPOS>MOLECULE
*****
 28 27 0 0 0
SMALL
GASTEIGER

@<TRIPOS>ATOM
      1 N          -3.7529   -1.7155    0.1528 N.3     1  UNL1        0.0000
      2 CA         -2.7603   -0.6983    0.4233 C.3     1  UNL1        0.0000
      3 C          -1.3720   -1.1360    0.0105 C.3     1  UNL1        0.0000
      4 C          -0.4119   -0.0136    0.3311 C.3     1  UNL1        0.0000
      5 C           1.0170   -0.3799   -0.0576 C.3     1  UNL1        0.0000
      6 C           1.8788    0.8078    0.3068 C.3     1  UNL1        0.0000
      7 B           3.4090    0.5932   -0.0340 B       1  UNL1        0.0000
      8 O           3.9290   -0.6797    0.4505 O.3     1  UNL1        0.0000
      9 O           4.1535    1.6518    0.6681 O.3     1  UNL1        0.0000
     10 O           3.6639    0.7684   -1.4685 O.3     1  UNL1        0.0000
     11 C          -3.0867    0.5624   -0.2805 C.2     1  UNL1        0.0000
     12 O          -3.2413    1.8052   -0.8626 O.3     1  UNL1        0.0000
     13 OXT        -4.1353    0.5138   -0.9619 O.2     1  UNL1        0.0000
     14 H1         -4.4458   -1.6868    0.9346 H       1  UNL1        0.0000
     15 H2         -3.3498   -2.6692    0.0428 H       1  UNL1        0.0000
     16 HA         -2.7179   -0.5114    1.5232 H       1  UNL1        0.0000
     17 H          -1.0603   -2.0961    0.4156 H       1  UNL1        0.0000
     18 H          -1.4173   -1.2461   -1.1048 H       1  UNL1        0.0000
     19 H          -0.4595    0.2492    1.4078 H       1  UNL1        0.0000
     20 H          -0.6550    0.9008   -0.2374 H       1  UNL1        0.0000
     21 H           1.0472   -0.5358   -1.1405 H       1  UNL1        0.0000
     22 H           1.3727   -1.3015    0.4310 H       1  UNL1        0.0000
     23 H           1.7687    1.0286    1.3674 H       1  UNL1        0.0000
     24 H           1.5526    1.6865   -0.2867 H       1  UNL1        0.0000
     25 H           4.7360   -0.9472   -0.0586 H       1  UNL1        0.0000
     26 H           3.6434    2.4996    0.4653 H       1  UNL1        0.0000
     27 H           3.7594   -0.1006   -1.8999 H       1  UNL1        0.0000
     28 H          -3.0652    2.6505   -0.3193 H       1  UNL1        0.0000
@<TRIPOS>UNITY_ATOM_ATTR
7 1
charge -1
@<TRIPOS>BOND
     1     1     2    1
     2     2     3    1
     3     3     4    1
     4     4     5    1
     5     5     6    1
     6     6     7    1
     7     7     8    1
     8     7     9    1
     9     7    10    1
    10     2    11    1
    11    11    12    1
    12    11    13    2
    13     1    14    1
    14     1    15    1
    15     2    16    1
    16     3    17    1
    17     3    18    1
    18     4    19    1
    19     4    20    1
    20     5    21    1
    21     5    22    1
    22     6    23    1
    23     6    24    1
    24     8    25    1
    25     9    26    1
    26    10    27    1
    27    12    28    1
