@<TRIPOS>MOLECULE
*****
 31 33 0 0 0
SMALL
GASTEIGER

@<TRIPOS>ATOM
      1 N           4.1492   -1.5282   -4.0637 N.1     1  UNL1       -0.1911
      2 C           3.4489   -1.2245   -2.9819 C.1     1  UNL1        0.0984
      3 C           2.7251   -0.8924   -1.8826 C.2     1  UNL1        0.0734
      4 C           2.6069    0.3915   -1.5084 C.2     1  UNL1        0.0759
      5 C           3.3107    1.3555   -2.3587 C.2     1  UNL1        0.0870
      6 O           3.2435    2.5892   -2.0392 O.co2   1  UNL1       -0.5433
      7 O           4.0382    1.0654   -3.4709 O.co2   1  UNL1       -0.5433
      8 N           1.8379    0.8161   -0.4351 N.am    1  UNL1       -0.2380
      9 C           1.5411    1.6232    0.6714 C.2     1  UNL1        0.2522
     10 O           2.2532    2.5245    1.2572 O.2     1  UNL1       -0.2698
     11 C           0.2110    1.0615    0.8518 C.2     1  UNL1        0.0588
     12 C          -0.8332    1.3836    1.5817 C.2     1  UNL1       -0.0248
     13 C          -2.0778    0.6791    1.6074 C.ar    1  UNL1        0.0644
     14 C          -3.2392    1.4322    1.4604 C.ar    1  UNL1       -0.0363
     15 C          -4.5126    0.8532    1.5023 C.ar    1  UNL1       -0.0583
     16 C          -4.5740   -0.5053    1.6953 C.ar    1  UNL1       -0.0436
     17 C          -3.4034   -1.2119    1.8367 C.ar    1  UNL1        0.0282
     18 N          -2.2306   -0.6328    1.7929 N.ar    1  UNL1       -0.2556
     19 C           0.5679    0.0931   -0.1377 C.3     1  UNL1        0.1791
     20 S           1.1079   -1.5219    0.2213 S.O2    1  UNL1       -0.0025
     21 O          -0.0462   -2.5145    0.2767 O.2     1  UNL1       -0.1719
     22 O           1.8937   -1.5877    1.5116 O.2     1  UNL1       -0.1719
     23 C           2.1086   -1.9892   -1.1268 C.3     1  UNL1        0.1046
     24 H          -0.7265    2.2765    2.2231 H       1  UNL1        0.0644
     25 H          -3.2267    2.5020    1.3041 H       1  UNL1        0.0639
     26 H          -5.4049    1.4887    1.3778 H       1  UNL1        0.0619
     27 H          -5.5448   -0.9989    1.7285 H       1  UNL1        0.0633
     28 H          -3.4947   -2.3234    1.9956 H       1  UNL1        0.0830
     29 H          -0.1203    0.0606   -1.0328 H       1  UNL1        0.0802
     30 H           2.8887   -2.6987   -0.7302 H       1  UNL1        0.0558
     31 H           1.5024   -2.5667   -1.8719 H       1  UNL1        0.0558
@<TRIPOS>UNITY_ATOM_ATTR
7 1
charge -1
@<TRIPOS>BOND
     1     1     2    3
     2     2     3    1
     3     3     4    2
     4     4     5    1
     5     5     6   ar
     6     5     7   ar
     7     4     8    1
     8     8     9   am
     9     9    10    2
    10     9    11    1
    11    11    12    2
    12    12    13    1
    13    13    14   ar
    14    14    15   ar
    15    15    16   ar
    16    16    17   ar
    17    17    18   ar
    18    11    19    1
    19    19    20    1
    20    20    21    2
    21    20    22    2
    22    20    23    1
    23    23     3    1
    24    19     8    1
    25    18    13   ar
    26    12    24    1
    27    14    25    1
    28    15    26    1
    29    16    27    1
    30    17    28    1
    31    19    29    1
    32    23    30    1
    33    23    31    1
