
     RDKit          3D

 31 33  0  0  0  0  0  0  0  0999 V2000
    4.1492   -1.5282   -4.0637 N   0  0  0  0  0  0  0  0  0  0  0  0
    3.4489   -1.2245   -2.9819 C   0  0  0  0  0  0  0  0  0  0  0  0
    2.7251   -0.8924   -1.8826 C   0  0  0  0  0  0  0  0  0  0  0  0
    2.6069    0.3915   -1.5084 C   0  0  0  0  0  0  0  0  0  0  0  0
    3.3107    1.3555   -2.3587 C   0  0  0  0  0  0  0  0  0  0  0  0
    3.2435    2.5892   -2.0392 O   0  0  0  0  0  0  0  0  0  0  0  0
    4.0382    1.0654   -3.4709 O   0  0  0  0  0  1  0  0  0  0  0  0
    1.8379    0.8161   -0.4351 N   0  0  0  0  0  0  0  0  0  0  0  0
    1.5411    1.6232    0.6714 C   0  0  0  0  0  0  0  0  0  0  0  0
    2.2532    2.5245    1.2572 O   0  0  0  0  0  0  0  0  0  0  0  0
    0.2110    1.0615    0.8518 C   0  0  0  0  0  0  0  0  0  0  0  0
   -0.8332    1.3836    1.5817 C   0  0  0  0  0  0  0  0  0  0  0  0
   -2.0778    0.6791    1.6074 C   0  0  0  0  0  0  0  0  0  0  0  0
   -3.2392    1.4322    1.4604 C   0  0  0  0  0  0  0  0  0  0  0  0
   -4.5126    0.8532    1.5023 C   0  0  0  0  0  0  0  0  0  0  0  0
   -4.5740   -0.5053    1.6953 C   0  0  0  0  0  0  0  0  0  0  0  0
   -3.4034   -1.2119    1.8367 C   0  0  0  0  0  0  0  0  0  0  0  0
   -2.2306   -0.6328    1.7929 N   0  0  0  0  0  0  0  0  0  0  0  0
    0.5679    0.0931   -0.1377 C   0  0  0  0  0  0  0  0  0  0  0  0
    1.1079   -1.5219    0.2213 S   0  0  0  0  0  6  0  0  0  0  0  0
   -0.0462   -2.5145    0.2767 O   0  0  0  0  0  0  0  0  0  0  0  0
    1.8937   -1.5877    1.5116 O   0  0  0  0  0  0  0  0  0  0  0  0
    2.1086   -1.9892   -1.1268 C   0  0  0  0  0  0  0  0  0  0  0  0
   -0.7265    2.2765    2.2231 H   0  0  0  0  0  0  0  0  0  0  0  0
   -3.2267    2.5020    1.3041 H   0  0  0  0  0  0  0  0  0  0  0  0
   -5.4049    1.4887    1.3778 H   0  0  0  0  0  0  0  0  0  0  0  0
   -5.5448   -0.9989    1.7285 H   0  0  0  0  0  0  0  0  0  0  0  0
   -3.4947   -2.3234    1.9956 H   0  0  0  0  0  0  0  0  0  0  0  0
   -0.1203    0.0606   -1.0328 H   0  0  0  0  0  0  0  0  0  0  0  0
    2.8887   -2.6987   -0.7302 H   0  0  0  0  0  0  0  0  0  0  0  0
    1.5024   -2.5667   -1.8719 H   0  0  0  0  0  0  0  0  0  0  0  0
  1  2  3  0
  2  3  1  0
  3  4  2  0
  4  5  1  0
  5  6  2  0
  5  7  1  0
  4  8  1  0
  8  9  1  0
  9 10  2  0
  9 11  1  0
 11 12  2  0
 12 13  1  0
 13 14  2  0
 14 15  1  0
 15 16  2  0
 16 17  1  0
 17 18  2  0
 11 19  1  0
 19 20  1  0
 20 21  2  0
 20 22  2  0
 20 23  1  0
 23  3  1  0
 19  8  1  0
 18 13  1  0
 12 24  1  0
 14 25  1  0
 15 26  1  0
 16 27  1  0
 17 28  1  0
 19 29  1  0
 23 30  1  0
 23 31  1  0
M  CHG  1   7  -1
M  END
$$$$
