
     RDKit          3D

 32 33  0  0  0  0  0  0  0  0999 V2000
    1.1069    2.1529    1.6309 C   0  0  0  0  0  0  0  0  0  0  0  0
    0.4468    1.9827    0.3217 C   0  0  0  0  0  0  0  0  0  0  0  0
    0.0217    0.6086   -0.0687 C   0  0  0  0  0  0  0  0  0  0  0  0
   -0.6060    0.8335   -1.4266 C   0  0  0  0  0  0  0  0  0  0  0  0
    0.2669    1.1945   -2.2843 O   0  0  0  0  0  0  0  0  0  0  0  0
   -1.9423    0.6893   -1.7780 N   0  0  0  0  0  0  0  0  0  0  0  0
   -2.8011    0.2164   -0.7575 C   0  0  0  0  0  0  0  0  0  0  0  0
   -4.0415    0.0580   -1.0030 O   0  0  0  0  0  0  0  0  0  0  0  0
   -2.3953   -0.1046    0.5448 N   0  0  0  0  0  0  0  0  0  0  0  0
   -3.3252   -0.5853    1.5470 C   0  0  0  0  0  0  0  0  0  0  0  0
   -1.0126    0.0644    0.8435 C   0  0  0  0  0  0  0  0  0  0  0  0
   -0.6274   -0.2847    2.0037 O   0  0  0  0  0  0  0  0  0  0  0  0
    1.1217   -0.3595   -0.2997 C   0  0  0  0  0  0  0  0  0  0  0  0
    0.7321   -1.4392   -1.1091 C   0  0  0  0  0  0  0  0  0  0  0  0
    1.5913   -2.4575   -1.4546 C   0  0  0  0  0  0  0  0  0  0  0  0
    2.8780   -2.4679   -1.0228 C   0  0  0  0  0  0  0  0  0  0  0  0
    3.2636   -1.4140   -0.2311 C   0  0  0  0  0  0  0  0  0  0  0  0
    2.4312   -0.3796    0.1336 C   0  0  0  0  0  0  0  0  0  0  0  0
    1.0851    1.2760    2.3119 H   0  0  0  0  0  0  0  0  0  0  0  0
    2.0962    2.6303    1.5261 H   0  0  0  0  0  0  0  0  0  0  0  0
    0.5109    2.9307    2.2032 H   0  0  0  0  0  0  0  0  0  0  0  0
   -0.4720    2.6207    0.2242 H   0  0  0  0  0  0  0  0  0  0  0  0
    1.1305    2.4018   -0.4769 H   0  0  0  0  0  0  0  0  0  0  0  0
   -2.2509    0.9241   -2.7378 H   0  0  0  0  0  0  0  0  0  0  0  0
   -3.9975    0.2345    1.8513 H   0  0  0  0  0  0  0  0  0  0  0  0
   -3.9793   -1.3541    1.0623 H   0  0  0  0  0  0  0  0  0  0  0  0
   -2.8005   -1.0786    2.3636 H   0  0  0  0  0  0  0  0  0  0  0  0
   -0.2833   -1.5511   -1.5252 H   0  0  0  0  0  0  0  0  0  0  0  0
    1.2701   -3.2892   -2.0851 H   0  0  0  0  0  0  0  0  0  0  0  0
    3.6391   -3.2078   -1.2271 H   0  0  0  0  0  0  0  0  0  0  0  0
    4.2669   -1.3029    0.1802 H   0  0  0  0  0  0  0  0  0  0  0  0
    2.6758    0.4578    0.7397 H   0  0  0  0  0  0  0  0  0  0  0  0
  1  2  1  0
  2  3  1  0
  3  4  1  0
  4  5  2  0
  4  6  1  0
  6  7  1  0
  7  8  2  0
  7  9  1  0
  9 10  1  0
  9 11  1  0
 11 12  2  0
  3 13  1  0
 13 14  2  0
 14 15  1  0
 15 16  2  0
 16 17  1  0
 17 18  2  0
 11  3  1  0
 18 13  1  0
  1 19  1  0
  1 20  1  0
  1 21  1  0
  2 22  1  0
  2 23  1  0
  6 24  1  0
 10 25  1  0
 10 26  1  0
 10 27  1  0
 14 28  1  0
 15 29  1  0
 16 30  1  0
 17 31  1  0
 18 32  1  0
M  END
$$$$
