@<TRIPOS>MOLECULE
*****
 48 51 0 0 0
SMALL
GASTEIGER

@<TRIPOS>ATOM
      1 O           7.1053    1.6240   -0.0690 O.3     1  UNL1       -0.3858
      2 C           5.9743    1.1493    0.5878 C.3     1  UNL1        0.1204
      3 C           5.1381    0.4595   -0.4541 C.2     1  UNL1        0.2411
      4 O           5.5827    0.4430   -1.6498 O.2     1  UNL1       -0.2731
      5 N           3.8968   -0.1308   -0.0207 N.am    1  UNL1       -0.2996
      6 C           3.2659   -0.1974    1.2785 C.3     1  UNL1        0.0153
      7 C           1.9222    0.4955    1.3295 C.3     1  UNL1       -0.0288
      8 C           1.3879    0.5781   -0.0617 C.3     1  UNL1        0.0066
      9 C           1.6287   -0.7277   -0.7632 C.3     1  UNL1       -0.0288
     10 C           3.1320   -0.7804   -1.0673 C.3     1  UNL1        0.0153
     11 C           0.0263    1.1068   -0.1784 C.ar    1  UNL1        0.0757
     12 N          -0.3821    2.3754   -0.3678 N.ar    1  UNL1       -0.1774
     13 N          -1.6807    2.4480   -0.4210 N.ar    1  UNL1       -0.2761
     14 C          -2.1665    1.1857   -0.2619 C.ar    1  UNL1        0.0752
     15 C          -1.0881    0.3386   -0.1087 C.ar    1  UNL1        0.0489
     16 C          -1.3490   -1.0583    0.0783 C.ar    1  UNL1        0.0780
     17 N          -1.5741   -1.5679    1.3259 N.ar    1  UNL1       -0.2353
     18 C          -1.8240   -2.8961    1.5021 C.ar    1  UNL1        0.1166
     19 N          -1.8654   -3.7828    0.4763 N.ar    1  UNL1       -0.2437
     20 C          -1.6502   -3.3485   -0.7990 C.ar    1  UNL1        0.0313
     21 C          -1.4013   -2.0011   -0.9379 C.ar    1  UNL1       -0.0174
     22 C          -3.6365    1.0319   -0.2895 C.ar    1  UNL1        0.0005
     23 C          -4.2030    0.5470    0.8909 C.ar    1  UNL1       -0.0512
     24 C          -5.5762    0.3591    0.9904 C.ar    1  UNL1       -0.0428
     25 C          -6.3513    0.6652   -0.1077 C.ar    1  UNL1        0.0410
     26 CL         -8.0941    0.4492   -0.0419 Cl      1  UNL1       -0.0835
     27 C          -5.8019    1.1457   -1.2817 C.ar    1  UNL1       -0.0428
     28 C          -4.4366    1.3368   -1.3920 C.ar    1  UNL1       -0.0512
     29 H           7.8895    1.1575    0.3161 H       1  UNL1        0.2100
     30 H           6.2192    0.4635    1.4176 H       1  UNL1        0.0654
     31 H           5.3715    2.0205    0.9105 H       1  UNL1        0.0654
     32 H           3.2146   -1.2799    1.5443 H       1  UNL1        0.0465
     33 H           3.9621    0.2402    2.0252 H       1  UNL1        0.0465
     34 H           1.2380   -0.1925    1.9008 H       1  UNL1        0.0287
     35 H           1.9815    1.4986    1.8310 H       1  UNL1        0.0287
     36 H           2.0457    1.3278   -0.5985 H       1  UNL1        0.0366
     37 H           1.0509   -0.6897   -1.7132 H       1  UNL1        0.0287
     38 H           1.3336   -1.5467   -0.0892 H       1  UNL1        0.0287
     39 H           3.4635   -1.8236   -1.2382 H       1  UNL1        0.0465
     40 H           3.2546   -0.2534   -2.0459 H       1  UNL1        0.0465
     41 H          -2.1442    3.3602   -0.5627 H       1  UNL1        0.1889
     42 H          -2.0070   -3.3212    2.4877 H       1  UNL1        0.1047
     43 H          -1.6629   -3.9817   -1.6875 H       1  UNL1        0.0831
     44 H          -1.2213   -1.6019   -1.9415 H       1  UNL1        0.0654
     45 H          -3.6371    0.2920    1.7757 H       1  UNL1        0.0625
     46 H          -6.0151   -0.0215    1.9186 H       1  UNL1        0.0632
     47 H          -6.3980    1.3969   -2.1686 H       1  UNL1        0.0632
     48 H          -3.9184    1.7072   -2.2684 H       1  UNL1        0.0625
@<TRIPOS>BOND
     1     1     2    1
     2     2     3    1
     3     3     4    2
     4     3     5   am
     5     5     6    1
     6     6     7    1
     7     7     8    1
     8     8     9    1
     9     9    10    1
    10     8    11    1
    11    11    12   ar
    12    12    13   ar
    13    13    14   ar
    14    14    15   ar
    15    15    16    1
    16    16    17   ar
    17    17    18   ar
    18    18    19   ar
    19    19    20   ar
    20    20    21   ar
    21    14    22    1
    22    22    23   ar
    23    23    24   ar
    24    24    25   ar
    25    25    26    1
    26    25    27   ar
    27    27    28   ar
    28    10     5    1
    29    15    11   ar
    30    21    16   ar
    31    28    22   ar
    32     1    29    1
    33     2    30    1
    34     2    31    1
    35     6    32    1
    36     6    33    1
    37     7    34    1
    38     7    35    1
    39     8    36    1
    40     9    37    1
    41     9    38    1
    42    10    39    1
    43    10    40    1
    44    13    41    1
    45    18    42    1
    46    20    43    1
    47    21    44    1
    48    23    45    1
    49    24    46    1
    50    27    47    1
    51    28    48    1
