
     RDKit          3D

 48 51  0  0  0  0  0  0  0  0999 V2000
    7.1053    1.6240   -0.0690 O   0  0  0  0  0  0  0  0  0  0  0  0
    5.9743    1.1493    0.5878 C   0  0  0  0  0  0  0  0  0  0  0  0
    5.1381    0.4595   -0.4541 C   0  0  0  0  0  0  0  0  0  0  0  0
    5.5827    0.4430   -1.6498 O   0  0  0  0  0  0  0  0  0  0  0  0
    3.8968   -0.1308   -0.0207 N   0  0  0  0  0  0  0  0  0  0  0  0
    3.2659   -0.1974    1.2785 C   0  0  0  0  0  0  0  0  0  0  0  0
    1.9222    0.4955    1.3295 C   0  0  0  0  0  0  0  0  0  0  0  0
    1.3879    0.5781   -0.0617 C   0  0  0  0  0  0  0  0  0  0  0  0
    1.6287   -0.7277   -0.7632 C   0  0  0  0  0  0  0  0  0  0  0  0
    3.1320   -0.7804   -1.0673 C   0  0  0  0  0  0  0  0  0  0  0  0
    0.0263    1.1068   -0.1784 C   0  0  0  0  0  0  0  0  0  0  0  0
   -0.3821    2.3754   -0.3678 N   0  0  0  0  0  0  0  0  0  0  0  0
   -1.6807    2.4480   -0.4210 N   0  0  0  0  0  0  0  0  0  0  0  0
   -2.1665    1.1857   -0.2619 C   0  0  0  0  0  0  0  0  0  0  0  0
   -1.0881    0.3386   -0.1087 C   0  0  0  0  0  0  0  0  0  0  0  0
   -1.3490   -1.0583    0.0783 C   0  0  0  0  0  0  0  0  0  0  0  0
   -1.5741   -1.5679    1.3259 N   0  0  0  0  0  0  0  0  0  0  0  0
   -1.8240   -2.8961    1.5021 C   0  0  0  0  0  0  0  0  0  0  0  0
   -1.8654   -3.7828    0.4763 N   0  0  0  0  0  0  0  0  0  0  0  0
   -1.6502   -3.3485   -0.7990 C   0  0  0  0  0  0  0  0  0  0  0  0
   -1.4013   -2.0011   -0.9379 C   0  0  0  0  0  0  0  0  0  0  0  0
   -3.6365    1.0319   -0.2895 C   0  0  0  0  0  0  0  0  0  0  0  0
   -4.2030    0.5470    0.8909 C   0  0  0  0  0  0  0  0  0  0  0  0
   -5.5762    0.3591    0.9904 C   0  0  0  0  0  0  0  0  0  0  0  0
   -6.3513    0.6652   -0.1077 C   0  0  0  0  0  0  0  0  0  0  0  0
   -8.0941    0.4492   -0.0419 Cl  0  0  0  0  0  0  0  0  0  0  0  0
   -5.8019    1.1457   -1.2817 C   0  0  0  0  0  0  0  0  0  0  0  0
   -4.4366    1.3368   -1.3920 C   0  0  0  0  0  0  0  0  0  0  0  0
    7.8895    1.1575    0.3161 H   0  0  0  0  0  0  0  0  0  0  0  0
    6.2192    0.4635    1.4176 H   0  0  0  0  0  0  0  0  0  0  0  0
    5.3715    2.0205    0.9105 H   0  0  0  0  0  0  0  0  0  0  0  0
    3.2146   -1.2799    1.5443 H   0  0  0  0  0  0  0  0  0  0  0  0
    3.9621    0.2402    2.0252 H   0  0  0  0  0  0  0  0  0  0  0  0
    1.2380   -0.1925    1.9008 H   0  0  0  0  0  0  0  0  0  0  0  0
    1.9815    1.4986    1.8310 H   0  0  0  0  0  0  0  0  0  0  0  0
    2.0457    1.3278   -0.5985 H   0  0  0  0  0  0  0  0  0  0  0  0
    1.0509   -0.6897   -1.7132 H   0  0  0  0  0  0  0  0  0  0  0  0
    1.3336   -1.5467   -0.0892 H   0  0  0  0  0  0  0  0  0  0  0  0
    3.4635   -1.8236   -1.2382 H   0  0  0  0  0  0  0  0  0  0  0  0
    3.2546   -0.2534   -2.0459 H   0  0  0  0  0  0  0  0  0  0  0  0
   -2.1442    3.3602   -0.5627 H   0  0  0  0  0  0  0  0  0  0  0  0
   -2.0070   -3.3212    2.4877 H   0  0  0  0  0  0  0  0  0  0  0  0
   -1.6629   -3.9817   -1.6875 H   0  0  0  0  0  0  0  0  0  0  0  0
   -1.2213   -1.6019   -1.9415 H   0  0  0  0  0  0  0  0  0  0  0  0
   -3.6371    0.2920    1.7757 H   0  0  0  0  0  0  0  0  0  0  0  0
   -6.0151   -0.0215    1.9186 H   0  0  0  0  0  0  0  0  0  0  0  0
   -6.3980    1.3969   -2.1686 H   0  0  0  0  0  0  0  0  0  0  0  0
   -3.9184    1.7072   -2.2684 H   0  0  0  0  0  0  0  0  0  0  0  0
  1  2  1  0
  2  3  1  0
  3  4  2  0
  3  5  1  0
  5  6  1  0
  6  7  1  0
  7  8  1  0
  8  9  1  0
  9 10  1  0
  8 11  1  0
 11 12  2  0
 12 13  1  0
 13 14  1  0
 14 15  2  0
 15 16  1  0
 16 17  2  0
 17 18  1  0
 18 19  2  0
 19 20  1  0
 20 21  2  0
 14 22  1  0
 22 23  2  0
 23 24  1  0
 24 25  2  0
 25 26  1  0
 25 27  1  0
 27 28  2  0
 10  5  1  0
 15 11  1  0
 21 16  1  0
 28 22  1  0
  1 29  1  0
  2 30  1  0
  2 31  1  0
  6 32  1  0
  6 33  1  0
  7 34  1  0
  7 35  1  0
  8 36  1  0
  9 37  1  0
  9 38  1  0
 10 39  1  0
 10 40  1  0
 13 41  1  0
 18 42  1  0
 20 43  1  0
 21 44  1  0
 23 45  1  0
 24 46  1  0
 27 47  1  0
 28 48  1  0
M  END
$$$$
