
     RDKit          3D

 63 67  0  0  0  0  0  0  0  0999 V2000
    0.3840   -0.6963   -1.3467 C   0  0  0  0  0  0  0  0  0  0  0  0
    0.1703   -1.1151    0.1146 C   0  0  2  0  0  0  0  0  0  0  0  0
    1.4503   -0.8624    0.8129 C   0  0  0  0  0  0  0  0  0  0  0  0
    2.5422   -0.3081    0.1867 C   0  0  0  0  0  0  0  0  0  0  0  0
    3.7481   -0.0734    0.8628 C   0  0  0  0  0  0  0  0  0  0  0  0
    4.8821    0.5312    0.1586 C   0  0  0  0  0  0  0  0  0  0  0  0
    6.0782    0.0432    0.3781 C   0  0  0  0  0  0  0  0  0  0  0  0
    6.2054   -0.9981    1.2454 F   0  0  0  0  0  0  0  0  0  0  0  0
    7.2453    0.5791   -0.2727 C   0  0  0  0  0  0  0  0  0  0  0  0
    7.2143    1.6155   -1.1527 C   0  0  0  0  0  0  0  0  0  0  0  0
    8.4043    2.0724   -1.7411 C   0  0  0  0  0  0  0  0  0  0  0  0
    9.5936    1.4737   -1.4279 C   0  0  0  0  0  0  0  0  0  0  0  0
   10.8135    1.9483   -2.0371 C   0  0  0  0  0  0  0  0  0  0  0  0
   11.7696    2.3364   -2.5227 N   0  0  0  0  0  0  0  0  0  0  0  0
    9.5989    0.4342   -0.5409 C   0  0  0  0  0  0  0  0  0  0  0  0
    8.4532    0.0312   -0.0060 N   0  0  0  0  0  0  0  0  0  0  0  0
    3.8578   -0.3989    2.1828 C   0  0  0  0  0  0  0  0  0  0  0  0
    2.7735   -0.9599    2.8425 C   0  0  0  0  0  0  0  0  0  0  0  0
    1.5858   -1.1806    2.1374 C   0  0  0  0  0  0  0  0  0  0  0  0
    0.5504   -1.7270    2.7923 F   0  0  0  0  0  0  0  0  0  0  0  0
   -0.0891   -2.5347    0.1975 N   0  0  0  0  0  0  0  0  0  0  0  0
   -1.1774   -3.0877   -0.1677 C   0  0  0  0  0  0  0  0  0  0  0  0
   -1.3575   -4.4713   -0.0588 N   0  0  0  0  0  0  0  0  0  0  0  0
   -2.4556   -2.0210   -0.8082 S   0  0  0  0  0  0  0  0  0  0  0  0
   -2.2694   -0.4595    0.1046 C   0  0  1  0  0  0  0  0  0  0  0  0
   -3.1090    0.6436   -0.3639 C   0  0  0  0  0  0  0  0  0  0  0  0
   -2.5592    1.4763   -1.1571 O   0  0  0  0  0  0  0  0  0  0  0  0
   -4.4671    0.8230    0.0133 N   0  0  0  0  0  0  0  0  0  0  0  0
   -5.1765    1.9510   -0.5133 C   0  0  0  0  0  0  0  0  0  0  0  0
   -6.5870    2.0588    0.0117 C   0  0  0  0  0  0  0  0  0  0  0  0
   -7.1911    0.6662   -0.1164 C   0  0  0  0  0  0  0  0  0  0  0  0
   -8.6750    0.7555    0.2617 C   0  0  0  0  0  0  0  0  0  0  0  0
   -9.2759   -0.4659    0.1667 F   0  0  0  0  0  0  0  0  0  0  0  0
   -9.3193    1.6961   -0.5052 F   0  0  0  0  0  0  0  0  0  0  0  0
   -8.7570    1.1548    1.5883 F   0  0  0  0  0  0  0  0  0  0  0  0
   -6.5325   -0.2025    0.9045 C   0  0  0  0  0  0  0  0  0  0  0  0
   -5.0456   -0.1555    0.9078 C   0  0  0  0  0  0  0  0  0  0  0  0
   -1.9747   -0.6352    1.5503 C   0  0  0  0  0  0  0  0  0  0  0  0
   -0.9149   -0.2325    0.6246 C   0  0  1  0  0  0  0  0  0  0  0  0
   -0.5646   -0.7708   -1.9317 H   0  0  0  0  0  0  0  0  0  0  0  0
    0.6089    0.3887   -1.3200 H   0  0  0  0  0  0  0  0  0  0  0  0
    1.2116   -1.2111   -1.8272 H   0  0  0  0  0  0  0  0  0  0  0  0
    2.5270   -0.0294   -0.8442 H   0  0  0  0  0  0  0  0  0  0  0  0
    4.7009    1.3752   -0.5326 H   0  0  0  0  0  0  0  0  0  0  0  0
    6.2985    2.1092   -1.4222 H   0  0  0  0  0  0  0  0  0  0  0  0
    8.3802    2.8870   -2.4328 H   0  0  0  0  0  0  0  0  0  0  0  0
   10.5533   -0.0327   -0.3015 H   0  0  0  0  0  0  0  0  0  0  0  0
    4.7649   -0.2370    2.7791 H   0  0  0  0  0  0  0  0  0  0  0  0
    2.8684   -1.2154    3.8880 H   0  0  0  0  0  0  0  0  0  0  0  0
   -0.5485   -5.1623   -0.0646 H   0  0  0  0  0  0  0  0  0  0  0  0
   -2.3011   -4.9369    0.0367 H   0  0  0  0  0  0  0  0  0  0  0  0
   -4.6776    2.9234   -0.3202 H   0  0  0  0  0  0  0  0  0  0  0  0
   -5.2560    1.8183   -1.6199 H   0  0  0  0  0  0  0  0  0  0  0  0
   -7.1629    2.6947   -0.7102 H   0  0  0  0  0  0  0  0  0  0  0  0
   -6.6431    2.4119    1.0415 H   0  0  0  0  0  0  0  0  0  0  0  0
   -7.0762    0.3184   -1.1486 H   0  0  0  0  0  0  0  0  0  0  0  0
   -6.8987    0.1525    1.9114 H   0  0  0  0  0  0  0  0  0  0  0  0
   -6.9179   -1.2561    0.8398 H   0  0  0  0  0  0  0  0  0  0  0  0
   -4.6691   -0.0834    1.9454 H   0  0  0  0  0  0  0  0  0  0  0  0
   -4.6857   -1.1641    0.5475 H   0  0  0  0  0  0  0  0  0  0  0  0
   -1.9785   -1.6568    1.9644 H   0  0  0  0  0  0  0  0  0  0  0  0
   -2.3202    0.1112    2.3161 H   0  0  0  0  0  0  0  0  0  0  0  0
   -0.6003    0.8607    0.5655 H   0  0  0  0  0  0  0  0  0  0  0  0
  2  1  1  6
  2  3  1  0
  3  4  2  0
  4  5  1  0
  5  6  1  0
  6  7  2  0
  7  8  1  0
  7  9  1  0
  9 10  2  0
 10 11  1  0
 11 12  2  0
 12 13  1  0
 13 14  3  0
 12 15  1  0
 15 16  2  0
  5 17  2  0
 17 18  1  0
 18 19  2  0
 19 20  1  0
  2 21  1  0
 21 22  2  0
 22 23  1  0
 22 24  1  0
 24 25  1  0
 25 26  1  1
 26 27  2  0
 26 28  1  0
 28 29  1  0
 29 30  1  0
 30 31  1  0
 31 32  1  0
 32 33  1  0
 32 34  1  0
 32 35  1  0
 31 36  1  0
 36 37  1  0
 25 38  1  0
 38 39  1  0
 39  2  1  0
 19  3  1  0
 39 25  1  0
 16  9  1  0
 37 28  1  0
  1 40  1  0
  1 41  1  0
  1 42  1  0
  4 43  1  0
  6 44  1  0
 10 45  1  0
 11 46  1  0
 15 47  1  0
 17 48  1  0
 18 49  1  0
 23 50  1  0
 23 51  1  0
 29 52  1  0
 29 53  1  0
 30 54  1  0
 30 55  1  0
 31 56  1  0
 36 57  1  0
 36 58  1  0
 37 59  1  0
 37 60  1  0
 38 61  1  0
 38 62  1  0
 39 63  1  1
M  END
$$$$
