@<TRIPOS>MOLECULE
*****
 63 67 0 0 0
SMALL
GASTEIGER

@<TRIPOS>ATOM
      1 C           0.3840   -0.6963   -1.3467 C.3     1  UNL1       -0.0351
      2 C           0.1703   -1.1151    0.1146 C.3     1  UNL1        0.0935
      3 C           1.4503   -0.8624    0.8129 C.ar    1  UNL1        0.0158
      4 C           2.5422   -0.3081    0.1867 C.ar    1  UNL1       -0.0463
      5 C           3.7481   -0.0734    0.8628 C.ar    1  UNL1       -0.0217
      6 C           4.8821    0.5312    0.1586 C.2     1  UNL1       -0.0172
      7 C           6.0782    0.0432    0.3781 C.2     1  UNL1        0.1492
      8 F           6.2054   -0.9981    1.2454 F       1  UNL1       -0.2032
      9 C           7.2453    0.5791   -0.2727 C.ar    1  UNL1        0.0990
     10 C           7.2143    1.6155   -1.1527 C.ar    1  UNL1       -0.0322
     11 C           8.4043    2.0724   -1.7411 C.ar    1  UNL1       -0.0408
     12 C           9.5936    1.4737   -1.4279 C.ar    1  UNL1        0.0699
     13 C          10.8135    1.9483   -2.0371 C.1     1  UNL1        0.1007
     14 N          11.7696    2.3364   -2.5227 N.1     1  UNL1       -0.1908
     15 C           9.5989    0.4342   -0.5409 C.ar    1  UNL1        0.0457
     16 N           8.4532    0.0312   -0.0060 N.ar    1  UNL1       -0.2514
     17 C           3.8578   -0.3989    2.1828 C.ar    1  UNL1       -0.0518
     18 C           2.7735   -0.9599    2.8425 C.ar    1  UNL1       -0.0255
     19 C           1.5858   -1.1806    2.1374 C.ar    1  UNL1        0.1289
     20 F           0.5504   -1.7270    2.7923 F       1  UNL1       -0.2051
     21 N          -0.0891   -2.5347    0.1975 N.2     1  UNL1       -0.2521
     22 C          -1.1774   -3.0877   -0.1677 C.2     1  UNL1        0.1485
     23 N          -1.3575   -4.4713   -0.0588 N.pl3   1  UNL1       -0.3380
     24 S          -2.4556   -2.0210   -0.8082 S.3     1  UNL1       -0.0746
     25 C          -2.2694   -0.4595    0.1046 C.3     1  UNL1        0.1054
     26 C          -3.1090    0.6436   -0.3639 C.2     1  UNL1        0.2324
     27 O          -2.5592    1.4763   -1.1571 O.2     1  UNL1       -0.2741
     28 N          -4.4671    0.8230    0.0133 N.am    1  UNL1       -0.3003
     29 C          -5.1765    1.9510   -0.5133 C.3     1  UNL1        0.0152
     30 C          -6.5870    2.0588    0.0117 C.3     1  UNL1       -0.0261
     31 C          -7.1911    0.6662   -0.1164 C.3     1  UNL1        0.0572
     32 C          -8.6750    0.7555    0.2617 C.3     1  UNL1        0.3930
     33 F          -9.2759   -0.4659    0.1667 F       1  UNL1       -0.1704
     34 F          -9.3193    1.6961   -0.5052 F       1  UNL1       -0.1704
     35 F          -8.7570    1.1548    1.5883 F       1  UNL1       -0.1704
     36 C          -6.5325   -0.2025    0.9045 C.3     1  UNL1       -0.0261
     37 C          -5.0456   -0.1555    0.9078 C.3     1  UNL1        0.0152
     38 C          -1.9747   -0.6352    1.5503 C.3     1  UNL1       -0.0220
     39 C          -0.9149   -0.2325    0.6246 C.3     1  UNL1        0.0134
     40 H          -0.5646   -0.7708   -1.9317 H       1  UNL1        0.0256
     41 H           0.6089    0.3887   -1.3200 H       1  UNL1        0.0256
     42 H           1.2116   -1.2111   -1.8272 H       1  UNL1        0.0256
     43 H           2.5270   -0.0294   -0.8442 H       1  UNL1        0.0628
     44 H           4.7009    1.3752   -0.5326 H       1  UNL1        0.0653
     45 H           6.2985    2.1092   -1.4222 H       1  UNL1        0.0640
     46 H           8.3802    2.8870   -2.4328 H       1  UNL1        0.0631
     47 H          10.5533   -0.0327   -0.3015 H       1  UNL1        0.0843
     48 H           4.7649   -0.2370    2.7791 H       1  UNL1        0.0624
     49 H           2.8684   -1.2154    3.8880 H       1  UNL1        0.0646
     50 H          -0.5485   -5.1623   -0.0646 H       1  UNL1        0.1442
     51 H          -2.3011   -4.9369    0.0367 H       1  UNL1        0.1442
     52 H          -4.6776    2.9234   -0.3202 H       1  UNL1        0.0465
     53 H          -5.2560    1.8183   -1.6199 H       1  UNL1        0.0465
     54 H          -7.1629    2.6947   -0.7102 H       1  UNL1        0.0286
     55 H          -6.6431    2.4119    1.0415 H       1  UNL1        0.0286
     56 H          -7.0762    0.3184   -1.1486 H       1  UNL1        0.0388
     57 H          -6.8987    0.1525    1.9114 H       1  UNL1        0.0286
     58 H          -6.9179   -1.2561    0.8398 H       1  UNL1        0.0286
     59 H          -4.6691   -0.0834    1.9454 H       1  UNL1        0.0465
     60 H          -4.6857   -1.1641    0.5475 H       1  UNL1        0.0465
     61 H          -1.9785   -1.6568    1.9644 H       1  UNL1        0.0287
     62 H          -2.3202    0.1112    2.3161 H       1  UNL1        0.0287
     63 H          -0.6003    0.8607    0.5655 H       1  UNL1        0.0346
@<TRIPOS>BOND
     1     2     1    1
     2     2     3    1
     3     3     4   ar
     4     4     5   ar
     5     5     6    1
     6     6     7    2
     7     7     8    1
     8     7     9    1
     9     9    10   ar
    10    10    11   ar
    11    11    12   ar
    12    12    13    1
    13    13    14    3
    14    12    15   ar
    15    15    16   ar
    16     5    17   ar
    17    17    18   ar
    18    18    19   ar
    19    19    20    1
    20     2    21    1
    21    21    22    2
    22    22    23    1
    23    22    24    1
    24    24    25    1
    25    25    26    1
    26    26    27    2
    27    26    28   am
    28    28    29    1
    29    29    30    1
    30    30    31    1
    31    31    32    1
    32    32    33    1
    33    32    34    1
    34    32    35    1
    35    31    36    1
    36    36    37    1
    37    25    38    1
    38    38    39    1
    39    39     2    1
    40    19     3   ar
    41    39    25    1
    42    16     9   ar
    43    37    28    1
    44     1    40    1
    45     1    41    1
    46     1    42    1
    47     4    43    1
    48     6    44    1
    49    10    45    1
    50    11    46    1
    51    15    47    1
    52    17    48    1
    53    18    49    1
    54    23    50    1
    55    23    51    1
    56    29    52    1
    57    29    53    1
    58    30    54    1
    59    30    55    1
    60    31    56    1
    61    36    57    1
    62    36    58    1
    63    37    59    1
    64    37    60    1
    65    38    61    1
    66    38    62    1
    67    39    63    1
