@<TRIPOS>MOLECULE
*****
 56 59 0 0 0
SMALL
GASTEIGER

@<TRIPOS>ATOM
      1 C           7.5281    1.3098   -0.2847 C.3     1  UNL1        0.0121
      2 C           6.3821    1.2526   -1.2153 C.2     1  UNL1        0.2099
      3 O           6.5825    1.5496   -2.4240 O.2     1  UNL1       -0.2761
      4 N           5.0817    0.8774   -0.7885 N.am    1  UNL1       -0.3152
      5 C           4.0240    0.8479   -1.7604 C.3     1  UNL1        0.0156
      6 C           2.6884    0.4285   -1.1587 C.3     1  UNL1       -0.0114
      7 C           2.8326   -0.9629   -0.6232 C.ar    1  UNL1       -0.0351
      8 C           3.9817   -1.6795   -0.8304 C.ar    1  UNL1       -0.0578
      9 C           4.1050   -2.9689   -0.3150 C.ar    1  UNL1       -0.0615
     10 C           3.0516   -3.4857    0.3945 C.ar    1  UNL1       -0.0611
     11 C           1.8691   -2.7691    0.6156 C.ar    1  UNL1       -0.0507
     12 C           1.7487   -1.5029    0.1091 C.ar    1  UNL1        0.0243
     13 C           0.5383   -0.7095    0.2627 C.ar    1  UNL1        0.1816
     14 O           0.3304    0.4697   -0.3170 O.2     1  UNL1       -0.3532
     15 N          -0.8082    0.9663   -0.0263 N.ar    1  UNL1       -0.0811
     16 C          -1.4884    0.1489    0.7953 C.ar    1  UNL1        0.1030
     17 C          -2.8369    0.2973    1.3967 C.3     1  UNL1        0.0250
     18 C          -2.6460    1.0220    2.7172 C.3     1  UNL1        0.0048
     19 N          -3.9215    1.4902    3.1795 N.3     1  UNL1       -0.3153
     20 C          -5.0083    0.7601    2.5692 C.3     1  UNL1       -0.0035
     21 C          -5.1497    1.0365    1.1086 C.3     1  UNL1       -0.0330
     22 C          -3.7579    1.1010    0.5003 C.3     1  UNL1       -0.0051
     23 C          -3.7593    0.5221   -0.8689 C.ar    1  UNL1       -0.0407
     24 C          -4.0971   -0.7827   -1.0355 C.ar    1  UNL1       -0.0554
     25 C          -4.0923   -1.3081   -2.3294 C.ar    1  UNL1       -0.0233
     26 C          -3.7560   -0.5325   -3.4115 C.ar    1  UNL1        0.1584
     27 F          -3.7407   -1.0053   -4.6709 F       1  UNL1       -0.2025
     28 C          -3.4227    0.7802   -3.1867 C.ar    1  UNL1        0.1587
     29 F          -3.0904    1.5486   -4.2470 F       1  UNL1       -0.2025
     30 C          -3.4118    1.3458   -1.9330 C.ar    1  UNL1       -0.0201
     31 C          -0.6009   -0.9351    0.9741 C.ar    1  UNL1        0.0880
     32 BR         -1.0253   -2.4126    2.0642 Br      1  UNL1       -0.0444
     33 H           8.4983    1.1843   -0.7749 H       1  UNL1        0.0322
     34 H           7.4111    0.4331    0.4114 H       1  UNL1        0.0322
     35 H           7.5102    2.2036    0.3657 H       1  UNL1        0.0322
     36 H           4.8899    0.6309    0.1889 H       1  UNL1        0.1487
     37 H           3.9255    1.8851   -2.2003 H       1  UNL1        0.0465
     38 H           4.2734    0.2105   -2.6319 H       1  UNL1        0.0465
     39 H           2.4613    1.1243   -0.3145 H       1  UNL1        0.0328
     40 H           1.9510    0.4791   -1.9799 H       1  UNL1        0.0328
     41 H           4.8218   -1.2970   -1.3982 H       1  UNL1        0.0620
     42 H           5.0136   -3.5332   -0.4793 H       1  UNL1        0.0618
     43 H           3.0783   -4.4841    0.8254 H       1  UNL1        0.0618
     44 H           1.0687   -3.2162    1.1731 H       1  UNL1        0.0625
     45 H          -3.2659   -0.7039    1.5532 H       1  UNL1        0.0384
     46 H          -2.1813    0.2926    3.4134 H       1  UNL1        0.0431
     47 H          -1.9043    1.8432    2.5987 H       1  UNL1        0.0431
     48 H          -4.0801    2.4977    3.0859 H       1  UNL1        0.1220
     49 H          -5.9302    1.0370    3.1477 H       1  UNL1        0.0424
     50 H          -4.8962   -0.3370    2.7223 H       1  UNL1        0.0424
     51 H          -5.6774    2.0026    0.9173 H       1  UNL1        0.0283
     52 H          -5.7613    0.2592    0.6161 H       1  UNL1        0.0283
     53 H          -3.4655    2.1668    0.4778 H       1  UNL1        0.0356
     54 H          -4.3663   -1.4145   -0.1946 H       1  UNL1        0.0621
     55 H          -4.3595   -2.3451   -2.4774 H       1  UNL1        0.0647
     56 H          -3.1458    2.3813   -1.7805 H       1  UNL1        0.0650
@<TRIPOS>BOND
     1     1     2    1
     2     2     3    2
     3     2     4   am
     4     4     5    1
     5     5     6    1
     6     6     7    1
     7     7     8   ar
     8     8     9   ar
     9     9    10   ar
    10    10    11   ar
    11    11    12   ar
    12    12    13    1
    13    13    14   ar
    14    14    15   ar
    15    15    16   ar
    16    16    17    1
    17    17    18    1
    18    18    19    1
    19    19    20    1
    20    20    21    1
    21    21    22    1
    22    22    23    1
    23    23    24   ar
    24    24    25   ar
    25    25    26   ar
    26    26    27    1
    27    26    28   ar
    28    28    29    1
    29    28    30   ar
    30    16    31   ar
    31    31    32    1
    32    12     7   ar
    33    31    13   ar
    34    22    17    1
    35    30    23   ar
    36     1    33    1
    37     1    34    1
    38     1    35    1
    39     4    36    1
    40     5    37    1
    41     5    38    1
    42     6    39    1
    43     6    40    1
    44     8    41    1
    45     9    42    1
    46    10    43    1
    47    11    44    1
    48    17    45    1
    49    18    46    1
    50    18    47    1
    51    19    48    1
    52    20    49    1
    53    20    50    1
    54    21    51    1
    55    21    52    1
    56    22    53    1
    57    24    54    1
    58    25    55    1
    59    30    56    1
