
     RDKit          3D

 56 59  0  0  0  0  0  0  0  0999 V2000
    7.5281    1.3098   -0.2847 C   0  0  0  0  0  0  0  0  0  0  0  0
    6.3821    1.2526   -1.2153 C   0  0  0  0  0  0  0  0  0  0  0  0
    6.5825    1.5496   -2.4240 O   0  0  0  0  0  0  0  0  0  0  0  0
    5.0817    0.8774   -0.7885 N   0  0  0  0  0  0  0  0  0  0  0  0
    4.0240    0.8479   -1.7604 C   0  0  0  0  0  0  0  0  0  0  0  0
    2.6884    0.4285   -1.1587 C   0  0  0  0  0  0  0  0  0  0  0  0
    2.8326   -0.9629   -0.6232 C   0  0  0  0  0  0  0  0  0  0  0  0
    3.9817   -1.6795   -0.8304 C   0  0  0  0  0  0  0  0  0  0  0  0
    4.1050   -2.9689   -0.3150 C   0  0  0  0  0  0  0  0  0  0  0  0
    3.0516   -3.4857    0.3945 C   0  0  0  0  0  0  0  0  0  0  0  0
    1.8691   -2.7691    0.6156 C   0  0  0  0  0  0  0  0  0  0  0  0
    1.7487   -1.5029    0.1091 C   0  0  0  0  0  0  0  0  0  0  0  0
    0.5383   -0.7095    0.2627 C   0  0  0  0  0  0  0  0  0  0  0  0
    0.3304    0.4697   -0.3170 O   0  0  0  0  0  0  0  0  0  0  0  0
   -0.8082    0.9663   -0.0263 N   0  0  0  0  0  0  0  0  0  0  0  0
   -1.4884    0.1489    0.7953 C   0  0  0  0  0  0  0  0  0  0  0  0
   -2.8369    0.2973    1.3967 C   0  0  1  0  0  0  0  0  0  0  0  0
   -2.6460    1.0220    2.7172 C   0  0  0  0  0  0  0  0  0  0  0  0
   -3.9215    1.4902    3.1795 N   0  0  0  0  0  0  0  0  0  0  0  0
   -5.0083    0.7601    2.5692 C   0  0  0  0  0  0  0  0  0  0  0  0
   -5.1497    1.0365    1.1086 C   0  0  0  0  0  0  0  0  0  0  0  0
   -3.7579    1.1010    0.5003 C   0  0  2  0  0  0  0  0  0  0  0  0
   -3.7593    0.5221   -0.8689 C   0  0  0  0  0  0  0  0  0  0  0  0
   -4.0971   -0.7827   -1.0355 C   0  0  0  0  0  0  0  0  0  0  0  0
   -4.0923   -1.3081   -2.3294 C   0  0  0  0  0  0  0  0  0  0  0  0
   -3.7560   -0.5325   -3.4115 C   0  0  0  0  0  0  0  0  0  0  0  0
   -3.7407   -1.0053   -4.6709 F   0  0  0  0  0  0  0  0  0  0  0  0
   -3.4227    0.7802   -3.1867 C   0  0  0  0  0  0  0  0  0  0  0  0
   -3.0904    1.5486   -4.2470 F   0  0  0  0  0  0  0  0  0  0  0  0
   -3.4118    1.3458   -1.9330 C   0  0  0  0  0  0  0  0  0  0  0  0
   -0.6009   -0.9351    0.9741 C   0  0  0  0  0  0  0  0  0  0  0  0
   -1.0253   -2.4126    2.0642 Br  0  0  0  0  0  0  0  0  0  0  0  0
    8.4983    1.1843   -0.7749 H   0  0  0  0  0  0  0  0  0  0  0  0
    7.4111    0.4331    0.4114 H   0  0  0  0  0  0  0  0  0  0  0  0
    7.5102    2.2036    0.3657 H   0  0  0  0  0  0  0  0  0  0  0  0
    4.8899    0.6309    0.1889 H   0  0  0  0  0  0  0  0  0  0  0  0
    3.9255    1.8851   -2.2003 H   0  0  0  0  0  0  0  0  0  0  0  0
    4.2734    0.2105   -2.6319 H   0  0  0  0  0  0  0  0  0  0  0  0
    2.4613    1.1243   -0.3145 H   0  0  0  0  0  0  0  0  0  0  0  0
    1.9510    0.4791   -1.9799 H   0  0  0  0  0  0  0  0  0  0  0  0
    4.8218   -1.2970   -1.3982 H   0  0  0  0  0  0  0  0  0  0  0  0
    5.0136   -3.5332   -0.4793 H   0  0  0  0  0  0  0  0  0  0  0  0
    3.0783   -4.4841    0.8254 H   0  0  0  0  0  0  0  0  0  0  0  0
    1.0687   -3.2162    1.1731 H   0  0  0  0  0  0  0  0  0  0  0  0
   -3.2659   -0.7039    1.5532 H   0  0  0  0  0  0  0  0  0  0  0  0
   -2.1813    0.2926    3.4134 H   0  0  0  0  0  0  0  0  0  0  0  0
   -1.9043    1.8432    2.5987 H   0  0  0  0  0  0  0  0  0  0  0  0
   -4.0801    2.4977    3.0859 H   0  0  0  0  0  0  0  0  0  0  0  0
   -5.9302    1.0370    3.1477 H   0  0  0  0  0  0  0  0  0  0  0  0
   -4.8962   -0.3370    2.7223 H   0  0  0  0  0  0  0  0  0  0  0  0
   -5.6774    2.0026    0.9173 H   0  0  0  0  0  0  0  0  0  0  0  0
   -5.7613    0.2592    0.6161 H   0  0  0  0  0  0  0  0  0  0  0  0
   -3.4655    2.1668    0.4778 H   0  0  0  0  0  0  0  0  0  0  0  0
   -4.3663   -1.4145   -0.1946 H   0  0  0  0  0  0  0  0  0  0  0  0
   -4.3595   -2.3451   -2.4774 H   0  0  0  0  0  0  0  0  0  0  0  0
   -3.1458    2.3813   -1.7805 H   0  0  0  0  0  0  0  0  0  0  0  0
  1  2  1  0
  2  3  2  0
  2  4  1  0
  4  5  1  0
  5  6  1  0
  6  7  1  0
  7  8  2  0
  8  9  1  0
  9 10  2  0
 10 11  1  0
 11 12  2  0
 12 13  1  0
 13 14  1  0
 14 15  1  0
 15 16  2  0
 16 17  1  0
 17 18  1  0
 18 19  1  0
 19 20  1  0
 20 21  1  0
 21 22  1  0
 22 23  1  0
 23 24  2  0
 24 25  1  0
 25 26  2  0
 26 27  1  0
 26 28  1  0
 28 29  1  0
 28 30  2  0
 16 31  1  0
 31 32  1  0
 12  7  1  0
 31 13  2  0
 22 17  1  0
 30 23  1  0
  1 33  1  0
  1 34  1  0
  1 35  1  0
  4 36  1  0
  5 37  1  0
  5 38  1  0
  6 39  1  0
  6 40  1  0
  8 41  1  0
  9 42  1  0
 10 43  1  0
 11 44  1  0
 17 45  1  1
 18 46  1  0
 18 47  1  0
 19 48  1  0
 20 49  1  0
 20 50  1  0
 21 51  1  0
 21 52  1  0
 22 53  1  6
 24 54  1  0
 25 55  1  0
 30 56  1  0
M  END
$$$$
