@<TRIPOS>MOLECULE
*****
 39 39 0 0 0
SMALL
GASTEIGER

@<TRIPOS>ATOM
      1 CA         -3.3606   -0.5952    0.2128 C.3     1  ALA1        0.1174
      2 CB         -3.7607   -2.0397    0.3772 C.3     1  ALA1       -0.0362
      3 N          -1.9592   -0.3886    0.0987 N.am    1  ALA1       -0.3023
      4 C          -1.2316    0.1343   -0.9976 C.2     0  UNK0        0.2175
      5 O          -1.9287    0.4629   -2.0169 O.2     0  UNK0       -0.2755
      6 C           0.2479    0.3027   -0.9940 C.3     0  UNK0        0.0478
      7 C           0.7032    1.2375    0.1186 C.3     0  UNK0        0.0373
      8 C           0.0723    2.5618   -0.0865 C.2     0  UNK0        0.2362
      9 O          -0.7263    2.9355   -1.0108 O.2     0  UNK0       -0.2737
     10 N           0.3241    3.6343    0.8124 N.am    0  UNK0       -0.1975
     11 O          -0.2139    4.8752    0.6944 O.3     0  UNK0       -0.2952
     12 C           0.8077   -1.0704   -0.7478 C.3     0  UNK0       -0.0161
     13 C           2.2660   -1.1603   -0.7006 C.ar    0  UNK0       -0.0466
     14 C           3.1309   -1.3971   -1.7587 C.ar    0  UNK0       -0.0586
     15 C           4.4789   -1.4616   -1.6051 C.ar    0  UNK0       -0.0615
     16 C           5.0488   -1.2925   -0.3776 C.ar    0  UNK0       -0.0617
     17 C           4.2741   -1.0544    0.7244 C.ar    0  UNK0       -0.0615
     18 C           2.9051   -0.9944    0.5354 C.ar    0  UNK0       -0.0586
     19 C          -4.0026    0.2176    1.2831 C.2     1  ALA1        0.3250
     20 O          -5.3846   -0.0046    1.3748 O.3     1  ALA1       -0.4793
     21 OXT        -3.5255    1.0623    2.1132 O.2     1  ALA1       -0.2489
     22 HA         -3.8474   -0.2647   -0.7515 H       1  ALA1        0.0611
     23 HB1        -4.6038   -2.1643    1.0634 H       1  ALA1        0.0253
     24 HB2        -2.8997   -2.6017    0.8133 H       1  ALA1        0.0253
     25 HB3        -3.9625   -2.5196   -0.6236 H       1  ALA1        0.0253
     26 H          -1.4035   -0.6665    0.9512 H       1  ALA1        0.1495
     27 H           0.5386    0.7638   -1.9367 H       0  UNK0        0.0402
     28 H           1.8099    1.3650   -0.0575 H       0  UNK0        0.0366
     29 H           0.4821    0.7793    1.0899 H       0  UNK0        0.0366
     30 H           0.9530    3.5378    1.6412 H       0  UNK0        0.1822
     31 H          -0.9484    4.9014    0.0126 H       0  UNK0        0.2414
     32 H           0.4288   -1.7972   -1.4752 H       0  UNK0        0.0321
     33 H           0.4006   -1.3871    0.2481 H       0  UNK0        0.0321
     34 H           2.6612   -1.5281   -2.7213 H       0  UNK0        0.0620
     35 H           5.1079   -1.6528   -2.4867 H       0  UNK0        0.0618
     36 H           6.1228   -1.3350   -0.2024 H       0  UNK0        0.0618
     37 H           4.6581   -0.9113    1.7241 H       0  UNK0        0.0618
     38 H           2.2781   -0.8034    1.4168 H       0  UNK0        0.0620
     39 H          -5.9410    0.3190    2.1773 H       1  ALA1        0.2951
@<TRIPOS>BOND
     1     1     2    1
     2     1     3    1
     3     3     4   am
     4     4     5    2
     5     4     6    1
     6     6     7    1
     7     7     8    1
     8     8     9    2
     9     8    10   am
    10    10    11    1
    11     6    12    1
    12    12    13    1
    13    13    14   ar
    14    14    15   ar
    15    15    16   ar
    16    16    17   ar
    17    17    18   ar
    18     1    19    1
    19    19    20    1
    20    19    21    2
    21    18    13   ar
    22     1    22    1
    23     2    23    1
    24     2    24    1
    25     2    25    1
    26     3    26    1
    27     6    27    1
    28     7    28    1
    29     7    29    1
    30    10    30    1
    31    11    31    1
    32    12    32    1
    33    12    33    1
    34    14    34    1
    35    15    35    1
    36    16    36    1
    37    17    37    1
    38    18    38    1
    39    20    39    1
