
     RDKit          3D

 39 39  0  0  0  0  0  0  0  0999 V2000
   -3.3606   -0.5952    0.2128 C   0  0  2  0  0  0  0  0  0  0  0  0
   -3.7607   -2.0397    0.3772 C   0  0  0  0  0  0  0  0  0  0  0  0
   -1.9592   -0.3886    0.0987 N   0  0  0  0  0  0  0  0  0  0  0  0
   -1.2316    0.1343   -0.9976 C   0  0  0  0  0  0  0  0  0  0  0  0
   -1.9287    0.4629   -2.0169 O   0  0  0  0  0  0  0  0  0  0  0  0
    0.2479    0.3027   -0.9940 C   0  0  1  0  0  0  0  0  0  0  0  0
    0.7032    1.2375    0.1186 C   0  0  0  0  0  0  0  0  0  0  0  0
    0.0723    2.5618   -0.0865 C   0  0  0  0  0  0  0  0  0  0  0  0
   -0.7263    2.9355   -1.0108 O   0  0  0  0  0  0  0  0  0  0  0  0
    0.3241    3.6343    0.8124 N   0  0  0  0  0  0  0  0  0  0  0  0
   -0.2139    4.8752    0.6944 O   0  0  0  0  0  0  0  0  0  0  0  0
    0.8077   -1.0704   -0.7478 C   0  0  0  0  0  0  0  0  0  0  0  0
    2.2660   -1.1603   -0.7006 C   0  0  0  0  0  0  0  0  0  0  0  0
    3.1309   -1.3971   -1.7587 C   0  0  0  0  0  0  0  0  0  0  0  0
    4.4789   -1.4616   -1.6051 C   0  0  0  0  0  0  0  0  0  0  0  0
    5.0488   -1.2925   -0.3776 C   0  0  0  0  0  0  0  0  0  0  0  0
    4.2741   -1.0544    0.7244 C   0  0  0  0  0  0  0  0  0  0  0  0
    2.9051   -0.9944    0.5354 C   0  0  0  0  0  0  0  0  0  0  0  0
   -4.0026    0.2176    1.2831 C   0  0  0  0  0  0  0  0  0  0  0  0
   -5.3846   -0.0046    1.3748 O   0  0  0  0  0  0  0  0  0  0  0  0
   -3.5255    1.0623    2.1132 O   0  0  0  0  0  0  0  0  0  0  0  0
   -3.8474   -0.2647   -0.7515 H   0  0  0  0  0  0  0  0  0  0  0  0
   -4.6038   -2.1643    1.0634 H   0  0  0  0  0  0  0  0  0  0  0  0
   -2.8997   -2.6017    0.8133 H   0  0  0  0  0  0  0  0  0  0  0  0
   -3.9625   -2.5196   -0.6236 H   0  0  0  0  0  0  0  0  0  0  0  0
   -1.4035   -0.6665    0.9512 H   0  0  0  0  0  0  0  0  0  0  0  0
    0.5386    0.7638   -1.9367 H   0  0  0  0  0  0  0  0  0  0  0  0
    1.8099    1.3650   -0.0575 H   0  0  0  0  0  0  0  0  0  0  0  0
    0.4821    0.7793    1.0899 H   0  0  0  0  0  0  0  0  0  0  0  0
    0.9530    3.5378    1.6412 H   0  0  0  0  0  0  0  0  0  0  0  0
   -0.9484    4.9014    0.0126 H   0  0  0  0  0  0  0  0  0  0  0  0
    0.4288   -1.7972   -1.4752 H   0  0  0  0  0  0  0  0  0  0  0  0
    0.4006   -1.3871    0.2481 H   0  0  0  0  0  0  0  0  0  0  0  0
    2.6612   -1.5281   -2.7213 H   0  0  0  0  0  0  0  0  0  0  0  0
    5.1079   -1.6528   -2.4867 H   0  0  0  0  0  0  0  0  0  0  0  0
    6.1228   -1.3350   -0.2024 H   0  0  0  0  0  0  0  0  0  0  0  0
    4.6581   -0.9113    1.7241 H   0  0  0  0  0  0  0  0  0  0  0  0
    2.2781   -0.8034    1.4168 H   0  0  0  0  0  0  0  0  0  0  0  0
   -5.9410    0.3190    2.1773 H   0  0  0  0  0  0  0  0  0  0  0  0
  1  2  1  0
  1  3  1  0
  3  4  1  0
  4  5  2  0
  4  6  1  0
  6  7  1  0
  7  8  1  0
  8  9  2  0
  8 10  1  0
 10 11  1  0
  6 12  1  0
 12 13  1  0
 13 14  2  0
 14 15  1  0
 15 16  2  0
 16 17  1  0
 17 18  2  0
  1 19  1  0
 19 20  1  0
 19 21  2  0
 18 13  1  0
  1 22  1  6
  2 23  1  0
  2 24  1  0
  2 25  1  0
  3 26  1  0
  6 27  1  6
  7 28  1  0
  7 29  1  0
 10 30  1  0
 11 31  1  0
 12 32  1  0
 12 33  1  0
 14 34  1  0
 15 35  1  0
 16 36  1  0
 17 37  1  0
 18 38  1  0
 20 39  1  0
M  END
$$$$
