
     RDKit          3D

 36 39  0  0  0  0  0  0  0  0999 V2000
   -1.2220   -2.5452    0.4792 O   0  0  0  0  0  0  0  0  0  0  0  0
   -0.1855   -1.9396    0.1401 C   0  0  0  0  0  0  0  0  0  0  0  0
    1.1438   -2.4196    0.2078 N   0  0  0  0  0  0  0  0  0  0  0  0
    2.0061   -1.3902   -0.2805 C   0  0  0  0  0  0  0  0  0  0  0  0
    3.4183   -1.4317   -0.4045 N   0  0  0  0  0  0  0  0  0  0  0  0
    4.2277   -0.3032   -0.1495 C   0  0  0  0  0  0  0  0  0  0  0  0
    3.7175    0.8414    0.3953 C   0  0  0  0  0  0  0  0  0  0  0  0
    4.5110    1.9600    0.6328 C   0  0  0  0  0  0  0  0  0  0  0  0
    5.8490    1.9110    0.3089 C   0  0  0  0  0  0  0  0  0  0  0  0
    6.4004    0.7669   -0.2450 C   0  0  0  0  0  0  0  0  0  0  0  0
    5.5894   -0.3135   -0.4642 C   0  0  0  0  0  0  0  0  0  0  0  0
    1.2927   -0.3867   -0.6129 N   0  0  0  0  0  0  0  0  0  0  0  0
   -0.0958   -0.5979   -0.4011 C   0  0  0  0  0  0  0  0  0  0  0  0
   -1.0141    0.2977   -0.6935 C   0  0  0  0  0  0  0  0  0  0  0  0
   -2.4449    0.1353   -0.5330 C   0  0  0  0  0  0  0  0  0  0  0  0
   -3.1263   -0.9419   -1.0343 C   0  0  0  0  0  0  0  0  0  0  0  0
   -4.5032   -1.1085   -0.8500 C   0  0  0  0  0  0  0  0  0  0  0  0
   -5.2180   -0.1580   -0.1376 C   0  0  0  0  0  0  0  0  0  0  0  0
   -4.5572    0.9314    0.3741 C   0  0  0  0  0  0  0  0  0  0  0  0
   -3.1929    1.0799    0.1817 C   0  0  0  0  0  0  0  0  0  0  0  0
   -5.5128    1.7040    1.0303 O   0  0  0  0  0  0  0  0  0  0  0  0
   -6.7827    1.2099    0.7298 C   0  0  0  0  0  0  0  0  0  0  0  0
   -6.5748   -0.0787    0.1890 O   0  0  0  0  0  0  0  0  0  0  0  0
    1.4736   -3.3390    0.5405 H   0  0  0  0  0  0  0  0  0  0  0  0
    3.8527   -2.3576   -0.6949 H   0  0  0  0  0  0  0  0  0  0  0  0
    2.6857    0.9448    0.6758 H   0  0  0  0  0  0  0  0  0  0  0  0
    4.0751    2.8550    1.0672 H   0  0  0  0  0  0  0  0  0  0  0  0
    6.4609    2.7787    0.4932 H   0  0  0  0  0  0  0  0  0  0  0  0
    7.4689    0.7221   -0.5063 H   0  0  0  0  0  0  0  0  0  0  0  0
    5.9596   -1.2363   -0.8947 H   0  0  0  0  0  0  0  0  0  0  0  0
   -0.7096    1.2703   -1.0995 H   0  0  0  0  0  0  0  0  0  0  0  0
   -2.5922   -1.6957   -1.6176 H   0  0  0  0  0  0  0  0  0  0  0  0
   -5.0193   -1.9826   -1.2646 H   0  0  0  0  0  0  0  0  0  0  0  0
   -2.6641    1.9354    0.5821 H   0  0  0  0  0  0  0  0  0  0  0  0
   -7.3826    1.0561    1.6691 H   0  0  0  0  0  0  0  0  0  0  0  0
   -7.3344    1.8259   -0.0044 H   0  0  0  0  0  0  0  0  0  0  0  0
  1  2  2  0
  2  3  1  0
  3  4  1  0
  4  5  1  0
  5  6  1  0
  6  7  2  0
  7  8  1  0
  8  9  2  0
  9 10  1  0
 10 11  2  0
  4 12  2  0
 12 13  1  0
 13 14  2  3
 14 15  1  0
 15 16  2  0
 16 17  1  0
 17 18  2  0
 18 19  1  0
 19 20  2  0
 19 21  1  0
 21 22  1  0
 22 23  1  0
 13  2  1  0
 20 15  1  0
 11  6  1  0
 23 18  1  0
  3 24  1  0
  5 25  1  0
  7 26  1  0
  8 27  1  0
  9 28  1  0
 10 29  1  0
 11 30  1  0
 14 31  1  0
 16 32  1  0
 17 33  1  0
 20 34  1  0
 22 35  1  0
 22 36  1  0
M  END
$$$$
