@<TRIPOS>MOLECULE
*****
 36 39 0 0 0
SMALL
GASTEIGER

@<TRIPOS>ATOM
      1 O          -1.2220   -2.5452    0.4792 O.2     1  UNL1       -0.2483
      2 C          -0.1855   -1.9396    0.1401 C.2     1  UNL1        0.3414
      3 N           1.1438   -2.4196    0.2078 N.am    1  UNL1       -0.1692
      4 C           2.0061   -1.3902   -0.2805 C.2     1  UNL1        0.3822
      5 N           3.4183   -1.4317   -0.4045 N.pl3   1  UNL1       -0.2056
      6 C           4.2277   -0.3032   -0.1495 C.ar    1  UNL1        0.0916
      7 C           3.7175    0.8414    0.3953 C.ar    1  UNL1       -0.0252
      8 C           4.5110    1.9600    0.6328 C.ar    1  UNL1       -0.0587
      9 C           5.8490    1.9110    0.3089 C.ar    1  UNL1       -0.0616
     10 C           6.4004    0.7669   -0.2450 C.ar    1  UNL1       -0.0587
     11 C           5.5894   -0.3135   -0.4642 C.ar    1  UNL1       -0.0252
     12 N           1.2927   -0.3867   -0.6129 N.2     1  UNL1       -0.0693
     13 C          -0.0958   -0.5979   -0.4011 C.2     1  UNL1        0.2196
     14 C          -1.0141    0.2977   -0.6935 C.2     1  UNL1       -0.0056
     15 C          -2.4449    0.1353   -0.5330 C.ar    1  UNL1       -0.0178
     16 C          -3.1263   -0.9419   -1.0343 C.ar    1  UNL1       -0.0508
     17 C          -4.5032   -1.1085   -0.8500 C.ar    1  UNL1       -0.0156
     18 C          -5.2180   -0.1580   -0.1376 C.ar    1  UNL1        0.1663
     19 C          -4.5572    0.9314    0.3741 C.ar    1  UNL1        0.1668
     20 C          -3.1929    1.0799    0.1817 C.ar    1  UNL1       -0.0089
     21 O          -5.5128    1.7040    1.0303 O.3     1  UNL1       -0.4526
     22 C          -6.7827    1.2099    0.7298 C.3     1  UNL1        0.2332
     23 O          -6.5748   -0.0787    0.1890 O.3     1  UNL1       -0.4526
     24 H           1.4736   -3.3390    0.5405 H       1  UNL1        0.2544
     25 H           3.8527   -2.3576   -0.6949 H       1  UNL1        0.2512
     26 H           2.6857    0.9448    0.6758 H       1  UNL1        0.0650
     27 H           4.0751    2.8550    1.0672 H       1  UNL1        0.0619
     28 H           6.4609    2.7787    0.4932 H       1  UNL1        0.0618
     29 H           7.4689    0.7221   -0.5063 H       1  UNL1        0.0619
     30 H           5.9596   -1.2363   -0.8947 H       1  UNL1        0.0650
     31 H          -0.7096    1.2703   -1.0995 H       1  UNL1        0.0661
     32 H          -2.5922   -1.6957   -1.6176 H       1  UNL1        0.0625
     33 H          -5.0193   -1.9826   -1.2646 H       1  UNL1        0.0655
     34 H          -2.6641    1.9354    0.5821 H       1  UNL1        0.0661
     35 H          -7.3826    1.0561    1.6691 H       1  UNL1        0.1166
     36 H          -7.3344    1.8259   -0.0044 H       1  UNL1        0.1166
@<TRIPOS>BOND
     1     1     2    2
     2     2     3   am
     3     3     4    1
     4     4     5    1
     5     5     6    1
     6     6     7   ar
     7     7     8   ar
     8     8     9   ar
     9     9    10   ar
    10    10    11   ar
    11     4    12    2
    12    12    13    1
    13    13    14    2
    14    14    15    1
    15    15    16   ar
    16    16    17   ar
    17    17    18   ar
    18    18    19   ar
    19    19    20   ar
    20    19    21    1
    21    21    22    1
    22    22    23    1
    23    13     2    1
    24    20    15   ar
    25    11     6   ar
    26    23    18    1
    27     3    24    1
    28     5    25    1
    29     7    26    1
    30     8    27    1
    31     9    28    1
    32    10    29    1
    33    11    30    1
    34    14    31    1
    35    16    32    1
    36    17    33    1
    37    20    34    1
    38    22    35    1
    39    22    36    1
