@<TRIPOS>MOLECULE
*****
 62 65 0 0 0
SMALL
GASTEIGER

@<TRIPOS>ATOM
      1 C          -9.6294   -1.9431   -1.2959 C.3     1  UNL1       -0.0130
      2 N          -9.7652   -0.6283   -0.8430 N.3     1  UNL1       -0.3079
      3 C         -10.8278   -0.4235    0.1088 C.3     1  UNL1       -0.0130
      4 C          -9.2517    0.4895   -1.4735 C.3     1  UNL1        0.0066
      5 C          -7.8126    0.7803   -1.4829 C.3     1  UNL1        0.0369
      6 C          -6.9670   -0.1937   -2.1440 C.2     1  UNL1        0.2168
      7 O          -7.3469   -1.2234   -2.7069 O.2     1  UNL1       -0.2756
      8 N          -5.5497    0.0399   -2.1596 N.am    1  UNL1       -0.2990
      9 C          -4.7034    1.0769   -1.6615 C.3     1  UNL1        0.0298
     10 C          -3.6763    0.7286   -2.7568 C.3     1  UNL1        0.0524
     11 C          -2.2973    0.8091   -2.2765 C.1     1  UNL1       -0.0905
     12 C          -1.1408    0.8552   -1.8751 C.1     1  UNL1       -0.0658
     13 C           0.2105    0.9284   -1.3895 C.ar    1  UNL1        0.0285
     14 C           1.2081    1.6716   -1.9590 C.ar    1  UNL1       -0.0454
     15 C           2.5046    1.6938   -1.4972 C.ar    1  UNL1       -0.0462
     16 C           2.7905    0.9047   -0.3825 C.ar    1  UNL1        0.0646
     17 C           4.0581    0.8564    0.1501 C.ar    1  UNL1        0.2001
     18 O           4.9331    1.5674   -0.4296 O.2     1  UNL1       -0.2864
     19 C           4.3173    0.0731    1.2427 C.ar    1  UNL1        0.0643
     20 C           5.6603    0.0287    1.7819 C.ar    1  UNL1       -0.0112
     21 C           6.2893   -1.1615    2.1359 C.ar    1  UNL1       -0.0520
     22 C           7.5827   -1.1472    2.6432 C.ar    1  UNL1       -0.0388
     23 C           8.2829    0.0093    2.8155 C.ar    1  UNL1        0.0477
     24 N           9.6077   -0.0135    3.3342 N.pl3   1  UNL1       -0.2209
     25 S          10.7541   -1.1501    2.7571 S.O2    1  UNL1        0.0403
     26 C          11.0491   -0.9225    1.0054 C.3     1  UNL1        0.0736
     27 O          12.0556   -0.9260    3.4916 O.2     1  UNL1       -0.1555
     28 O          10.3272   -2.5712    2.9649 O.2     1  UNL1       -0.1555
     29 C           7.6745    1.2106    2.4688 C.ar    1  UNL1       -0.0388
     30 C           6.4007    1.1797    1.9703 C.ar    1  UNL1       -0.0520
     31 C           3.3283   -0.6687    1.8200 C.ar    1  UNL1        0.1038
     32 O           2.1246   -0.5949    1.2779 O.2     1  UNL1       -0.4621
     33 C           1.8161    0.1291    0.2400 C.ar    1  UNL1        0.1396
     34 C           0.5495    0.1560   -0.2735 C.ar    1  UNL1       -0.0032
     35 C          -4.3393   -0.6166   -2.6559 C.3     1  UNL1        0.0298
     36 H         -10.5362   -2.5422   -0.8801 H       1  UNL1        0.0391
     37 H          -8.7829   -2.5473   -0.9270 H       1  UNL1        0.0391
     38 H          -9.8099   -2.0206   -2.3943 H       1  UNL1        0.0391
     39 H         -11.7889   -0.5759   -0.4564 H       1  UNL1        0.0391
     40 H         -10.8430    0.5685    0.5692 H       1  UNL1        0.0391
     41 H         -10.8385   -1.2330    0.8944 H       1  UNL1        0.0391
     42 H          -9.6095    0.4782   -2.5584 H       1  UNL1        0.0431
     43 H          -9.7789    1.4041   -1.0503 H       1  UNL1        0.0431
     44 H          -7.4361    1.0420   -0.4478 H       1  UNL1        0.0371
     45 H          -7.6960    1.7805   -2.0295 H       1  UNL1        0.0371
     46 H          -4.2549    0.7923   -0.6796 H       1  UNL1        0.0477
     47 H          -5.1035    2.1112   -1.7251 H       1  UNL1        0.0477
     48 H          -3.8283    1.2819   -3.7068 H       1  UNL1        0.0464
     49 H           0.9352    2.2795   -2.8364 H       1  UNL1        0.0630
     50 H           3.2720    2.2930   -1.9703 H       1  UNL1        0.0626
     51 H           5.7452   -2.0774    2.0035 H       1  UNL1        0.0624
     52 H           8.0625   -2.1008    2.9167 H       1  UNL1        0.0637
     53 H           9.8541    0.6723    4.0659 H       1  UNL1        0.1733
     54 H          10.0995   -1.1671    0.4720 H       1  UNL1        0.0482
     55 H          11.7983   -1.6552    0.7154 H       1  UNL1        0.0482
     56 H          11.3560    0.1305    0.7913 H       1  UNL1        0.0482
     57 H           8.2242    2.1230    2.6038 H       1  UNL1        0.0637
     58 H           5.8792    2.1098    1.6807 H       1  UNL1        0.0624
     59 H           3.4204   -1.3099    2.6725 H       1  UNL1        0.1037
     60 H          -0.2092   -0.4450    0.2090 H       1  UNL1        0.0667
     61 H          -4.4859   -1.1357   -3.6280 H       1  UNL1        0.0477
     62 H          -3.8626   -1.2607   -1.8970 H       1  UNL1        0.0477
@<TRIPOS>BOND
     1     1     2    1
     2     2     3    1
     3     2     4    1
     4     4     5    1
     5     5     6    1
     6     6     7    2
     7     6     8   am
     8     8     9    1
     9     9    10    1
    10    10    11    1
    11    11    12    3
    12    12    13    1
    13    13    14   ar
    14    14    15   ar
    15    15    16   ar
    16    16    17   ar
    17    17    18    2
    18    17    19   ar
    19    19    20    1
    20    20    21   ar
    21    21    22   ar
    22    22    23   ar
    23    23    24    1
    24    24    25    1
    25    25    26    1
    26    25    27    2
    27    25    28    2
    28    23    29   ar
    29    29    30   ar
    30    19    31   ar
    31    31    32   ar
    32    32    33   ar
    33    33    34   ar
    34    10    35    1
    35    35     8    1
    36    34    13   ar
    37    33    16   ar
    38    30    20   ar
    39     1    36    1
    40     1    37    1
    41     1    38    1
    42     3    39    1
    43     3    40    1
    44     3    41    1
    45     4    42    1
    46     4    43    1
    47     5    44    1
    48     5    45    1
    49     9    46    1
    50     9    47    1
    51    10    48    1
    52    14    49    1
    53    15    50    1
    54    21    51    1
    55    22    52    1
    56    24    53    1
    57    26    54    1
    58    26    55    1
    59    26    56    1
    60    29    57    1
    61    30    58    1
    62    31    59    1
    63    34    60    1
    64    35    61    1
    65    35    62    1
