
     RDKit          3D

 62 65  0  0  0  0  0  0  0  0999 V2000
   -9.6294   -1.9431   -1.2959 C   0  0  0  0  0  0  0  0  0  0  0  0
   -9.7652   -0.6283   -0.8430 N   0  0  0  0  0  0  0  0  0  0  0  0
  -10.8278   -0.4235    0.1088 C   0  0  0  0  0  0  0  0  0  0  0  0
   -9.2517    0.4895   -1.4735 C   0  0  0  0  0  0  0  0  0  0  0  0
   -7.8126    0.7803   -1.4829 C   0  0  0  0  0  0  0  0  0  0  0  0
   -6.9670   -0.1937   -2.1440 C   0  0  0  0  0  0  0  0  0  0  0  0
   -7.3469   -1.2234   -2.7069 O   0  0  0  0  0  0  0  0  0  0  0  0
   -5.5497    0.0399   -2.1596 N   0  0  0  0  0  0  0  0  0  0  0  0
   -4.7034    1.0769   -1.6615 C   0  0  0  0  0  0  0  0  0  0  0  0
   -3.6763    0.7286   -2.7568 C   0  0  0  0  0  0  0  0  0  0  0  0
   -2.2973    0.8091   -2.2765 C   0  0  0  0  0  0  0  0  0  0  0  0
   -1.1408    0.8552   -1.8751 C   0  0  0  0  0  0  0  0  0  0  0  0
    0.2105    0.9284   -1.3895 C   0  0  0  0  0  0  0  0  0  0  0  0
    1.2081    1.6716   -1.9590 C   0  0  0  0  0  0  0  0  0  0  0  0
    2.5046    1.6938   -1.4972 C   0  0  0  0  0  0  0  0  0  0  0  0
    2.7905    0.9047   -0.3825 C   0  0  0  0  0  0  0  0  0  0  0  0
    4.0581    0.8564    0.1501 C   0  0  0  0  0  0  0  0  0  0  0  0
    4.9331    1.5674   -0.4296 O   0  0  0  0  0  0  0  0  0  0  0  0
    4.3173    0.0731    1.2427 C   0  0  0  0  0  0  0  0  0  0  0  0
    5.6603    0.0287    1.7819 C   0  0  0  0  0  0  0  0  0  0  0  0
    6.2893   -1.1615    2.1359 C   0  0  0  0  0  0  0  0  0  0  0  0
    7.5827   -1.1472    2.6432 C   0  0  0  0  0  0  0  0  0  0  0  0
    8.2829    0.0093    2.8155 C   0  0  0  0  0  0  0  0  0  0  0  0
    9.6077   -0.0135    3.3342 N   0  0  0  0  0  0  0  0  0  0  0  0
   10.7541   -1.1501    2.7571 S   0  0  0  0  0  6  0  0  0  0  0  0
   11.0491   -0.9225    1.0054 C   0  0  0  0  0  0  0  0  0  0  0  0
   12.0556   -0.9260    3.4916 O   0  0  0  0  0  0  0  0  0  0  0  0
   10.3272   -2.5712    2.9649 O   0  0  0  0  0  0  0  0  0  0  0  0
    7.6745    1.2106    2.4688 C   0  0  0  0  0  0  0  0  0  0  0  0
    6.4007    1.1797    1.9703 C   0  0  0  0  0  0  0  0  0  0  0  0
    3.3283   -0.6687    1.8200 C   0  0  0  0  0  0  0  0  0  0  0  0
    2.1246   -0.5949    1.2779 O   0  0  0  0  0  0  0  0  0  0  0  0
    1.8161    0.1291    0.2400 C   0  0  0  0  0  0  0  0  0  0  0  0
    0.5495    0.1560   -0.2735 C   0  0  0  0  0  0  0  0  0  0  0  0
   -4.3393   -0.6166   -2.6559 C   0  0  0  0  0  0  0  0  0  0  0  0
  -10.5362   -2.5422   -0.8801 H   0  0  0  0  0  0  0  0  0  0  0  0
   -8.7829   -2.5473   -0.9270 H   0  0  0  0  0  0  0  0  0  0  0  0
   -9.8099   -2.0206   -2.3943 H   0  0  0  0  0  0  0  0  0  0  0  0
  -11.7889   -0.5759   -0.4564 H   0  0  0  0  0  0  0  0  0  0  0  0
  -10.8430    0.5685    0.5692 H   0  0  0  0  0  0  0  0  0  0  0  0
  -10.8385   -1.2330    0.8944 H   0  0  0  0  0  0  0  0  0  0  0  0
   -9.6095    0.4782   -2.5584 H   0  0  0  0  0  0  0  0  0  0  0  0
   -9.7789    1.4041   -1.0503 H   0  0  0  0  0  0  0  0  0  0  0  0
   -7.4361    1.0420   -0.4478 H   0  0  0  0  0  0  0  0  0  0  0  0
   -7.6960    1.7805   -2.0295 H   0  0  0  0  0  0  0  0  0  0  0  0
   -4.2549    0.7923   -0.6796 H   0  0  0  0  0  0  0  0  0  0  0  0
   -5.1035    2.1112   -1.7251 H   0  0  0  0  0  0  0  0  0  0  0  0
   -3.8283    1.2819   -3.7068 H   0  0  0  0  0  0  0  0  0  0  0  0
    0.9352    2.2795   -2.8364 H   0  0  0  0  0  0  0  0  0  0  0  0
    3.2720    2.2930   -1.9703 H   0  0  0  0  0  0  0  0  0  0  0  0
    5.7452   -2.0774    2.0035 H   0  0  0  0  0  0  0  0  0  0  0  0
    8.0625   -2.1008    2.9167 H   0  0  0  0  0  0  0  0  0  0  0  0
    9.8541    0.6723    4.0659 H   0  0  0  0  0  0  0  0  0  0  0  0
   10.0995   -1.1671    0.4720 H   0  0  0  0  0  0  0  0  0  0  0  0
   11.7983   -1.6552    0.7154 H   0  0  0  0  0  0  0  0  0  0  0  0
   11.3560    0.1305    0.7913 H   0  0  0  0  0  0  0  0  0  0  0  0
    8.2242    2.1230    2.6038 H   0  0  0  0  0  0  0  0  0  0  0  0
    5.8792    2.1098    1.6807 H   0  0  0  0  0  0  0  0  0  0  0  0
    3.4204   -1.3099    2.6725 H   0  0  0  0  0  0  0  0  0  0  0  0
   -0.2092   -0.4450    0.2090 H   0  0  0  0  0  0  0  0  0  0  0  0
   -4.4859   -1.1357   -3.6280 H   0  0  0  0  0  0  0  0  0  0  0  0
   -3.8626   -1.2607   -1.8970 H   0  0  0  0  0  0  0  0  0  0  0  0
  1  2  1  0
  2  3  1  0
  2  4  1  0
  4  5  1  0
  5  6  1  0
  6  7  2  0
  6  8  1  0
  8  9  1  0
  9 10  1  0
 10 11  1  0
 11 12  3  0
 12 13  1  0
 13 14  2  0
 14 15  1  0
 15 16  2  0
 16 17  1  0
 17 18  2  0
 17 19  1  0
 19 20  1  0
 20 21  2  0
 21 22  1  0
 22 23  2  0
 23 24  1  0
 24 25  1  0
 25 26  1  0
 25 27  2  0
 25 28  2  0
 23 29  1  0
 29 30  2  0
 19 31  2  0
 31 32  1  0
 32 33  1  0
 33 34  2  0
 10 35  1  0
 35  8  1  0
 34 13  1  0
 33 16  1  0
 30 20  1  0
  1 36  1  0
  1 37  1  0
  1 38  1  0
  3 39  1  0
  3 40  1  0
  3 41  1  0
  4 42  1  0
  4 43  1  0
  5 44  1  0
  5 45  1  0
  9 46  1  0
  9 47  1  0
 10 48  1  0
 14 49  1  0
 15 50  1  0
 21 51  1  0
 22 52  1  0
 24 53  1  0
 26 54  1  0
 26 55  1  0
 26 56  1  0
 29 57  1  0
 30 58  1  0
 31 59  1  0
 34 60  1  0
 35 61  1  0
 35 62  1  0
M  END
$$$$
