
     RDKit          3D

 69 71  0  0  0  0  0  0  0  0999 V2000
    7.5446    2.0786    1.0988 C   0  0  0  0  0  0  0  0  0  0  0  0
    6.3726    1.3921    1.6025 N   0  0  0  0  0  0  0  0  0  0  0  0
    6.6945    0.2694    2.4320 C   0  0  0  0  0  0  0  0  0  0  0  0
    5.4642    1.0978    0.5363 C   0  0  0  0  0  0  0  0  0  0  0  0
    4.2416    0.3832    1.0465 C   0  0  0  0  0  0  0  0  0  0  0  0
    3.3798    0.1208   -0.0679 N   0  0  0  0  0  0  0  0  0  0  0  0
    2.4153    1.1439   -0.3684 C   0  0  0  0  0  0  0  0  0  0  0  0
    1.6051    0.7652   -1.5959 C   0  0  0  0  0  0  0  0  0  0  0  0
    0.8362   -0.4535   -1.2309 N   0  0  0  0  0  0  0  0  0  0  0  0
   -0.3561   -0.1574   -0.6026 C   0  0  0  0  0  0  0  0  0  0  0  0
   -0.5527    1.1235   -0.4154 O   0  0  0  0  0  0  0  0  0  0  0  0
   -1.4388   -1.0560   -0.1084 C   0  0  0  0  0  0  0  0  0  0  0  0
   -1.5462   -2.3542   -0.4443 C   0  0  0  0  0  0  0  0  0  0  0  0
   -2.6057   -3.0711    0.0404 C   0  0  0  0  0  0  0  0  0  0  0  0
   -2.9643   -4.5161   -0.1722 C   0  0  0  0  0  0  0  0  0  0  0  0
   -1.9215   -5.1374   -1.0693 C   0  0  0  0  0  0  0  0  0  0  0  0
   -2.8872   -5.1686    1.1929 C   0  0  0  0  0  0  0  0  0  0  0  0
   -4.3270   -4.5695   -0.7784 C   0  0  0  0  0  0  0  0  0  0  0  0
   -3.5033   -1.9253    0.9999 S   0  0  0  0  0  0  0  0  0  0  0  0
   -2.3916   -0.5200    0.6964 C   0  0  0  0  0  0  0  0  0  0  0  0
   -2.6168    0.7664    1.2516 N   0  0  0  0  0  0  0  0  0  0  0  0
   -3.4101    1.6841    0.4816 C   0  0  0  0  0  0  0  0  0  0  0  0
   -3.8361    1.2727   -0.6139 O   0  0  0  0  0  0  0  0  0  0  0  0
   -3.7033    2.9833    0.9214 N   0  0  0  0  0  0  0  0  0  0  0  0
   -4.4560    3.9573    0.2691 C   0  0  0  0  0  0  0  0  0  0  0  0
   -5.0363    3.7560   -0.9526 C   0  0  0  0  0  0  0  0  0  0  0  0
   -5.7686    4.8113   -1.5051 C   0  0  0  0  0  0  0  0  0  0  0  0
   -5.9052    6.0117   -0.8498 C   0  0  0  0  0  0  0  0  0  0  0  0
   -5.3271    6.2321    0.3826 C   0  0  0  0  0  0  0  0  0  0  0  0
   -5.5022    7.7623    1.2160 Cl  0  0  0  0  0  0  0  0  0  0  0  0
   -4.6098    5.1909    0.9179 C   0  0  0  0  0  0  0  0  0  0  0  0
   -3.8690    5.4797    2.5009 Cl  0  0  0  0  0  0  0  0  0  0  0  0
    1.3052   -1.7749   -1.4728 C   0  0  0  0  0  0  0  0  0  0  0  0
    2.8132   -1.7098   -1.8306 C   0  0  0  0  0  0  0  0  0  0  0  0
    3.6062   -1.1344   -0.7267 C   0  0  0  0  0  0  0  0  0  0  0  0
    4.5951   -1.7568   -0.2691 O   0  0  0  0  0  0  0  0  0  0  0  0
    8.4824    1.7108    1.5359 H   0  0  0  0  0  0  0  0  0  0  0  0
    7.6292    1.9380   -0.0107 H   0  0  0  0  0  0  0  0  0  0  0  0
    7.3703    3.1631    1.2486 H   0  0  0  0  0  0  0  0  0  0  0  0
    7.7389    0.2914    2.8110 H   0  0  0  0  0  0  0  0  0  0  0  0
    6.5662   -0.7077    1.9373 H   0  0  0  0  0  0  0  0  0  0  0  0
    6.0466    0.3156    3.3354 H   0  0  0  0  0  0  0  0  0  0  0  0
    5.9050    0.4753   -0.2646 H   0  0  0  0  0  0  0  0  0  0  0  0
    5.1486    2.0599    0.0852 H   0  0  0  0  0  0  0  0  0  0  0  0
    3.6773    1.0067    1.7702 H   0  0  0  0  0  0  0  0  0  0  0  0
    4.5138   -0.5669    1.5514 H   0  0  0  0  0  0  0  0  0  0  0  0
    2.8636    2.1367   -0.5683 H   0  0  0  0  0  0  0  0  0  0  0  0
    1.7520    1.2620    0.5124 H   0  0  0  0  0  0  0  0  0  0  0  0
    2.2756    0.6003   -2.4320 H   0  0  0  0  0  0  0  0  0  0  0  0
    0.9346    1.6023   -1.8125 H   0  0  0  0  0  0  0  0  0  0  0  0
   -0.8545   -2.9322   -1.1181 H   0  0  0  0  0  0  0  0  0  0  0  0
   -2.1653   -6.1759   -1.3274 H   0  0  0  0  0  0  0  0  0  0  0  0
   -1.8696   -4.4814   -1.9807 H   0  0  0  0  0  0  0  0  0  0  0  0
   -0.9204   -5.0629   -0.5977 H   0  0  0  0  0  0  0  0  0  0  0  0
   -1.9175   -4.8266    1.6419 H   0  0  0  0  0  0  0  0  0  0  0  0
   -2.8123   -6.2501    1.0682 H   0  0  0  0  0  0  0  0  0  0  0  0
   -3.7628   -4.8345    1.7832 H   0  0  0  0  0  0  0  0  0  0  0  0
   -5.0793   -4.3763    0.0087 H   0  0  0  0  0  0  0  0  0  0  0  0
   -4.4579   -5.5222   -1.2947 H   0  0  0  0  0  0  0  0  0  0  0  0
   -4.4115   -3.7000   -1.4858 H   0  0  0  0  0  0  0  0  0  0  0  0
   -2.2402    1.0729    2.1769 H   0  0  0  0  0  0  0  0  0  0  0  0
   -3.2806    3.2206    1.8792 H   0  0  0  0  0  0  0  0  0  0  0  0
   -4.9695    2.8403   -1.5218 H   0  0  0  0  0  0  0  0  0  0  0  0
   -6.2286    4.6569   -2.4700 H   0  0  0  0  0  0  0  0  0  0  0  0
   -6.4779    6.8486   -1.2729 H   0  0  0  0  0  0  0  0  0  0  0  0
    1.2179   -2.4372   -0.5744 H   0  0  0  0  0  0  0  0  0  0  0  0
    0.8743   -2.2761   -2.3648 H   0  0  0  0  0  0  0  0  0  0  0  0
    3.1371   -2.7813   -1.9460 H   0  0  0  0  0  0  0  0  0  0  0  0
    2.9759   -1.2472   -2.8157 H   0  0  0  0  0  0  0  0  0  0  0  0
  1  2  1  0
  2  3  1  0
  2  4  1  0
  4  5  1  0
  5  6  1  0
  6  7  1  0
  7  8  1  0
  8  9  1  0
  9 10  1  0
 10 11  2  0
 10 12  1  0
 12 13  1  0
 13 14  2  0
 14 15  1  0
 15 16  1  0
 15 17  1  0
 15 18  1  0
 14 19  1  0
 19 20  1  0
 20 21  1  0
 21 22  1  0
 22 23  2  0
 22 24  1  0
 24 25  1  0
 25 26  2  0
 26 27  1  0
 27 28  2  0
 28 29  1  0
 29 30  1  0
 29 31  2  0
 31 32  1  0
  9 33  1  0
 33 34  1  0
 34 35  1  0
 35 36  2  0
 35  6  1  0
 20 12  2  0
 31 25  1  0
  1 37  1  0
  1 38  1  0
  1 39  1  0
  3 40  1  0
  3 41  1  0
  3 42  1  0
  4 43  1  0
  4 44  1  0
  5 45  1  0
  5 46  1  0
  7 47  1  0
  7 48  1  0
  8 49  1  0
  8 50  1  0
 13 51  1  0
 16 52  1  0
 16 53  1  0
 16 54  1  0
 17 55  1  0
 17 56  1  0
 17 57  1  0
 18 58  1  0
 18 59  1  0
 18 60  1  0
 21 61  1  0
 24 62  1  0
 26 63  1  0
 27 64  1  0
 28 65  1  0
 33 66  1  0
 33 67  1  0
 34 68  1  0
 34 69  1  0
M  END
$$$$
