@<TRIPOS>MOLECULE
*****
 69 71 0 0 0
SMALL
GASTEIGER

@<TRIPOS>ATOM
      1 C           7.5446    2.0786    1.0988 C.3     1  UNL1       -0.0130
      2 N           6.3726    1.3921    1.6025 N.3     1  UNL1       -0.3069
      3 C           6.6945    0.2694    2.4320 C.3     1  UNL1       -0.0130
      4 C           5.4642    1.0978    0.5363 C.3     1  UNL1        0.0141
      5 C           4.2416    0.3832    1.0465 C.3     1  UNL1        0.0275
      6 N           3.3798    0.1208   -0.0679 N.am    1  UNL1       -0.2987
      7 C           2.4153    1.1439   -0.3684 C.3     1  UNL1        0.0305
      8 C           1.6051    0.7652   -1.5959 C.3     1  UNL1        0.0308
      9 N           0.8362   -0.4535   -1.2309 N.am    1  UNL1       -0.2955
     10 C          -0.3561   -0.1574   -0.6026 C.2     1  UNL1        0.2490
     11 O          -0.5527    1.1235   -0.4154 O.2     1  UNL1       -0.2699
     12 C          -1.4388   -1.0560   -0.1084 C.ar    1  UNL1        0.0657
     13 C          -1.5462   -2.3542   -0.4443 C.ar    1  UNL1       -0.0370
     14 C          -2.6057   -3.0711    0.0404 C.ar    1  UNL1       -0.0023
     15 C          -2.9643   -4.5161   -0.1722 C.3     1  UNL1       -0.0064
     16 C          -1.9215   -5.1374   -1.0693 C.3     1  UNL1       -0.0556
     17 C          -2.8872   -5.1686    1.1929 C.3     1  UNL1       -0.0556
     18 C          -4.3270   -4.5695   -0.7784 C.3     1  UNL1       -0.0556
     19 S          -3.5033   -1.9253    0.9999 S.2     1  UNL1       -0.0771
     20 C          -2.3916   -0.5200    0.6964 C.ar    1  UNL1        0.0853
     21 N          -2.6168    0.7664    1.2516 N.am    1  UNL1       -0.2629
     22 C          -3.4101    1.6841    0.4816 C.2     1  UNL1        0.3085
     23 O          -3.8361    1.2727   -0.6139 O.2     1  UNL1       -0.2521
     24 N          -3.7033    2.9833    0.9214 N.am    1  UNL1       -0.2678
     25 C          -4.4560    3.9573    0.2691 C.ar    1  UNL1        0.0546
     26 C          -5.0363    3.7560   -0.9526 C.ar    1  UNL1       -0.0389
     27 C          -5.7686    4.8113   -1.5051 C.ar    1  UNL1       -0.0585
     28 C          -5.9052    6.0117   -0.8498 C.ar    1  UNL1       -0.0419
     29 C          -5.3271    6.2321    0.3826 C.ar    1  UNL1        0.0610
     30 CL         -5.5022    7.7623    1.2160 Cl      1  UNL1       -0.0820
     31 C          -4.6098    5.1909    0.9179 C.ar    1  UNL1        0.0804
     32 CL         -3.8690    5.4797    2.5009 Cl      1  UNL1       -0.0801
     33 C           1.3052   -1.7749   -1.4728 C.3     1  UNL1        0.0233
     34 C           2.8132   -1.7098   -1.8306 C.3     1  UNL1        0.0399
     35 C           3.6062   -1.1344   -0.7267 C.2     1  UNL1        0.2171
     36 O           4.5951   -1.7568   -0.2691 O.2     1  UNL1       -0.2755
     37 H           8.4824    1.7108    1.5359 H       1  UNL1        0.0391
     38 H           7.6292    1.9380   -0.0107 H       1  UNL1        0.0391
     39 H           7.3703    3.1631    1.2486 H       1  UNL1        0.0391
     40 H           7.7389    0.2914    2.8110 H       1  UNL1        0.0391
     41 H           6.5662   -0.7077    1.9373 H       1  UNL1        0.0391
     42 H           6.0466    0.3156    3.3354 H       1  UNL1        0.0391
     43 H           5.9050    0.4753   -0.2646 H       1  UNL1        0.0442
     44 H           5.1486    2.0599    0.0852 H       1  UNL1        0.0442
     45 H           3.6773    1.0067    1.7702 H       1  UNL1        0.0477
     46 H           4.5138   -0.5669    1.5514 H       1  UNL1        0.0477
     47 H           2.8636    2.1367   -0.5683 H       1  UNL1        0.0480
     48 H           1.7520    1.2620    0.5124 H       1  UNL1        0.0480
     49 H           2.2756    0.6003   -2.4320 H       1  UNL1        0.0480
     50 H           0.9346    1.6023   -1.8125 H       1  UNL1        0.0480
     51 H          -0.8545   -2.9322   -1.1181 H       1  UNL1        0.0634
     52 H          -2.1653   -6.1759   -1.3274 H       1  UNL1        0.0238
     53 H          -1.8696   -4.4814   -1.9807 H       1  UNL1        0.0238
     54 H          -0.9204   -5.0629   -0.5977 H       1  UNL1        0.0238
     55 H          -1.9175   -4.8266    1.6419 H       1  UNL1        0.0238
     56 H          -2.8123   -6.2501    1.0682 H       1  UNL1        0.0238
     57 H          -3.7628   -4.8345    1.7832 H       1  UNL1        0.0238
     58 H          -5.0793   -4.3763    0.0087 H       1  UNL1        0.0238
     59 H          -4.4579   -5.5222   -1.2947 H       1  UNL1        0.0238
     60 H          -4.4115   -3.7000   -1.4858 H       1  UNL1        0.0238
     61 H          -2.2402    1.0729    2.1769 H       1  UNL1        0.1569
     62 H          -3.2806    3.2206    1.8792 H       1  UNL1        0.1564
     63 H          -4.9695    2.8403   -1.5218 H       1  UNL1        0.0637
     64 H          -6.2286    4.6569   -2.4700 H       1  UNL1        0.0619
     65 H          -6.4779    6.8486   -1.2729 H       1  UNL1        0.0633
     66 H           1.2179   -2.4372   -0.5744 H       1  UNL1        0.0469
     67 H           0.8743   -2.2761   -2.3648 H       1  UNL1        0.0469
     68 H           3.1371   -2.7813   -1.9460 H       1  UNL1        0.0374
     69 H           2.9759   -1.2472   -2.8157 H       1  UNL1        0.0374
@<TRIPOS>BOND
     1     1     2    1
     2     2     3    1
     3     2     4    1
     4     4     5    1
     5     5     6    1
     6     6     7    1
     7     7     8    1
     8     8     9    1
     9     9    10   am
    10    10    11    2
    11    10    12    1
    12    12    13   ar
    13    13    14   ar
    14    14    15    1
    15    15    16    1
    16    15    17    1
    17    15    18    1
    18    14    19   ar
    19    19    20   ar
    20    20    21    1
    21    21    22   am
    22    22    23    2
    23    22    24   am
    24    24    25    1
    25    25    26   ar
    26    26    27   ar
    27    27    28   ar
    28    28    29   ar
    29    29    30    1
    30    29    31   ar
    31    31    32    1
    32     9    33    1
    33    33    34    1
    34    34    35    1
    35    35    36    2
    36    35     6   am
    37    20    12   ar
    38    31    25   ar
    39     1    37    1
    40     1    38    1
    41     1    39    1
    42     3    40    1
    43     3    41    1
    44     3    42    1
    45     4    43    1
    46     4    44    1
    47     5    45    1
    48     5    46    1
    49     7    47    1
    50     7    48    1
    51     8    49    1
    52     8    50    1
    53    13    51    1
    54    16    52    1
    55    16    53    1
    56    16    54    1
    57    17    55    1
    58    17    56    1
    59    17    57    1
    60    18    58    1
    61    18    59    1
    62    18    60    1
    63    21    61    1
    64    24    62    1
    65    26    63    1
    66    27    64    1
    67    28    65    1
    68    33    66    1
    69    33    67    1
    70    34    68    1
    71    34    69    1
