@<TRIPOS>MOLECULE
*****
 56 60 0 0 0
SMALL
GASTEIGER

@<TRIPOS>ATOM
      1 C           1.9014   -3.2983    1.6935 C.3     1  UNL1        0.0790
      2 O           0.9516   -2.4705    1.0716 O.3     1  UNL1       -0.4914
      3 C           1.2505   -1.4755    0.1741 C.ar    1  UNL1        0.1623
      4 C           2.5511   -1.2071   -0.1912 C.ar    1  UNL1       -0.0038
      5 C           2.8345   -0.1942   -1.1053 C.ar    1  UNL1        0.0441
      6 C           4.1286    0.0766   -1.4819 C.ar    1  UNL1        0.1340
      7 N           5.1823   -0.6809   -0.9166 N.pl3   1  UNL1       -0.2966
      8 C           6.1452   -0.0643   -0.0560 C.ar    1  UNL1        0.0696
      9 C           6.1065    1.2763    0.2436 C.ar    1  UNL1       -0.0366
     10 C           7.0348    1.8768    1.0685 C.ar    1  UNL1       -0.0444
     11 C           8.0282    1.1050    1.6058 C.ar    1  UNL1        0.0391
     12 BR          9.3451    1.8627    2.7525 Br      1  UNL1       -0.0487
     13 C           8.0870   -0.2535    1.3175 C.ar    1  UNL1        0.0918
     14 CL          9.3621   -1.2055    2.0170 Cl      1  UNL1       -0.0794
     15 C           7.1608   -0.8249    0.5012 C.ar    1  UNL1        0.1637
     16 F           7.2186   -2.1519    0.2208 F       1  UNL1       -0.2020
     17 N           4.3489    1.0637   -2.3746 N.ar    1  UNL1       -0.2200
     18 C           3.3493    1.7980   -2.9148 C.ar    1  UNL1        0.1187
     19 N           2.0891    1.5111   -2.5285 N.ar    1  UNL1       -0.2352
     20 C           1.7923    0.5487   -1.6489 C.ar    1  UNL1        0.0797
     21 C           0.5039    0.2541   -1.2618 C.ar    1  UNL1        0.0098
     22 C           0.2044   -0.7451   -0.3584 C.ar    1  UNL1        0.1640
     23 O          -1.1141   -0.9797   -0.0224 O.3     1  UNL1       -0.4878
     24 C          -2.1653   -0.2286   -0.5901 C.3     1  UNL1        0.0971
     25 C          -3.5070   -0.6805   -0.0419 C.3     1  UNL1        0.0453
     26 C          -3.6066   -0.5140    1.4300 C.3     1  UNL1        0.0566
     27 O          -4.8576   -0.0097    1.6781 O.3     1  UNL1       -0.3709
     28 C          -5.1951    0.8047    0.6085 C.3     1  UNL1        0.1133
     29 C          -6.6937    0.7156    0.3114 C.3     1  UNL1        0.1100
     30 O          -7.1735    1.8070   -0.3685 O.3     1  UNL1       -0.3748
     31 C          -8.1928    2.4971    0.2498 C.3     1  UNL1        0.0370
     32 C          -6.7925   -0.5767   -0.4779 C.3     1  UNL1        0.0768
     33 O          -5.6266   -0.6616   -1.1716 O.3     1  UNL1       -0.3708
     34 C          -4.6452    0.1070   -0.6065 C.3     1  UNL1        0.0954
     35 H           2.1610   -4.1482    0.9954 H       1  UNL1        0.0660
     36 H           1.4319   -3.7430    2.6104 H       1  UNL1        0.0660
     37 H           2.8428   -2.7856    1.9557 H       1  UNL1        0.0660
     38 H           3.3899   -1.7553    0.2053 H       1  UNL1        0.0663
     39 H           5.2597   -1.6903   -1.1226 H       1  UNL1        0.1537
     40 H           5.3388    1.8858   -0.1690 H       1  UNL1        0.0637
     41 H           6.9886    2.9454    1.2954 H       1  UNL1        0.0630
     42 H           3.5826    2.5816   -3.6310 H       1  UNL1        0.1048
     43 H          -0.2751    0.8730   -1.7232 H       1  UNL1        0.0677
     44 H          -2.0222    0.8487   -0.5477 H       1  UNL1        0.0701
     45 H          -2.1674   -0.5142   -1.6836 H       1  UNL1        0.0701
     46 H          -3.6865   -1.7565   -0.2911 H       1  UNL1        0.0382
     47 H          -2.8086    0.1928    1.8045 H       1  UNL1        0.0565
     48 H          -3.4644   -1.5164    1.9022 H       1  UNL1        0.0565
     49 H          -4.8369    1.8088    0.7857 H       1  UNL1        0.0649
     50 H          -7.2489    0.6120    1.2588 H       1  UNL1        0.0646
     51 H          -9.1030    1.8477    0.4218 H       1  UNL1        0.0524
     52 H          -7.8924    2.9906    1.1945 H       1  UNL1        0.0524
     53 H          -8.5463    3.2892   -0.4492 H       1  UNL1        0.0524
     54 H          -6.9717   -1.4443    0.2052 H       1  UNL1        0.0587
     55 H          -7.6841   -0.5272   -1.1581 H       1  UNL1        0.0587
     56 H          -4.2942    0.9233   -1.2883 H       1  UNL1        0.0627
@<TRIPOS>BOND
     1     1     2    1
     2     2     3    1
     3     3     4   ar
     4     4     5   ar
     5     5     6   ar
     6     6     7    1
     7     7     8    1
     8     8     9   ar
     9     9    10   ar
    10    10    11   ar
    11    11    12    1
    12    11    13   ar
    13    13    14    1
    14    13    15   ar
    15    15    16    1
    16     6    17   ar
    17    17    18   ar
    18    18    19   ar
    19    19    20   ar
    20    20    21   ar
    21    21    22   ar
    22    22    23    1
    23    23    24    1
    24    24    25    1
    25    25    26    1
    26    26    27    1
    27    27    28    1
    28    28    29    1
    29    29    30    1
    30    30    31    1
    31    29    32    1
    32    32    33    1
    33    33    34    1
    34    22     3   ar
    35    34    25    1
    36    20     5   ar
    37    34    28    1
    38    15     8   ar
    39     1    35    1
    40     1    36    1
    41     1    37    1
    42     4    38    1
    43     7    39    1
    44     9    40    1
    45    10    41    1
    46    18    42    1
    47    21    43    1
    48    24    44    1
    49    24    45    1
    50    25    46    1
    51    26    47    1
    52    26    48    1
    53    28    49    1
    54    29    50    1
    55    31    51    1
    56    31    52    1
    57    31    53    1
    58    32    54    1
    59    32    55    1
    60    34    56    1
