
     RDKit          3D

 56 60  0  0  0  0  0  0  0  0999 V2000
    1.9014   -3.2983    1.6935 C   0  0  0  0  0  0  0  0  0  0  0  0
    0.9516   -2.4705    1.0716 O   0  0  0  0  0  0  0  0  0  0  0  0
    1.2505   -1.4755    0.1741 C   0  0  0  0  0  0  0  0  0  0  0  0
    2.5511   -1.2071   -0.1912 C   0  0  0  0  0  0  0  0  0  0  0  0
    2.8345   -0.1942   -1.1053 C   0  0  0  0  0  0  0  0  0  0  0  0
    4.1286    0.0766   -1.4819 C   0  0  0  0  0  0  0  0  0  0  0  0
    5.1823   -0.6809   -0.9166 N   0  0  0  0  0  0  0  0  0  0  0  0
    6.1452   -0.0643   -0.0560 C   0  0  0  0  0  0  0  0  0  0  0  0
    6.1065    1.2763    0.2436 C   0  0  0  0  0  0  0  0  0  0  0  0
    7.0348    1.8768    1.0685 C   0  0  0  0  0  0  0  0  0  0  0  0
    8.0282    1.1050    1.6058 C   0  0  0  0  0  0  0  0  0  0  0  0
    9.3451    1.8627    2.7525 Br  0  0  0  0  0  0  0  0  0  0  0  0
    8.0870   -0.2535    1.3175 C   0  0  0  0  0  0  0  0  0  0  0  0
    9.3621   -1.2055    2.0170 Cl  0  0  0  0  0  0  0  0  0  0  0  0
    7.1608   -0.8249    0.5012 C   0  0  0  0  0  0  0  0  0  0  0  0
    7.2186   -2.1519    0.2208 F   0  0  0  0  0  0  0  0  0  0  0  0
    4.3489    1.0637   -2.3746 N   0  0  0  0  0  0  0  0  0  0  0  0
    3.3493    1.7980   -2.9148 C   0  0  0  0  0  0  0  0  0  0  0  0
    2.0891    1.5111   -2.5285 N   0  0  0  0  0  0  0  0  0  0  0  0
    1.7923    0.5487   -1.6489 C   0  0  0  0  0  0  0  0  0  0  0  0
    0.5039    0.2541   -1.2618 C   0  0  0  0  0  0  0  0  0  0  0  0
    0.2044   -0.7451   -0.3584 C   0  0  0  0  0  0  0  0  0  0  0  0
   -1.1141   -0.9797   -0.0224 O   0  0  0  0  0  0  0  0  0  0  0  0
   -2.1653   -0.2286   -0.5901 C   0  0  0  0  0  0  0  0  0  0  0  0
   -3.5070   -0.6805   -0.0419 C   0  0  0  0  0  0  0  0  0  0  0  0
   -3.6066   -0.5140    1.4300 C   0  0  0  0  0  0  0  0  0  0  0  0
   -4.8576   -0.0097    1.6781 O   0  0  0  0  0  0  0  0  0  0  0  0
   -5.1951    0.8047    0.6085 C   0  0  2  0  0  0  0  0  0  0  0  0
   -6.6937    0.7156    0.3114 C   0  0  1  0  0  0  0  0  0  0  0  0
   -7.1735    1.8070   -0.3685 O   0  0  0  0  0  0  0  0  0  0  0  0
   -8.1928    2.4971    0.2498 C   0  0  0  0  0  0  0  0  0  0  0  0
   -6.7925   -0.5767   -0.4779 C   0  0  0  0  0  0  0  0  0  0  0  0
   -5.6266   -0.6616   -1.1716 O   0  0  0  0  0  0  0  0  0  0  0  0
   -4.6452    0.1070   -0.6065 C   0  0  2  0  0  0  0  0  0  0  0  0
    2.1610   -4.1482    0.9954 H   0  0  0  0  0  0  0  0  0  0  0  0
    1.4319   -3.7430    2.6104 H   0  0  0  0  0  0  0  0  0  0  0  0
    2.8428   -2.7856    1.9557 H   0  0  0  0  0  0  0  0  0  0  0  0
    3.3899   -1.7553    0.2053 H   0  0  0  0  0  0  0  0  0  0  0  0
    5.2597   -1.6903   -1.1226 H   0  0  0  0  0  0  0  0  0  0  0  0
    5.3388    1.8858   -0.1690 H   0  0  0  0  0  0  0  0  0  0  0  0
    6.9886    2.9454    1.2954 H   0  0  0  0  0  0  0  0  0  0  0  0
    3.5826    2.5816   -3.6310 H   0  0  0  0  0  0  0  0  0  0  0  0
   -0.2751    0.8730   -1.7232 H   0  0  0  0  0  0  0  0  0  0  0  0
   -2.0222    0.8487   -0.5477 H   0  0  0  0  0  0  0  0  0  0  0  0
   -2.1674   -0.5142   -1.6836 H   0  0  0  0  0  0  0  0  0  0  0  0
   -3.6865   -1.7565   -0.2911 H   0  0  0  0  0  0  0  0  0  0  0  0
   -2.8086    0.1928    1.8045 H   0  0  0  0  0  0  0  0  0  0  0  0
   -3.4644   -1.5164    1.9022 H   0  0  0  0  0  0  0  0  0  0  0  0
   -4.8369    1.8088    0.7857 H   0  0  0  0  0  0  0  0  0  0  0  0
   -7.2489    0.6120    1.2588 H   0  0  0  0  0  0  0  0  0  0  0  0
   -9.1030    1.8477    0.4218 H   0  0  0  0  0  0  0  0  0  0  0  0
   -7.8924    2.9906    1.1945 H   0  0  0  0  0  0  0  0  0  0  0  0
   -8.5463    3.2892   -0.4492 H   0  0  0  0  0  0  0  0  0  0  0  0
   -6.9717   -1.4443    0.2052 H   0  0  0  0  0  0  0  0  0  0  0  0
   -7.6841   -0.5272   -1.1581 H   0  0  0  0  0  0  0  0  0  0  0  0
   -4.2942    0.9233   -1.2883 H   0  0  0  0  0  0  0  0  0  0  0  0
  1  2  1  0
  2  3  1  0
  3  4  2  0
  4  5  1  0
  5  6  2  0
  6  7  1  0
  7  8  1  0
  8  9  2  0
  9 10  1  0
 10 11  2  0
 11 12  1  0
 11 13  1  0
 13 14  1  0
 13 15  2  0
 15 16  1  0
  6 17  1  0
 17 18  2  0
 18 19  1  0
 19 20  2  0
 20 21  1  0
 21 22  2  0
 22 23  1  0
 23 24  1  0
 24 25  1  0
 25 26  1  0
 26 27  1  0
 27 28  1  0
 28 29  1  0
 29 30  1  0
 30 31  1  0
 29 32  1  0
 32 33  1  0
 33 34  1  0
 22  3  1  0
 34 25  1  0
 20  5  1  0
 34 28  1  0
 15  8  1  0
  1 35  1  0
  1 36  1  0
  1 37  1  0
  4 38  1  0
  7 39  1  0
  9 40  1  0
 10 41  1  0
 18 42  1  0
 21 43  1  0
 24 44  1  0
 24 45  1  0
 25 46  1  0
 26 47  1  0
 26 48  1  0
 28 49  1  1
 29 50  1  1
 31 51  1  0
 31 52  1  0
 31 53  1  0
 32 54  1  0
 32 55  1  0
 34 56  1  6
M  END
$$$$
