
     RDKit          3D

 91 95  0  0  0  0  0  0  0  0999 V2000
    4.1113   -3.7417   -2.6549 C   0  0  0  0  0  0  0  0  0  0  0  0
    3.8371   -2.2742   -2.3973 C   0  0  0  0  0  0  0  0  0  0  0  0
    2.8464   -2.1860   -1.3325 N   0  0  0  0  0  0  0  0  0  0  0  0
    3.3087   -2.6212   -0.0719 C   0  0  0  0  0  0  0  0  0  0  0  0
    2.2304   -2.4705    0.9612 C   0  0  0  0  0  0  0  0  0  0  0  0
    1.5475   -2.4775   -1.7445 C   0  0  0  0  0  0  0  0  0  0  0  0
    0.8093   -1.5366   -2.6264 C   0  0  0  0  0  0  0  0  0  0  0  0
    0.4796   -0.2494   -2.1015 N   0  0  0  0  0  0  0  0  0  0  0  0
    1.2919    0.9068   -2.3128 C   0  0  0  0  0  0  0  0  0  0  0  0
    2.3804    1.1373   -1.3733 C   0  0  0  0  0  0  0  0  0  0  0  0
    2.2773    1.5920   -0.0858 C   0  0  0  0  0  0  0  0  0  0  0  0
    3.3975    1.8345    0.6675 C   0  0  0  0  0  0  0  0  0  0  0  0
    4.6755    1.6365    0.1780 C   0  0  0  0  0  0  0  0  0  0  0  0
    5.9041    1.8555    0.9108 C   0  0  0  0  0  0  0  0  0  0  0  0
    7.0524    2.2755    0.2411 C   0  0  0  0  0  0  0  0  0  0  0  0
    8.2360    2.4647    0.9086 C   0  0  0  0  0  0  0  0  0  0  0  0
    8.3001    2.2346    2.2749 C   0  0  0  0  0  0  0  0  0  0  0  0
    9.5780    2.4255    3.0309 C   0  0  0  0  0  0  0  0  0  0  0  0
    9.4691    3.4393    3.9772 F   0  0  0  0  0  0  0  0  0  0  0  0
    9.8431    1.2731    3.7802 F   0  0  0  0  0  0  0  0  0  0  0  0
   10.6366    2.6400    2.1871 F   0  0  0  0  0  0  0  0  0  0  0  0
    7.1621    1.8181    2.9361 C   0  0  0  0  0  0  0  0  0  0  0  0
    5.9666    1.6262    2.2710 C   0  0  0  0  0  0  0  0  0  0  0  0
    4.7861    1.1787   -1.1166 C   0  0  0  0  0  0  0  0  0  0  0  0
    3.6770    0.9375   -1.8641 C   0  0  0  0  0  0  0  0  0  0  0  0
   -0.7524   -0.0733   -1.3714 C   0  0  0  0  0  0  0  0  0  0  0  0
   -1.0513    1.0593   -0.9328 O   0  0  0  0  0  0  0  0  0  0  0  0
   -1.7146   -1.1621   -1.1032 C   0  0  0  0  0  0  0  0  0  0  0  0
   -2.9964   -0.6307   -0.6425 N   0  0  0  0  0  0  0  0  0  0  0  0
   -3.9615   -0.3364   -1.5561 C   0  0  0  0  0  0  0  0  0  0  0  0
   -5.2059    0.1635   -1.2444 C   0  0  0  0  0  0  0  0  0  0  0  0
   -6.2368    0.4389   -2.2565 C   0  0  0  0  0  0  0  0  0  0  0  0
   -6.4592    1.8583   -2.5688 C   0  0  0  0  0  0  0  0  0  0  0  0
   -5.8474    2.6483   -3.5071 C   0  0  0  0  0  0  0  0  0  0  0  0
   -6.4015    3.8611   -3.4198 N   0  0  0  0  0  0  0  0  0  0  0  0
   -7.3371    3.8495   -2.4582 N   0  0  0  0  0  0  0  0  0  0  0  0
   -8.1559    5.0108   -2.0872 C   0  0  0  0  0  0  0  0  0  0  0  0
   -7.4074    2.6319   -1.9035 C   0  0  0  0  0  0  0  0  0  0  0  0
   -5.4336    0.3636    0.1161 C   0  0  0  0  0  0  0  0  0  0  0  0
   -6.5491    0.8201    0.5035 O   0  0  0  0  0  0  0  0  0  0  0  0
   -4.4580    0.0620    0.9718 N   0  0  0  0  0  0  0  0  0  0  0  0
   -3.2494   -0.4259    0.6584 C   0  0  0  0  0  0  0  0  0  0  0  0
   -2.0397   -0.8124    1.9015 S   0  0  0  0  0  0  0  0  0  0  0  0
   -2.6765   -0.4456    3.5470 C   0  0  0  0  0  0  0  0  0  0  0  0
   -3.8081   -1.3439    3.8739 C   0  0  0  0  0  0  0  0  0  0  0  0
   -3.5503   -2.6369    4.3033 C   0  0  0  0  0  0  0  0  0  0  0  0
   -4.5374   -3.5278    4.6444 C   0  0  0  0  0  0  0  0  0  0  0  0
   -5.8602   -3.1113    4.5561 C   0  0  0  0  0  0  0  0  0  0  0  0
   -6.8640   -3.9285    4.8623 F   0  0  0  0  0  0  0  0  0  0  0  0
   -6.1607   -1.8362    4.1368 C   0  0  0  0  0  0  0  0  0  0  0  0
   -5.1382   -0.9767    3.8046 C   0  0  0  0  0  0  0  0  0  0  0  0
    3.5050   -4.4190   -2.0081 H   0  0  0  0  0  0  0  0  0  0  0  0
    3.8430   -4.0269   -3.7030 H   0  0  0  0  0  0  0  0  0  0  0  0
    5.1635   -4.0265   -2.4822 H   0  0  0  0  0  0  0  0  0  0  0  0
    3.3440   -1.8674   -3.3039 H   0  0  0  0  0  0  0  0  0  0  0  0
    4.7741   -1.7611   -2.1847 H   0  0  0  0  0  0  0  0  0  0  0  0
    4.2818   -2.1788    0.2410 H   0  0  0  0  0  0  0  0  0  0  0  0
    3.5232   -3.7325   -0.1321 H   0  0  0  0  0  0  0  0  0  0  0  0
    1.5142   -3.3272    0.9358 H   0  0  0  0  0  0  0  0  0  0  0  0
    1.6674   -1.5679    0.7763 H   0  0  0  0  0  0  0  0  0  0  0  0
    2.6632   -2.5236    1.9949 H   0  0  0  0  0  0  0  0  0  0  0  0
    0.8974   -2.5817   -0.8137 H   0  0  0  0  0  0  0  0  0  0  0  0
    1.5449   -3.5317   -2.1562 H   0  0  0  0  0  0  0  0  0  0  0  0
    1.3123   -1.4372   -3.6402 H   0  0  0  0  0  0  0  0  0  0  0  0
   -0.1553   -2.0557   -2.9015 H   0  0  0  0  0  0  0  0  0  0  0  0
    1.6873    0.9262   -3.3669 H   0  0  0  0  0  0  0  0  0  0  0  0
    0.6088    1.7986   -2.2599 H   0  0  0  0  0  0  0  0  0  0  0  0
    1.2651    1.7530    0.3214 H   0  0  0  0  0  0  0  0  0  0  0  0
    3.3140    2.1973    1.6863 H   0  0  0  0  0  0  0  0  0  0  0  0
    7.0090    2.4620   -0.8425 H   0  0  0  0  0  0  0  0  0  0  0  0
    9.1466    2.7985    0.4039 H   0  0  0  0  0  0  0  0  0  0  0  0
    7.2348    1.6384    4.0271 H   0  0  0  0  0  0  0  0  0  0  0  0
    5.0606    1.2904    2.7865 H   0  0  0  0  0  0  0  0  0  0  0  0
    5.7655    1.0026   -1.5556 H   0  0  0  0  0  0  0  0  0  0  0  0
    3.8213    0.5766   -2.8917 H   0  0  0  0  0  0  0  0  0  0  0  0
   -1.8555   -1.8834   -1.9093 H   0  0  0  0  0  0  0  0  0  0  0  0
   -1.3054   -1.7409   -0.2210 H   0  0  0  0  0  0  0  0  0  0  0  0
   -3.7063   -0.5195   -2.6069 H   0  0  0  0  0  0  0  0  0  0  0  0
   -7.2153   -0.0203   -1.9597 H   0  0  0  0  0  0  0  0  0  0  0  0
   -5.9226   -0.1435   -3.1727 H   0  0  0  0  0  0  0  0  0  0  0  0
   -5.0664    2.3717   -4.1911 H   0  0  0  0  0  0  0  0  0  0  0  0
   -8.7943    4.7308   -1.2223 H   0  0  0  0  0  0  0  0  0  0  0  0
   -7.5512    5.9114   -1.9206 H   0  0  0  0  0  0  0  0  0  0  0  0
   -8.8364    5.2083   -2.9766 H   0  0  0  0  0  0  0  0  0  0  0  0
   -8.0905    2.3813   -1.1051 H   0  0  0  0  0  0  0  0  0  0  0  0
   -1.8957   -0.5144    4.3341 H   0  0  0  0  0  0  0  0  0  0  0  0
   -3.0512    0.6067    3.6223 H   0  0  0  0  0  0  0  0  0  0  0  0
   -2.5249   -2.9817    4.3756 H   0  0  0  0  0  0  0  0  0  0  0  0
   -4.3055   -4.5346    4.9765 H   0  0  0  0  0  0  0  0  0  0  0  0
   -7.2137   -1.5249    4.0735 H   0  0  0  0  0  0  0  0  0  0  0  0
   -5.4084    0.0087    3.5012 H   0  0  0  0  0  0  0  0  0  0  0  0
  1  2  1  0
  2  3  1  0
  3  4  1  0
  4  5  1  0
  3  6  1  0
  6  7  1  0
  7  8  1  0
  8  9  1  0
  9 10  1  0
 10 11  2  0
 11 12  1  0
 12 13  2  0
 13 14  1  0
 14 15  2  0
 15 16  1  0
 16 17  2  0
 17 18  1  0
 18 19  1  0
 18 20  1  0
 18 21  1  0
 17 22  1  0
 22 23  2  0
 13 24  1  0
 24 25  2  0
  8 26  1  0
 26 27  2  0
 26 28  1  0
 28 29  1  0
 29 30  1  0
 30 31  2  0
 31 32  1  0
 32 33  1  0
 33 34  1  0
 34 35  2  0
 35 36  1  0
 36 37  1  0
 36 38  1  0
 31 39  1  0
 39 40  2  0
 39 41  1  0
 41 42  2  0
 42 43  1  0
 43 44  1  0
 44 45  1  0
 45 46  2  0
 46 47  1  0
 47 48  2  0
 48 49  1  0
 48 50  1  0
 50 51  2  0
 25 10  1  0
 42 29  1  0
 51 45  1  0
 23 14  1  0
 38 33  2  0
  1 52  1  0
  1 53  1  0
  1 54  1  0
  2 55  1  0
  2 56  1  0
  4 57  1  0
  4 58  1  0
  5 59  1  0
  5 60  1  0
  5 61  1  0
  6 62  1  0
  6 63  1  0
  7 64  1  0
  7 65  1  0
  9 66  1  0
  9 67  1  0
 11 68  1  0
 12 69  1  0
 15 70  1  0
 16 71  1  0
 22 72  1  0
 23 73  1  0
 24 74  1  0
 25 75  1  0
 28 76  1  0
 28 77  1  0
 30 78  1  0
 32 79  1  0
 32 80  1  0
 34 81  1  0
 37 82  1  0
 37 83  1  0
 37 84  1  0
 38 85  1  0
 44 86  1  0
 44 87  1  0
 46 88  1  0
 47 89  1  0
 50 90  1  0
 51 91  1  0
M  END
$$$$
