@<TRIPOS>MOLECULE
*****
 91 95 0 0 0
SMALL
GASTEIGER

@<TRIPOS>ATOM
      1 C           4.1113   -3.7417   -2.6549 C.3     1  UNL1       -0.0524
      2 C           3.8371   -2.2742   -2.3973 C.3     1  UNL1       -0.0039
      3 N           2.8464   -2.1860   -1.3325 N.3     1  UNL1       -0.3014
      4 C           3.3087   -2.6212   -0.0719 C.3     1  UNL1       -0.0039
      5 C           2.2304   -2.4705    0.9612 C.3     1  UNL1       -0.0524
      6 C           1.5475   -2.4775   -1.7445 C.3     1  UNL1        0.0147
      7 C           0.8093   -1.5366   -2.6264 C.3     1  UNL1        0.0278
      8 N           0.4796   -0.2494   -2.1015 N.am    1  UNL1       -0.2945
      9 C           1.2919    0.9068   -2.3128 C.3     1  UNL1        0.0398
     10 C           2.3804    1.1373   -1.3733 C.ar    1  UNL1       -0.0301
     11 C           2.2773    1.5920   -0.0858 C.ar    1  UNL1       -0.0565
     12 C           3.3975    1.8345    0.6675 C.ar    1  UNL1       -0.0537
     13 C           4.6755    1.6365    0.1780 C.ar    1  UNL1       -0.0179
     14 C           5.9041    1.8555    0.9108 C.ar    1  UNL1       -0.0179
     15 C           7.0524    2.2755    0.2411 C.ar    1  UNL1       -0.0535
     16 C           8.2360    2.4647    0.9086 C.ar    1  UNL1       -0.0495
     17 C           8.3001    2.2346    2.2749 C.ar    1  UNL1        0.0548
     18 C           9.5780    2.4255    3.0309 C.3     1  UNL1        0.4174
     19 F           9.4691    3.4393    3.9772 F       1  UNL1       -0.1659
     20 F           9.8431    1.2731    3.7802 F       1  UNL1       -0.1659
     21 F          10.6366    2.6400    2.1871 F       1  UNL1       -0.1659
     22 C           7.1621    1.8181    2.9361 C.ar    1  UNL1       -0.0495
     23 C           5.9666    1.6262    2.2710 C.ar    1  UNL1       -0.0535
     24 C           4.7861    1.1787   -1.1166 C.ar    1  UNL1       -0.0537
     25 C           3.6770    0.9375   -1.8641 C.ar    1  UNL1       -0.0565
     26 C          -0.7524   -0.0733   -1.3714 C.2     1  UNL1        0.2357
     27 O          -1.0513    1.0593   -0.9328 O.2     1  UNL1       -0.2736
     28 C          -1.7146   -1.1621   -1.1032 C.3     1  UNL1        0.1015
     29 N          -2.9964   -0.6307   -0.6425 N.ar    1  UNL1       -0.3177
     30 C          -3.9615   -0.3364   -1.5561 C.ar    1  UNL1        0.0161
     31 C          -5.2059    0.1635   -1.2444 C.ar    1  UNL1        0.0394
     32 C          -6.2368    0.4389   -2.2565 C.3     1  UNL1        0.0071
     33 C          -6.4592    1.8583   -2.5688 C.ar    1  UNL1       -0.0054
     34 C          -5.8474    2.6483   -3.5071 C.ar    1  UNL1        0.0528
     35 N          -6.4015    3.8611   -3.4198 N.ar    1  UNL1       -0.1796
     36 N          -7.3371    3.8495   -2.4582 N.ar    1  UNL1       -0.2742
     37 C          -8.1559    5.0108   -2.0872 C.3     1  UNL1        0.0302
     38 C          -7.4074    2.6319   -1.9035 C.ar    1  UNL1        0.0286
     39 C          -5.4336    0.3636    0.1161 C.ar    1  UNL1        0.2773
     40 O          -6.5491    0.8201    0.5035 O.2     1  UNL1       -0.2655
     41 N          -4.4580    0.0620    0.9718 N.ar    1  UNL1       -0.1848
     42 C          -3.2494   -0.4259    0.6584 C.ar    1  UNL1        0.1733
     43 S          -2.0397   -0.8124    1.9015 S.3     1  UNL1       -0.0829
     44 C          -2.6765   -0.4456    3.5470 C.3     1  UNL1        0.0262
     45 C          -3.8081   -1.3439    3.8739 C.ar    1  UNL1       -0.0370
     46 C          -3.5503   -2.6369    4.3033 C.ar    1  UNL1       -0.0551
     47 C          -4.5374   -3.5278    4.6444 C.ar    1  UNL1       -0.0262
     48 C          -5.8602   -3.1113    4.5561 C.ar    1  UNL1        0.1234
     49 F          -6.8640   -3.9285    4.8623 F       1  UNL1       -0.2055
     50 C          -6.1607   -1.8362    4.1368 C.ar    1  UNL1       -0.0262
     51 C          -5.1382   -0.9767    3.8046 C.ar    1  UNL1       -0.0551
     52 H           3.5050   -4.4190   -2.0081 H       1  UNL1        0.0242
     53 H           3.8430   -4.0269   -3.7030 H       1  UNL1        0.0242
     54 H           5.1635   -4.0265   -2.4822 H       1  UNL1        0.0242
     55 H           3.3440   -1.8674   -3.3039 H       1  UNL1        0.0424
     56 H           4.7741   -1.7611   -2.1847 H       1  UNL1        0.0424
     57 H           4.2818   -2.1788    0.2410 H       1  UNL1        0.0424
     58 H           3.5232   -3.7325   -0.1321 H       1  UNL1        0.0424
     59 H           1.5142   -3.3272    0.9358 H       1  UNL1        0.0242
     60 H           1.6674   -1.5679    0.7763 H       1  UNL1        0.0242
     61 H           2.6632   -2.5236    1.9949 H       1  UNL1        0.0242
     62 H           0.8974   -2.5817   -0.8137 H       1  UNL1        0.0442
     63 H           1.5449   -3.5317   -2.1562 H       1  UNL1        0.0442
     64 H           1.3123   -1.4372   -3.6402 H       1  UNL1        0.0477
     65 H          -0.1553   -2.0557   -2.9015 H       1  UNL1        0.0477
     66 H           1.6873    0.9262   -3.3669 H       1  UNL1        0.0514
     67 H           0.6088    1.7986   -2.2599 H       1  UNL1        0.0514
     68 H           1.2651    1.7530    0.3214 H       1  UNL1        0.0621
     69 H           3.3140    2.1973    1.6863 H       1  UNL1        0.0624
     70 H           7.0090    2.4620   -0.8425 H       1  UNL1        0.0624
     71 H           9.1466    2.7985    0.4039 H       1  UNL1        0.0623
     72 H           7.2348    1.6384    4.0271 H       1  UNL1        0.0623
     73 H           5.0606    1.2904    2.7865 H       1  UNL1        0.0624
     74 H           5.7655    1.0026   -1.5556 H       1  UNL1        0.0624
     75 H           3.8213    0.5766   -2.8917 H       1  UNL1        0.0621
     76 H          -1.8555   -1.8834   -1.9093 H       1  UNL1        0.0588
     77 H          -1.3054   -1.7409   -0.2210 H       1  UNL1        0.0588
     78 H          -3.7063   -0.5195   -2.6069 H       1  UNL1        0.0814
     79 H          -7.2153   -0.0203   -1.9597 H       1  UNL1        0.0365
     80 H          -5.9226   -0.1435   -3.1727 H       1  UNL1        0.0365
     81 H          -5.0664    2.3717   -4.1911 H       1  UNL1        0.0851
     82 H          -8.7943    4.7308   -1.2223 H       1  UNL1        0.0473
     83 H          -7.5512    5.9114   -1.9206 H       1  UNL1        0.0473
     84 H          -8.8364    5.2083   -2.9766 H       1  UNL1        0.0473
     85 H          -8.0905    2.3813   -1.1051 H       1  UNL1        0.0829
     86 H          -1.8957   -0.5144    4.3341 H       1  UNL1        0.0429
     87 H          -3.0512    0.6067    3.6223 H       1  UNL1        0.0429
     88 H          -2.5249   -2.9817    4.3756 H       1  UNL1        0.0621
     89 H          -4.3055   -4.5346    4.9765 H       1  UNL1        0.0646
     90 H          -7.2137   -1.5249    4.0735 H       1  UNL1        0.0646
     91 H          -5.4084    0.0087    3.5012 H       1  UNL1        0.0621
@<TRIPOS>BOND
     1     1     2    1
     2     2     3    1
     3     3     4    1
     4     4     5    1
     5     3     6    1
     6     6     7    1
     7     7     8    1
     8     8     9    1
     9     9    10    1
    10    10    11   ar
    11    11    12   ar
    12    12    13   ar
    13    13    14    1
    14    14    15   ar
    15    15    16   ar
    16    16    17   ar
    17    17    18    1
    18    18    19    1
    19    18    20    1
    20    18    21    1
    21    17    22   ar
    22    22    23   ar
    23    13    24   ar
    24    24    25   ar
    25     8    26   am
    26    26    27    2
    27    26    28    1
    28    28    29    1
    29    29    30   ar
    30    30    31   ar
    31    31    32    1
    32    32    33    1
    33    33    34   ar
    34    34    35   ar
    35    35    36   ar
    36    36    37    1
    37    36    38   ar
    38    31    39   ar
    39    39    40    2
    40    39    41   ar
    41    41    42   ar
    42    42    43    1
    43    43    44    1
    44    44    45    1
    45    45    46   ar
    46    46    47   ar
    47    47    48   ar
    48    48    49    1
    49    48    50   ar
    50    50    51   ar
    51    25    10   ar
    52    42    29   ar
    53    51    45   ar
    54    23    14   ar
    55    38    33   ar
    56     1    52    1
    57     1    53    1
    58     1    54    1
    59     2    55    1
    60     2    56    1
    61     4    57    1
    62     4    58    1
    63     5    59    1
    64     5    60    1
    65     5    61    1
    66     6    62    1
    67     6    63    1
    68     7    64    1
    69     7    65    1
    70     9    66    1
    71     9    67    1
    72    11    68    1
    73    12    69    1
    74    15    70    1
    75    16    71    1
    76    22    72    1
    77    23    73    1
    78    24    74    1
    79    25    75    1
    80    28    76    1
    81    28    77    1
    82    30    78    1
    83    32    79    1
    84    32    80    1
    85    34    81    1
    86    37    82    1
    87    37    83    1
    88    37    84    1
    89    38    85    1
    90    44    86    1
    91    44    87    1
    92    46    88    1
    93    47    89    1
    94    50    90    1
    95    51    91    1
