@<TRIPOS>MOLECULE
*****
 54 56 0 0 0
SMALL
GASTEIGER

@<TRIPOS>ATOM
      1 C           5.2515   -2.7872    1.2814 C.3     1  UNL1       -0.0653
      2 C           5.1400   -2.2899   -0.1239 C.3     1  UNL1       -0.0559
      3 C           3.6927   -2.1158   -0.5706 C.3     1  UNL1       -0.0533
      4 C           2.9625   -1.1408    0.2846 C.3     1  UNL1       -0.0523
      5 C           1.5255   -0.9731   -0.1318 C.3     1  UNL1       -0.0436
      6 C           1.4568   -0.4653   -1.5284 C.3     1  UNL1        0.0011
      7 S          -0.2363   -0.1769   -2.1331 S.3     1  UNL1       -0.0858
      8 C          -0.9823    1.1325   -1.1765 C.ar    1  UNL1        0.1962
      9 N          -0.7927    2.4445   -1.5252 N.ar    1  UNL1       -0.2003
     10 C          -1.3866    3.2326   -0.6310 C.ar    1  UNL1        0.1829
     11 C          -1.4342    4.7034   -0.6111 C.ar    1  UNL1        0.0210
     12 C          -0.4727    5.4139    0.0786 C.ar    1  UNL1       -0.0496
     13 C          -0.4898    6.7978    0.1176 C.ar    1  UNL1       -0.0427
     14 C          -1.5070    7.4329   -0.5610 C.ar    1  UNL1        0.0410
     15 CL         -1.5344    9.1936   -0.5154 Cl      1  UNL1       -0.0835
     16 C          -2.4834    6.7248   -1.2610 C.ar    1  UNL1       -0.0427
     17 C          -2.4397    5.3520   -1.2812 C.ar    1  UNL1       -0.0496
     18 N          -1.9380    2.4133    0.2585 N.ar    1  UNL1       -0.1403
     19 N          -1.7045    1.1048   -0.0586 N.ar    1  UNL1       -0.1573
     20 C          -2.1476    0.0439    0.7620 C.2     1  UNL1        0.3396
     21 O          -2.5398    0.5097    1.9519 O.2     1  UNL1       -0.2474
     22 N          -2.2557   -1.3188    0.5805 N.am    1  UNL1       -0.2819
     23 C          -2.6970   -2.1139    1.7490 C.3     1  UNL1        0.0164
     24 C          -2.0367   -3.4605    1.7772 C.3     1  UNL1       -0.0370
     25 C          -2.2627   -4.2393    0.5160 C.3     1  UNL1       -0.0502
     26 C          -2.9915   -3.3546   -0.4527 C.3     1  UNL1       -0.0370
     27 C          -2.0961   -2.0735   -0.6125 C.3     1  UNL1        0.0164
     28 H           5.4366   -1.9262    1.9717 H       1  UNL1        0.0230
     29 H           4.3594   -3.3824    1.5855 H       1  UNL1        0.0230
     30 H           6.1319   -3.4557    1.3620 H       1  UNL1        0.0230
     31 H           5.6754   -1.3306   -0.2160 H       1  UNL1        0.0263
     32 H           5.5889   -3.0591   -0.7934 H       1  UNL1        0.0263
     33 H           3.1950   -3.1132   -0.5241 H       1  UNL1        0.0265
     34 H           3.7320   -1.8326   -1.6395 H       1  UNL1        0.0265
     35 H           3.4958   -0.1516    0.1746 H       1  UNL1        0.0266
     36 H           3.0319   -1.3664    1.3676 H       1  UNL1        0.0266
     37 H           1.0015   -1.9531    0.0208 H       1  UNL1        0.0273
     38 H           1.0313   -0.2315    0.5655 H       1  UNL1        0.0273
     39 H           1.9685    0.5237   -1.5453 H       1  UNL1        0.0381
     40 H           2.0177   -1.1039   -2.2358 H       1  UNL1        0.0381
     41 H           0.3286    4.8801    0.6118 H       1  UNL1        0.0625
     42 H           0.2772    7.3582    0.6679 H       1  UNL1        0.0632
     43 H          -3.2565    7.2793   -1.7742 H       1  UNL1        0.0632
     44 H          -3.1737    4.7733   -1.8090 H       1  UNL1        0.0625
     45 H          -2.4077   -1.5420    2.6418 H       1  UNL1        0.0465
     46 H          -3.7812   -2.1777    1.7330 H       1  UNL1        0.0465
     47 H          -0.9522   -3.3738    2.0236 H       1  UNL1        0.0280
     48 H          -2.4914   -4.0259    2.6152 H       1  UNL1        0.0280
     49 H          -2.8724   -5.1634    0.6740 H       1  UNL1        0.0266
     50 H          -1.2882   -4.5893    0.1054 H       1  UNL1        0.0266
     51 H          -3.0050   -3.8540   -1.4336 H       1  UNL1        0.0280
     52 H          -3.9690   -3.0964   -0.0554 H       1  UNL1        0.0280
     53 H          -2.5670   -1.5734   -1.5014 H       1  UNL1        0.0465
     54 H          -1.1079   -2.5029   -0.7760 H       1  UNL1        0.0465
@<TRIPOS>BOND
     1     1     2    1
     2     2     3    1
     3     3     4    1
     4     4     5    1
     5     5     6    1
     6     6     7    1
     7     7     8    1
     8     8     9   ar
     9     9    10   ar
    10    10    11    1
    11    11    12   ar
    12    12    13   ar
    13    13    14   ar
    14    14    15    1
    15    14    16   ar
    16    16    17   ar
    17    10    18   ar
    18    18    19   ar
    19    19    20   am
    20    20    21    2
    21    20    22   am
    22    22    23    1
    23    23    24    1
    24    24    25    1
    25    25    26    1
    26    26    27    1
    27    19     8   ar
    28    27    22    1
    29    17    11   ar
    30     1    28    1
    31     1    29    1
    32     1    30    1
    33     2    31    1
    34     2    32    1
    35     3    33    1
    36     3    34    1
    37     4    35    1
    38     4    36    1
    39     5    37    1
    40     5    38    1
    41     6    39    1
    42     6    40    1
    43    12    41    1
    44    13    42    1
    45    16    43    1
    46    17    44    1
    47    23    45    1
    48    23    46    1
    49    24    47    1
    50    24    48    1
    51    25    49    1
    52    25    50    1
    53    26    51    1
    54    26    52    1
    55    27    53    1
    56    27    54    1
