
     RDKit          3D

 54 57  0  0  0  0  0  0  0  0999 V2000
    6.3617   -0.2330    0.1848 C   0  0  0  0  0  0  0  0  0  0  0  0
    5.3911    0.7772    0.7542 C   0  0  0  0  0  0  0  0  0  0  0  0
    5.7138    2.1356    0.1685 C   0  0  0  0  0  0  0  0  0  0  0  0
    5.5287    0.8440    2.2542 C   0  0  0  0  0  0  0  0  0  0  0  0
    3.9824    0.4421    0.3634 C   0  0  0  0  0  0  0  0  0  0  0  0
    3.4291    0.9452   -0.8011 C   0  0  0  0  0  0  0  0  0  0  0  0
    2.1394    0.6658   -1.2025 C   0  0  0  0  0  0  0  0  0  0  0  0
    1.3627   -0.1523   -0.4092 C   0  0  0  0  0  0  0  0  0  0  0  0
    0.0180   -0.4668   -0.7908 N   0  0  0  0  0  0  0  0  0  0  0  0
   -1.0479    0.3683   -0.7785 C   0  0  0  0  0  0  0  0  0  0  0  0
   -0.9698    1.7665   -0.3829 C   0  0  0  0  0  0  0  0  0  0  0  0
   -1.9078    2.5805   -0.3767 O   0  0  0  0  0  0  0  0  0  0  0  0
    0.2700    2.3033    0.0445 O   0  0  0  0  0  0  0  0  0  0  0  0
   -2.1711   -0.2821   -1.2076 C   0  0  0  0  0  0  0  0  0  0  0  0
   -3.4272    0.1962   -1.3324 O   0  0  0  0  0  0  0  0  0  0  0  0
   -4.5225    0.0968   -0.5488 C   0  0  0  0  0  0  0  0  0  0  0  0
   -5.4994   -0.8319   -0.8471 C   0  0  0  0  0  0  0  0  0  0  0  0
   -6.6532   -0.9775   -0.0664 C   0  0  0  0  0  0  0  0  0  0  0  0
   -6.8261   -0.1708    1.0366 C   0  0  0  0  0  0  0  0  0  0  0  0
   -5.8664    0.7630    1.3547 C   0  0  0  0  0  0  0  0  0  0  0  0
   -6.0564    1.6388    2.5537 C   0  0  0  0  0  0  0  0  0  0  0  0
   -5.7757    0.9870    3.7249 F   0  0  0  0  0  0  0  0  0  0  0  0
   -5.1651    2.6871    2.4219 F   0  0  0  0  0  0  0  0  0  0  0  0
   -7.3245    2.2031    2.5506 F   0  0  0  0  0  0  0  0  0  0  0  0
   -4.7386    0.8731    0.5537 C   0  0  0  0  0  0  0  0  0  0  0  0
   -1.7536   -1.5806   -1.4958 C   0  0  0  0  0  0  0  0  0  0  0  0
   -2.4057   -2.7003   -1.9641 C   0  0  0  0  0  0  0  0  0  0  0  0
   -1.7332   -3.9117   -2.1733 C   0  0  0  0  0  0  0  0  0  0  0  0
   -0.3880   -3.9385   -1.8908 C   0  0  0  0  0  0  0  0  0  0  0  0
    0.2279   -2.8520   -1.4403 N   0  0  0  0  0  0  0  0  0  0  0  0
   -0.3861   -1.6723   -1.2279 C   0  0  0  0  0  0  0  0  0  0  0  0
    1.8964   -0.6642    0.7563 C   0  0  0  0  0  0  0  0  0  0  0  0
    3.1952   -0.3748    1.1478 C   0  0  0  0  0  0  0  0  0  0  0  0
    6.2709   -0.2743   -0.9117 H   0  0  0  0  0  0  0  0  0  0  0  0
    7.3794    0.1254    0.4360 H   0  0  0  0  0  0  0  0  0  0  0  0
    6.2478   -1.2213    0.6724 H   0  0  0  0  0  0  0  0  0  0  0  0
    4.8361    2.8343    0.2335 H   0  0  0  0  0  0  0  0  0  0  0  0
    5.9871    2.0595   -0.8900 H   0  0  0  0  0  0  0  0  0  0  0  0
    6.5272    2.6448    0.7627 H   0  0  0  0  0  0  0  0  0  0  0  0
    6.2051    1.6768    2.5204 H   0  0  0  0  0  0  0  0  0  0  0  0
    6.0109   -0.0882    2.6120 H   0  0  0  0  0  0  0  0  0  0  0  0
    4.5391    0.9982    2.7356 H   0  0  0  0  0  0  0  0  0  0  0  0
    4.0285    1.6008   -1.4518 H   0  0  0  0  0  0  0  0  0  0  0  0
    1.7567    1.0961   -2.1389 H   0  0  0  0  0  0  0  0  0  0  0  0
    0.4345    3.3031    0.0504 H   0  0  0  0  0  0  0  0  0  0  0  0
   -5.4005   -1.4717   -1.7061 H   0  0  0  0  0  0  0  0  0  0  0  0
   -7.3984   -1.6967   -0.3063 H   0  0  0  0  0  0  0  0  0  0  0  0
   -7.7246   -0.2715    1.6595 H   0  0  0  0  0  0  0  0  0  0  0  0
   -4.0334    1.6041    0.8462 H   0  0  0  0  0  0  0  0  0  0  0  0
   -3.4437   -2.6502   -2.1767 H   0  0  0  0  0  0  0  0  0  0  0  0
   -2.2516   -4.7907   -2.5422 H   0  0  0  0  0  0  0  0  0  0  0  0
    0.1905   -4.8436   -2.0306 H   0  0  0  0  0  0  0  0  0  0  0  0
    1.3310   -1.3140    1.4202 H   0  0  0  0  0  0  0  0  0  0  0  0
    3.6094   -0.7855    2.0737 H   0  0  0  0  0  0  0  0  0  0  0  0
  1  2  1  0
  2  3  1  0
  2  4  1  0
  2  5  1  0
  5  6  2  0
  6  7  1  0
  7  8  2  0
  8  9  1  0
  9 10  1  0
 10 11  1  0
 11 12  2  0
 11 13  1  0
 10 14  2  0
 14 15  1  0
 15 16  1  0
 16 17  2  0
 17 18  1  0
 18 19  2  0
 19 20  1  0
 20 21  1  0
 21 22  1  0
 21 23  1  0
 21 24  1  0
 20 25  2  0
 14 26  1  0
 26 27  2  0
 27 28  1  0
 28 29  2  0
 29 30  1  0
 30 31  2  0
  8 32  1  0
 32 33  2  0
 33  5  1  0
 31  9  1  0
 25 16  1  0
 31 26  1  0
  1 34  1  0
  1 35  1  0
  1 36  1  0
  3 37  1  0
  3 38  1  0
  3 39  1  0
  4 40  1  0
  4 41  1  0
  4 42  1  0
  6 43  1  0
  7 44  1  0
 13 45  1  0
 17 46  1  0
 18 47  1  0
 19 48  1  0
 25 49  1  0
 27 50  1  0
 28 51  1  0
 29 52  1  0
 32 53  1  0
 33 54  1  0
M  END
$$$$
