@<TRIPOS>MOLECULE
*****
 54 57 0 0 0
SMALL
GASTEIGER

@<TRIPOS>ATOM
      1 C           6.3617   -0.2330    0.1848 C.3     1  UNL1       -0.0560
      2 C           5.3911    0.7772    0.7542 C.3     1  UNL1       -0.0127
      3 C           5.7138    2.1356    0.1685 C.3     1  UNL1       -0.0560
      4 C           5.5287    0.8440    2.2542 C.3     1  UNL1       -0.0560
      5 C           3.9824    0.4421    0.3634 C.ar    1  UNL1       -0.0418
      6 C           3.4291    0.9452   -0.8011 C.ar    1  UNL1       -0.0561
      7 C           2.1394    0.6658   -1.2025 C.ar    1  UNL1       -0.0375
      8 C           1.3627   -0.1523   -0.4092 C.ar    1  UNL1        0.0489
      9 N           0.0180   -0.4668   -0.7908 N.ar    1  UNL1       -0.2849
     10 C          -1.0479    0.3683   -0.7785 C.ar    1  UNL1        0.1762
     11 C          -0.9698    1.7665   -0.3829 C.2     1  UNL1        0.3575
     12 O          -1.9078    2.5805   -0.3767 O.2     1  UNL1       -0.2433
     13 O           0.2700    2.3033    0.0445 O.3     1  UNL1       -0.4760
     14 C          -2.1711   -0.2821   -1.2076 C.ar    1  UNL1        0.1698
     15 O          -3.4272    0.1962   -1.3324 O.3     1  UNL1       -0.4530
     16 C          -4.5225    0.0968   -0.5488 C.ar    1  UNL1        0.1291
     17 C          -5.4994   -0.8319   -0.8471 C.ar    1  UNL1       -0.0193
     18 C          -6.6532   -0.9775   -0.0664 C.ar    1  UNL1       -0.0578
     19 C          -6.8261   -0.1708    1.0366 C.ar    1  UNL1       -0.0499
     20 C          -5.8664    0.7630    1.3547 C.ar    1  UNL1        0.0583
     21 C          -6.0564    1.6388    2.5537 C.3     1  UNL1        0.4175
     22 F          -5.7757    0.9870    3.7249 F       1  UNL1       -0.1659
     23 F          -5.1651    2.6871    2.4219 F       1  UNL1       -0.1659
     24 F          -7.3245    2.2031    2.5506 F       1  UNL1       -0.1659
     25 C          -4.7386    0.8731    0.5537 C.ar    1  UNL1       -0.0077
     26 C          -1.7536   -1.5806   -1.4958 C.ar    1  UNL1        0.0624
     27 C          -2.4057   -2.7003   -1.9641 C.ar    1  UNL1       -0.0460
     28 C          -1.7332   -3.9117   -2.1733 C.ar    1  UNL1       -0.0428
     29 C          -0.3880   -3.9385   -1.8908 C.ar    1  UNL1        0.0299
     30 N           0.2279   -2.8520   -1.4403 N.ar    1  UNL1       -0.2368
     31 C          -0.3861   -1.6723   -1.2279 C.ar    1  UNL1        0.1494
     32 C           1.8964   -0.6642    0.7563 C.ar    1  UNL1       -0.0375
     33 C           3.1952   -0.3748    1.1478 C.ar    1  UNL1       -0.0561
     34 H           6.2709   -0.2743   -0.9117 H       1  UNL1        0.0238
     35 H           7.3794    0.1254    0.4360 H       1  UNL1        0.0238
     36 H           6.2478   -1.2213    0.6724 H       1  UNL1        0.0238
     37 H           4.8361    2.8343    0.2335 H       1  UNL1        0.0238
     38 H           5.9871    2.0595   -0.8900 H       1  UNL1        0.0238
     39 H           6.5272    2.6448    0.7627 H       1  UNL1        0.0238
     40 H           6.2051    1.6768    2.5204 H       1  UNL1        0.0238
     41 H           6.0109   -0.0882    2.6120 H       1  UNL1        0.0238
     42 H           4.5391    0.9982    2.7356 H       1  UNL1        0.0238
     43 H           4.0285    1.6008   -1.4518 H       1  UNL1        0.0621
     44 H           1.7567    1.0961   -2.1389 H       1  UNL1        0.0638
     45 H           0.4345    3.3031    0.0504 H       1  UNL1        0.2955
     46 H          -5.4005   -1.4717   -1.7061 H       1  UNL1        0.0654
     47 H          -7.3984   -1.6967   -0.3063 H       1  UNL1        0.0619
     48 H          -7.7246   -0.2715    1.6595 H       1  UNL1        0.0623
     49 H          -4.0334    1.6041    0.8462 H       1  UNL1        0.0660
     50 H          -3.4437   -2.6502   -2.1767 H       1  UNL1        0.0626
     51 H          -2.2516   -4.7907   -2.5422 H       1  UNL1        0.0633
     52 H           0.1905   -4.8436   -2.0306 H       1  UNL1        0.0830
     53 H           1.3310   -1.3140    1.4202 H       1  UNL1        0.0638
     54 H           3.6094   -0.7855    2.0737 H       1  UNL1        0.0621
@<TRIPOS>BOND
     1     1     2    1
     2     2     3    1
     3     2     4    1
     4     2     5    1
     5     5     6   ar
     6     6     7   ar
     7     7     8   ar
     8     8     9    1
     9     9    10   ar
    10    10    11    1
    11    11    12    2
    12    11    13    1
    13    10    14   ar
    14    14    15    1
    15    15    16    1
    16    16    17   ar
    17    17    18   ar
    18    18    19   ar
    19    19    20   ar
    20    20    21    1
    21    21    22    1
    22    21    23    1
    23    21    24    1
    24    20    25   ar
    25    14    26   ar
    26    26    27   ar
    27    27    28   ar
    28    28    29   ar
    29    29    30   ar
    30    30    31   ar
    31     8    32   ar
    32    32    33   ar
    33    33     5   ar
    34    31     9   ar
    35    25    16   ar
    36    31    26   ar
    37     1    34    1
    38     1    35    1
    39     1    36    1
    40     3    37    1
    41     3    38    1
    42     3    39    1
    43     4    40    1
    44     4    41    1
    45     4    42    1
    46     6    43    1
    47     7    44    1
    48    13    45    1
    49    17    46    1
    50    18    47    1
    51    19    48    1
    52    25    49    1
    53    27    50    1
    54    28    51    1
    55    29    52    1
    56    32    53    1
    57    33    54    1
