@<TRIPOS>MOLECULE
*****
 34 33 0 0 0
SMALL
GASTEIGER

@<TRIPOS>ATOM
      1 C1          2.5318   -0.3320    0.7791 C.3     1  <1>         0.1032
      2 N1          3.2030   -0.1682    2.0767 N.3     1  <1>        -0.3184
      3 C2          1.5167    0.7706    0.5663 C.3     1  <1>        -0.0272
      4 C3          0.8058    0.6407   -0.7517 C.3     1  <1>        -0.0463
      5 C4          0.0407   -0.5989   -0.9728 C.3     1  <1>        -0.0124
      6 C5         -1.0641   -0.9715   -0.0948 C.3     1  <1>        -0.0309
      7 N2         -2.2147   -0.1470    0.0337 N.4     1  <1>         0.2369
      8 C6         -2.5226    0.5399   -1.1786 C.3     1  <1>        -0.0418
      9 C7         -1.9547    0.8405    1.0774 C.3     1  <1>        -0.0418
     10 C8         -3.3814   -0.9245    0.4930 C.3     1  <1>        -0.0418
     11 C9          3.6350   -0.2711   -0.2325 C.2     1  <1>         0.3217
     12 O1          4.3962   -0.2607   -1.4039 O.3     1  <1>        -0.4795
     13 O2          4.8525   -0.1109    0.0489 O.2     1  <1>        -0.2493
     14 H1          2.0304   -1.3199    0.7909 H       1  <1>         0.0574
     15 H2          3.1435    0.8784    2.2604 H       1  <1>         0.1190
     16 H3          2.5598   -0.6019    2.7803 H       1  <1>         0.1190
     17 H4          2.1199    1.7230    0.4798 H       1  <1>         0.0286
     18 H5          0.8981    0.8407    1.4499 H       1  <1>         0.0286
     19 H6          1.6544    0.6191   -1.5239 H       1  <1>         0.0268
     20 H7          0.2494    1.5448   -1.0501 H       1  <1>         0.0268
     21 H8          0.8134   -1.4423   -1.0551 H       1  <1>         0.0317
     22 H9         -0.3350   -0.5513   -2.0396 H       1  <1>         0.0317
     23 H10        -0.7422   -1.1539    0.9831 H       1  <1>         0.0815
     24 H11        -1.4567   -1.9804   -0.4552 H       1  <1>         0.0815
     25 H12        -2.0897    1.5696   -1.1244 H       1  <1>         0.0778
     26 H13        -2.2379   -0.0175   -2.0900 H       1  <1>         0.0778
     27 H14        -3.6578    0.6615   -1.1690 H       1  <1>         0.0778
     28 H15        -2.9015    1.2977    1.4391 H       1  <1>         0.0778
     29 H16        -1.3632    1.6754    0.6703 H       1  <1>         0.0778
     30 H17        -1.3956    0.3798    1.9036 H       1  <1>         0.0778
     31 H18        -4.0185   -0.2645    1.1176 H       1  <1>         0.0778
     32 H19        -3.1121   -1.8174    1.0494 H       1  <1>         0.0778
     33 H20        -3.9802   -1.1167   -0.4311 H       1  <1>         0.0778
     34 H21         3.9771    0.0689   -2.2671 H       1  <1>         0.2951
@<TRIPOS>UNITY_ATOM_ATTR
7 1
charge 1
@<TRIPOS>BOND
     1     1     2    1
     2     1     3    1
     3     3     4    1
     4     4     5    1
     5     5     6    1
     6     6     7    1
     7     7     8    1
     8     7     9    1
     9     7    10    1
    10     1    11    1
    11    11    12    1
    12    11    13    2
    13     1    14    1
    14     2    15    1
    15     2    16    1
    16     3    17    1
    17     3    18    1
    18     4    19    1
    19     4    20    1
    20     5    21    1
    21     5    22    1
    22     6    23    1
    23     6    24    1
    24     8    25    1
    25     8    26    1
    26     8    27    1
    27     9    28    1
    28     9    29    1
    29     9    30    1
    30    10    31    1
    31    10    32    1
    32    10    33    1
    33    12    34    1
