@<TRIPOS>MOLECULE
*****
 37 39 0 0 0
SMALL
GASTEIGER

@<TRIPOS>ATOM
      1 C          -4.0086    1.7436    0.8640 C.3     1  UNL1       -0.0152
      2 N          -3.3877    0.4723    0.6586 N.3     1  UNL1       -0.3123
      3 C          -2.2040    0.5603   -0.1757 C.3     1  UNL1        0.0329
      4 C          -1.1595    1.4766    0.4603 C.3     1  UNL1       -0.0326
      5 C          -0.0386    1.6118   -0.5329 C.3     1  UNL1       -0.0405
      6 C           0.5134    0.3291   -1.0464 C.3     1  UNL1        0.0096
      7 C           1.9503    0.2600   -0.7136 C.ar    1  UNL1       -0.0385
      8 C           2.3326    0.6930    0.5407 C.ar    1  UNL1       -0.0382
      9 C           3.6634    0.6593    0.9274 C.ar    1  UNL1        0.0595
     10 CL          4.2396    1.1851    2.4903 Cl      1  UNL1       -0.0820
     11 C           4.6104    0.1817    0.0313 C.ar    1  UNL1        0.0593
     12 CL          6.3209    0.1072    0.4475 Cl      1  UNL1       -0.0820
     13 C           4.2658   -0.2562   -1.2224 C.ar    1  UNL1       -0.0417
     14 C           2.9326   -0.2064   -1.5682 C.ar    1  UNL1       -0.0565
     15 C          -0.2367   -0.8836   -0.7006 C.ar    1  UNL1       -0.0353
     16 C           0.4117   -2.0984   -0.8126 C.ar    1  UNL1       -0.0577
     17 C          -0.3153   -3.2447   -0.4798 C.ar    1  UNL1       -0.0615
     18 C          -1.6234   -3.1782   -0.0569 C.ar    1  UNL1       -0.0614
     19 C          -2.2175   -1.9454    0.0358 C.ar    1  UNL1       -0.0568
     20 C          -1.5513   -0.7723   -0.2793 C.ar    1  UNL1       -0.0267
     21 H          -4.9964    1.5755    1.3251 H       1  UNL1        0.0388
     22 H          -3.4456    2.4014    1.5616 H       1  UNL1        0.0388
     23 H          -4.1685    2.2726   -0.0926 H       1  UNL1        0.0388
     24 H          -3.1492    0.0428    1.5643 H       1  UNL1        0.1222
     25 H          -2.4566    0.9534   -1.1822 H       1  UNL1        0.0510
     26 H          -0.8572    1.0516    1.4321 H       1  UNL1        0.0284
     27 H          -1.6229    2.4887    0.5657 H       1  UNL1        0.0284
     28 H          -0.4523    2.2693   -1.3531 H       1  UNL1        0.0275
     29 H           0.7224    2.2643   -0.0422 H       1  UNL1        0.0275
     30 H           0.4808    0.3880   -2.1741 H       1  UNL1        0.0397
     31 H           1.6843    1.0833    1.3179 H       1  UNL1        0.0635
     32 H           5.0205   -0.6294   -1.9175 H       1  UNL1        0.0633
     33 H           2.6116   -0.5373   -2.5372 H       1  UNL1        0.0621
     34 H           1.4421   -2.1794   -1.1434 H       1  UNL1        0.0621
     35 H           0.1350   -4.2285   -0.5460 H       1  UNL1        0.0618
     36 H          -2.2027   -4.0672    0.2063 H       1  UNL1        0.0618
     37 H          -3.2436   -1.8440    0.3635 H       1  UNL1        0.0621
@<TRIPOS>BOND
     1     1     2    1
     2     2     3    1
     3     3     4    1
     4     4     5    1
     5     5     6    1
     6     6     7    1
     7     7     8   ar
     8     8     9   ar
     9     9    10    1
    10     9    11   ar
    11    11    12    1
    12    11    13   ar
    13    13    14   ar
    14     6    15    1
    15    15    16   ar
    16    16    17   ar
    17    17    18   ar
    18    18    19   ar
    19    19    20   ar
    20    20     3    1
    21    14     7   ar
    22    20    15   ar
    23     1    21    1
    24     1    22    1
    25     1    23    1
    26     2    24    1
    27     3    25    1
    28     4    26    1
    29     4    27    1
    30     5    28    1
    31     5    29    1
    32     6    30    1
    33     8    31    1
    34    13    32    1
    35    14    33    1
    36    16    34    1
    37    17    35    1
    38    18    36    1
    39    19    37    1
