@<TRIPOS>MOLECULE
*****
 49 51 0 0 0
SMALL
GASTEIGER

@<TRIPOS>ATOM
      1 C           1.6684    3.4106    0.1424 C.3     1  UNL1        0.0788
      2 O           2.3042    2.2177   -0.2689 O.3     1  UNL1       -0.4948
      3 C           1.5685    1.0233   -0.3051 C.ar    1  UNL1        0.1253
      4 C           0.2275    1.0216    0.0578 C.ar    1  UNL1       -0.0084
      5 C          -0.5465   -0.1183    0.0370 C.ar    1  UNL1        0.0292
      6 C          -1.9619   -0.0423    0.4370 C.ar    1  UNL1        0.0099
      7 C          -2.3662   -0.2143    1.7446 C.ar    1  UNL1        0.0160
      8 N          -3.6783   -0.1281    2.0279 N.ar    1  UNL1       -0.3171
      9 C          -4.0954   -0.3102    3.4110 C.3     1  UNL1        0.0147
     10 C          -4.5963    0.1200    1.0736 C.ar    1  UNL1        0.2603
     11 O          -5.7989    0.1904    1.3811 O.2     1  UNL1       -0.2670
     12 C          -4.2507    0.3019   -0.2570 C.ar    1  UNL1        0.0653
     13 C          -5.1789    0.5554   -1.2427 C.ar    1  UNL1        0.0405
     14 N          -4.7737    0.7234   -2.5309 N.ar    1  UNL1       -0.2625
     15 C          -3.4676    0.6466   -2.8732 C.ar    1  UNL1        0.0282
     16 C          -2.5478    0.3921   -1.8751 C.ar    1  UNL1       -0.0351
     17 C          -2.9078    0.2151   -0.5562 C.ar    1  UNL1       -0.0006
     18 C          -0.0058   -1.3181   -0.3520 C.ar    1  UNL1        0.1284
     19 O          -0.8239   -2.4344   -0.3563 O.3     1  UNL1       -0.4945
     20 C          -0.2851   -3.6783   -0.7524 C.3     1  UNL1        0.0788
     21 C           1.3160   -1.3256   -0.7108 C.ar    1  UNL1       -0.0115
     22 C           2.1218   -0.1712   -0.6952 C.ar    1  UNL1        0.0117
     23 C           3.5453   -0.2891   -1.0603 C.3     1  UNL1        0.0270
     24 N           4.4650   -0.4745    0.0083 N.3     1  UNL1       -0.3041
     25 C           5.8109   -0.5377   -0.5177 C.3     1  UNL1       -0.0127
     26 C           4.3972    0.5325    1.0111 C.3     1  UNL1       -0.0127
     27 H           1.3425    3.3600    1.2229 H       1  UNL1        0.0660
     28 H           0.7620    3.6188   -0.4634 H       1  UNL1        0.0660
     29 H           2.3870    4.2605    0.0962 H       1  UNL1        0.0660
     30 H          -0.1755    1.9920    0.3620 H       1  UNL1        0.0661
     31 H          -1.6201   -0.4124    2.5024 H       1  UNL1        0.0816
     32 H          -5.1220    0.1179    3.5120 H       1  UNL1        0.0457
     33 H          -4.1175   -1.3787    3.6999 H       1  UNL1        0.0457
     34 H          -3.4434    0.2836    4.0760 H       1  UNL1        0.0457
     35 H          -6.2160    0.6120   -0.9482 H       1  UNL1        0.0837
     36 H          -3.1347    0.7772   -3.8971 H       1  UNL1        0.0830
     37 H          -1.4760    0.3174   -2.0864 H       1  UNL1        0.0639
     38 H           0.7301   -3.8658   -0.3197 H       1  UNL1        0.0660
     39 H          -0.9810   -4.5097   -0.4977 H       1  UNL1        0.0660
     40 H          -0.1709   -3.6445   -1.8493 H       1  UNL1        0.0660
     41 H           1.7595   -2.2556   -1.0198 H       1  UNL1        0.0658
     42 H           3.6277   -1.0828   -1.8410 H       1  UNL1        0.0477
     43 H           3.8027    0.7109   -1.5327 H       1  UNL1        0.0477
     44 H           5.8237   -0.3777   -1.6080 H       1  UNL1        0.0391
     45 H           6.4507    0.2734   -0.0777 H       1  UNL1        0.0391
     46 H           6.3161   -1.5016   -0.2532 H       1  UNL1        0.0391
     47 H           4.7300    1.4954    0.5920 H       1  UNL1        0.0391
     48 H           5.1718    0.3283    1.8296 H       1  UNL1        0.0391
     49 H           3.4129    0.5727    1.5229 H       1  UNL1        0.0391
@<TRIPOS>BOND
     1     1     2    1
     2     2     3    1
     3     3     4   ar
     4     4     5   ar
     5     5     6    1
     6     6     7   ar
     7     7     8   ar
     8     8     9    1
     9     8    10   ar
    10    10    11    2
    11    10    12   ar
    12    12    13   ar
    13    13    14   ar
    14    14    15   ar
    15    15    16   ar
    16    16    17   ar
    17     5    18   ar
    18    18    19    1
    19    19    20    1
    20    18    21   ar
    21    21    22   ar
    22    22    23    1
    23    23    24    1
    24    24    25    1
    25    24    26    1
    26    22     3   ar
    27    17     6   ar
    28    17    12   ar
    29     1    27    1
    30     1    28    1
    31     1    29    1
    32     4    30    1
    33     7    31    1
    34     9    32    1
    35     9    33    1
    36     9    34    1
    37    13    35    1
    38    15    36    1
    39    16    37    1
    40    20    38    1
    41    20    39    1
    42    20    40    1
    43    21    41    1
    44    23    42    1
    45    23    43    1
    46    25    44    1
    47    25    45    1
    48    25    46    1
    49    26    47    1
    50    26    48    1
    51    26    49    1
