
     RDKit          3D

 49 51  0  0  0  0  0  0  0  0999 V2000
    1.6684    3.4106    0.1424 C   0  0  0  0  0  0  0  0  0  0  0  0
    2.3042    2.2177   -0.2689 O   0  0  0  0  0  0  0  0  0  0  0  0
    1.5685    1.0233   -0.3051 C   0  0  0  0  0  0  0  0  0  0  0  0
    0.2275    1.0216    0.0578 C   0  0  0  0  0  0  0  0  0  0  0  0
   -0.5465   -0.1183    0.0370 C   0  0  0  0  0  0  0  0  0  0  0  0
   -1.9619   -0.0423    0.4370 C   0  0  0  0  0  0  0  0  0  0  0  0
   -2.3662   -0.2143    1.7446 C   0  0  0  0  0  0  0  0  0  0  0  0
   -3.6783   -0.1281    2.0279 N   0  0  0  0  0  0  0  0  0  0  0  0
   -4.0954   -0.3102    3.4110 C   0  0  0  0  0  0  0  0  0  0  0  0
   -4.5963    0.1200    1.0736 C   0  0  0  0  0  0  0  0  0  0  0  0
   -5.7989    0.1904    1.3811 O   0  0  0  0  0  0  0  0  0  0  0  0
   -4.2507    0.3019   -0.2570 C   0  0  0  0  0  0  0  0  0  0  0  0
   -5.1789    0.5554   -1.2427 C   0  0  0  0  0  0  0  0  0  0  0  0
   -4.7737    0.7234   -2.5309 N   0  0  0  0  0  0  0  0  0  0  0  0
   -3.4676    0.6466   -2.8732 C   0  0  0  0  0  0  0  0  0  0  0  0
   -2.5478    0.3921   -1.8751 C   0  0  0  0  0  0  0  0  0  0  0  0
   -2.9078    0.2151   -0.5562 C   0  0  0  0  0  0  0  0  0  0  0  0
   -0.0058   -1.3181   -0.3520 C   0  0  0  0  0  0  0  0  0  0  0  0
   -0.8239   -2.4344   -0.3563 O   0  0  0  0  0  0  0  0  0  0  0  0
   -0.2851   -3.6783   -0.7524 C   0  0  0  0  0  0  0  0  0  0  0  0
    1.3160   -1.3256   -0.7108 C   0  0  0  0  0  0  0  0  0  0  0  0
    2.1218   -0.1712   -0.6952 C   0  0  0  0  0  0  0  0  0  0  0  0
    3.5453   -0.2891   -1.0603 C   0  0  0  0  0  0  0  0  0  0  0  0
    4.4650   -0.4745    0.0083 N   0  0  0  0  0  0  0  0  0  0  0  0
    5.8109   -0.5377   -0.5177 C   0  0  0  0  0  0  0  0  0  0  0  0
    4.3972    0.5325    1.0111 C   0  0  0  0  0  0  0  0  0  0  0  0
    1.3425    3.3600    1.2229 H   0  0  0  0  0  0  0  0  0  0  0  0
    0.7620    3.6188   -0.4634 H   0  0  0  0  0  0  0  0  0  0  0  0
    2.3870    4.2605    0.0962 H   0  0  0  0  0  0  0  0  0  0  0  0
   -0.1755    1.9920    0.3620 H   0  0  0  0  0  0  0  0  0  0  0  0
   -1.6201   -0.4124    2.5024 H   0  0  0  0  0  0  0  0  0  0  0  0
   -5.1220    0.1179    3.5120 H   0  0  0  0  0  0  0  0  0  0  0  0
   -4.1175   -1.3787    3.6999 H   0  0  0  0  0  0  0  0  0  0  0  0
   -3.4434    0.2836    4.0760 H   0  0  0  0  0  0  0  0  0  0  0  0
   -6.2160    0.6120   -0.9482 H   0  0  0  0  0  0  0  0  0  0  0  0
   -3.1347    0.7772   -3.8971 H   0  0  0  0  0  0  0  0  0  0  0  0
   -1.4760    0.3174   -2.0864 H   0  0  0  0  0  0  0  0  0  0  0  0
    0.7301   -3.8658   -0.3197 H   0  0  0  0  0  0  0  0  0  0  0  0
   -0.9810   -4.5097   -0.4977 H   0  0  0  0  0  0  0  0  0  0  0  0
   -0.1709   -3.6445   -1.8493 H   0  0  0  0  0  0  0  0  0  0  0  0
    1.7595   -2.2556   -1.0198 H   0  0  0  0  0  0  0  0  0  0  0  0
    3.6277   -1.0828   -1.8410 H   0  0  0  0  0  0  0  0  0  0  0  0
    3.8027    0.7109   -1.5327 H   0  0  0  0  0  0  0  0  0  0  0  0
    5.8237   -0.3777   -1.6080 H   0  0  0  0  0  0  0  0  0  0  0  0
    6.4507    0.2734   -0.0777 H   0  0  0  0  0  0  0  0  0  0  0  0
    6.3161   -1.5016   -0.2532 H   0  0  0  0  0  0  0  0  0  0  0  0
    4.7300    1.4954    0.5920 H   0  0  0  0  0  0  0  0  0  0  0  0
    5.1718    0.3283    1.8296 H   0  0  0  0  0  0  0  0  0  0  0  0
    3.4129    0.5727    1.5229 H   0  0  0  0  0  0  0  0  0  0  0  0
  1  2  1  0
  2  3  1  0
  3  4  2  0
  4  5  1  0
  5  6  1  0
  6  7  2  0
  7  8  1  0
  8  9  1  0
  8 10  1  0
 10 11  2  0
 10 12  1  0
 12 13  2  0
 13 14  1  0
 14 15  2  0
 15 16  1  0
 16 17  2  0
  5 18  2  0
 18 19  1  0
 19 20  1  0
 18 21  1  0
 21 22  2  0
 22 23  1  0
 23 24  1  0
 24 25  1  0
 24 26  1  0
 22  3  1  0
 17  6  1  0
 17 12  1  0
  1 27  1  0
  1 28  1  0
  1 29  1  0
  4 30  1  0
  7 31  1  0
  9 32  1  0
  9 33  1  0
  9 34  1  0
 13 35  1  0
 15 36  1  0
 16 37  1  0
 20 38  1  0
 20 39  1  0
 20 40  1  0
 21 41  1  0
 23 42  1  0
 23 43  1  0
 25 44  1  0
 25 45  1  0
 25 46  1  0
 26 47  1  0
 26 48  1  0
 26 49  1  0
M  END
$$$$
