@<TRIPOS>MOLECULE
*****
 55 58 0 0 0
SMALL
GASTEIGER

@<TRIPOS>ATOM
      1 C          -8.4394    1.3921   -1.0045 C.2     1  UNL1       -0.0981
      2 C          -7.2731    1.9753   -0.8931 C.2     1  UNL1       -0.0617
      3 C          -6.1942    1.4056   -0.1235 C.ar    1  UNL1       -0.0256
      4 C          -4.9721    2.0581   -0.0315 C.ar    1  UNL1       -0.0543
      5 C          -3.9213    1.5419    0.6949 C.ar    1  UNL1       -0.0565
      6 C          -4.0390    0.3537    1.3623 C.ar    1  UNL1       -0.0297
      7 C          -2.9202   -0.2335    2.1583 C.3     1  UNL1        0.0452
      8 N          -2.1085   -1.0949    1.3159 N.am    1  UNL1       -0.2598
      9 C          -2.3425   -2.4859    1.1327 C.2     1  UNL1        0.2915
     10 O          -3.2770   -3.1490    1.6725 O.2     1  UNL1       -0.2661
     11 C          -1.3110   -2.9601    0.2234 C.2     1  UNL1        0.2496
     12 O          -1.2132   -4.1442   -0.1589 O.2     1  UNL1       -0.2817
     13 C          -0.4622   -1.8004   -0.1221 C.ar    1  UNL1        0.0502
     14 C           0.6425   -1.7193   -0.9428 C.ar    1  UNL1       -0.0226
     15 C           1.2954   -0.5135   -1.1269 C.ar    1  UNL1        0.1063
     16 S           2.6835   -0.4146   -2.1604 S.O2    1  UNL1        0.0612
     17 O           2.7226    0.9615   -2.7811 O.2     1  UNL1       -0.1528
     18 O           2.5296   -1.4536   -3.2435 O.2     1  UNL1       -0.1528
     19 N           4.1640   -0.6968   -1.3769 N.3     1  UNL1       -0.1713
     20 C           4.3069   -1.9904   -0.7923 C.3     1  UNL1        0.0209
     21 C           4.5498   -1.8118    0.6829 C.3     1  UNL1       -0.0370
     22 C           4.1503   -0.3640    0.9034 C.3     1  UNL1       -0.0323
     23 C           4.5179    0.3050   -0.3935 C.3     1  UNL1        0.0552
     24 C           5.9955    0.5558   -0.5159 C.3     1  UNL1        0.0645
     25 O           6.4937    1.4811    0.3469 O.3     1  UNL1       -0.3814
     26 C           5.9623    2.7382    0.2501 C.3     1  UNL1        0.0365
     27 C           0.7816    0.5813   -0.4509 C.ar    1  UNL1       -0.0335
     28 C          -0.3235    0.5038    0.3711 C.ar    1  UNL1       -0.0377
     29 C          -0.9637   -0.7133    0.5426 C.ar    1  UNL1        0.0481
     30 C          -5.2327   -0.3073    1.2867 C.ar    1  UNL1       -0.0565
     31 C          -6.2896    0.2132    0.5553 C.ar    1  UNL1       -0.0543
     32 H          -9.2447    1.8349   -1.5896 H       1  UNL1        0.0535
     33 H          -8.6678    0.4584   -0.5339 H       1  UNL1        0.0535
     34 H          -7.1276    2.9227   -1.4048 H       1  UNL1        0.0618
     35 H          -4.8894    3.0031   -0.5666 H       1  UNL1        0.0624
     36 H          -2.9820    2.0697    0.7498 H       1  UNL1        0.0621
     37 H          -2.3168    0.5525    2.6590 H       1  UNL1        0.0518
     38 H          -3.3857   -0.8391    2.9628 H       1  UNL1        0.0518
     39 H           0.9728   -2.6307   -1.4314 H       1  UNL1        0.0645
     40 H           5.1833   -2.5443   -1.2065 H       1  UNL1        0.0444
     41 H           3.4172   -2.6394   -0.9126 H       1  UNL1        0.0444
     42 H           3.9025   -2.4747    1.2887 H       1  UNL1        0.0279
     43 H           5.5974   -1.9684    0.9808 H       1  UNL1        0.0279
     44 H           4.7592   -0.0016    1.7564 H       1  UNL1        0.0282
     45 H           3.0775   -0.2990    1.0808 H       1  UNL1        0.0282
     46 H           3.9059    1.1999   -0.6048 H       1  UNL1        0.0502
     47 H           6.5180   -0.4017   -0.3589 H       1  UNL1        0.0576
     48 H           6.1899    0.8633   -1.5705 H       1  UNL1        0.0576
     49 H           4.8689    2.7808    0.4297 H       1  UNL1        0.0523
     50 H           6.4194    3.3555    1.0711 H       1  UNL1        0.0523
     51 H           6.2237    3.2712   -0.6903 H       1  UNL1        0.0523
     52 H           1.2964    1.5161   -0.6002 H       1  UNL1        0.0638
     53 H          -0.6827    1.3856    0.8740 H       1  UNL1        0.0637
     54 H          -5.3522   -1.2639    1.8142 H       1  UNL1        0.0621
     55 H          -7.1958   -0.3650    0.5439 H       1  UNL1        0.0624
@<TRIPOS>BOND
     1     1     2    2
     2     2     3    1
     3     3     4   ar
     4     4     5   ar
     5     5     6   ar
     6     6     7    1
     7     7     8    1
     8     8     9   am
     9     9    10    2
    10     9    11    1
    11    11    12    2
    12    11    13    1
    13    13    14   ar
    14    14    15   ar
    15    15    16    1
    16    16    17    2
    17    16    18    2
    18    16    19    1
    19    19    20    1
    20    20    21    1
    21    21    22    1
    22    22    23    1
    23    23    24    1
    24    24    25    1
    25    25    26    1
    26    15    27   ar
    27    27    28   ar
    28    28    29   ar
    29     6    30   ar
    30    30    31   ar
    31    31     3   ar
    32    29     8    1
    33    29    13   ar
    34    23    19    1
    35     1    32    1
    36     1    33    1
    37     2    34    1
    38     4    35    1
    39     5    36    1
    40     7    37    1
    41     7    38    1
    42    14    39    1
    43    20    40    1
    44    20    41    1
    45    21    42    1
    46    21    43    1
    47    22    44    1
    48    22    45    1
    49    23    46    1
    50    24    47    1
    51    24    48    1
    52    26    49    1
    53    26    50    1
    54    26    51    1
    55    27    52    1
    56    28    53    1
    57    30    54    1
    58    31    55    1
