@<TRIPOS>MOLECULE
*****
 41 45 0 0 0
SMALL
GASTEIGER

@<TRIPOS>ATOM
      1 O          -1.0877   -4.0764   -0.2828 O.2     1  UNL1       -0.2656
      2 C          -0.6525   -2.8809   -0.1983 C.ar    1  UNL1        0.2748
      3 N           0.6626   -2.6124   -0.1487 N.ar    1  UNL1       -0.3203
      4 C           1.1264   -1.3493   -0.0593 C.ar    1  UNL1        0.0519
      5 C           2.4857   -1.0652   -0.0075 C.ar    1  UNL1       -0.0299
      6 C           3.0101    0.1990    0.0834 C.ar    1  UNL1       -0.0159
      7 C           4.4375    0.4648    0.1362 C.ar    1  UNL1       -0.0178
      8 C           5.3403   -0.3472   -0.5133 C.ar    1  UNL1       -0.0540
      9 C           6.7020   -0.0788   -0.4521 C.ar    1  UNL1       -0.0612
     10 C           7.1197    1.0192    0.2745 C.ar    1  UNL1       -0.0617
     11 C           6.2366    1.8408    0.9288 C.ar    1  UNL1       -0.0612
     12 C           4.8696    1.5548    0.8558 C.ar    1  UNL1       -0.0540
     13 C           2.1254    1.2650    0.1267 C.ar    1  UNL1       -0.0533
     14 C           0.7552    1.0191    0.0770 C.ar    1  UNL1       -0.0499
     15 C           0.2753   -0.2666   -0.0142 C.ar    1  UNL1        0.0260
     16 C          -1.0868   -0.5077   -0.0633 C.ar    1  UNL1        0.1039
     17 N          -2.1766    0.2658   -0.0430 N.ar    1  UNL1       -0.2269
     18 C          -3.3000   -0.5022   -0.1185 C.ar    1  UNL1        0.1408
     19 C          -4.6424    0.0588   -0.1178 C.ar    1  UNL1        0.0356
     20 C          -4.8118    1.4505   -0.0354 C.ar    1  UNL1       -0.0497
     21 C          -6.0620    2.0131   -0.0324 C.ar    1  UNL1       -0.0610
     22 C          -7.2120    1.2601   -0.1089 C.ar    1  UNL1       -0.0603
     23 C          -7.0652   -0.0956   -0.1897 C.ar    1  UNL1       -0.0427
     24 C          -5.7929   -0.6647   -0.1925 C.ar    1  UNL1        0.0516
     25 CL         -5.7535   -2.4147   -0.3011 Cl      1  UNL1       -0.0828
     26 N          -2.8793   -1.7625   -0.1855 N.ar    1  UNL1       -0.3336
     27 C          -1.5204   -1.8116   -0.1544 C.ar    1  UNL1        0.1322
     28 H           1.3438   -3.3960   -0.1800 H       1  UNL1        0.1690
     29 H           3.1842   -1.8876   -0.0404 H       1  UNL1        0.0644
     30 H           5.0380   -1.2157   -1.0907 H       1  UNL1        0.0624
     31 H           7.4461   -0.6672   -0.9308 H       1  UNL1        0.0618
     32 H           8.1762    1.2535    0.3403 H       1  UNL1        0.0618
     33 H           6.6001    2.7018    1.4951 H       1  UNL1        0.0618
     34 H           4.2112    2.2290    1.3868 H       1  UNL1        0.0624
     35 H           2.4983    2.2764    0.1981 H       1  UNL1        0.0624
     36 H           0.0417    1.8168    0.1081 H       1  UNL1        0.0625
     37 H          -3.9018    2.0494    0.0253 H       1  UNL1        0.0625
     38 H          -6.1560    3.1029    0.0332 H       1  UNL1        0.0618
     39 H          -8.1911    1.7328   -0.1047 H       1  UNL1        0.0618
     40 H          -7.9401   -0.7180   -0.2509 H       1  UNL1        0.0632
     41 H          -3.4534   -2.6270   -0.2532 H       1  UNL1        0.1675
@<TRIPOS>BOND
     1     1     2    2
     2     2     3   ar
     3     3     4   ar
     4     4     5   ar
     5     5     6   ar
     6     6     7    1
     7     7     8   ar
     8     8     9   ar
     9     9    10   ar
    10    10    11   ar
    11    11    12   ar
    12     6    13   ar
    13    13    14   ar
    14    14    15   ar
    15    15    16   ar
    16    16    17   ar
    17    17    18   ar
    18    18    19    1
    19    19    20   ar
    20    20    21   ar
    21    21    22   ar
    22    22    23   ar
    23    23    24   ar
    24    24    25    1
    25    18    26   ar
    26    26    27   ar
    27    27     2   ar
    28    15     4   ar
    29    27    16   ar
    30    12     7   ar
    31    24    19   ar
    32     3    28    1
    33     5    29    1
    34     8    30    1
    35     9    31    1
    36    10    32    1
    37    11    33    1
    38    12    34    1
    39    13    35    1
    40    14    36    1
    41    20    37    1
    42    21    38    1
    43    22    39    1
    44    23    40    1
    45    26    41    1
