
     RDKit          3D

 41 45  0  0  0  0  0  0  0  0999 V2000
   -1.0877   -4.0764   -0.2828 O   0  0  0  0  0  0  0  0  0  0  0  0
   -0.6525   -2.8809   -0.1983 C   0  0  0  0  0  0  0  0  0  0  0  0
    0.6626   -2.6124   -0.1487 N   0  0  0  0  0  0  0  0  0  0  0  0
    1.1264   -1.3493   -0.0593 C   0  0  0  0  0  0  0  0  0  0  0  0
    2.4857   -1.0652   -0.0075 C   0  0  0  0  0  0  0  0  0  0  0  0
    3.0101    0.1990    0.0834 C   0  0  0  0  0  0  0  0  0  0  0  0
    4.4375    0.4648    0.1362 C   0  0  0  0  0  0  0  0  0  0  0  0
    5.3403   -0.3472   -0.5133 C   0  0  0  0  0  0  0  0  0  0  0  0
    6.7020   -0.0788   -0.4521 C   0  0  0  0  0  0  0  0  0  0  0  0
    7.1197    1.0192    0.2745 C   0  0  0  0  0  0  0  0  0  0  0  0
    6.2366    1.8408    0.9288 C   0  0  0  0  0  0  0  0  0  0  0  0
    4.8696    1.5548    0.8558 C   0  0  0  0  0  0  0  0  0  0  0  0
    2.1254    1.2650    0.1267 C   0  0  0  0  0  0  0  0  0  0  0  0
    0.7552    1.0191    0.0770 C   0  0  0  0  0  0  0  0  0  0  0  0
    0.2753   -0.2666   -0.0142 C   0  0  0  0  0  0  0  0  0  0  0  0
   -1.0868   -0.5077   -0.0633 C   0  0  0  0  0  0  0  0  0  0  0  0
   -2.1766    0.2658   -0.0430 N   0  0  0  0  0  0  0  0  0  0  0  0
   -3.3000   -0.5022   -0.1185 C   0  0  0  0  0  0  0  0  0  0  0  0
   -4.6424    0.0588   -0.1178 C   0  0  0  0  0  0  0  0  0  0  0  0
   -4.8118    1.4505   -0.0354 C   0  0  0  0  0  0  0  0  0  0  0  0
   -6.0620    2.0131   -0.0324 C   0  0  0  0  0  0  0  0  0  0  0  0
   -7.2120    1.2601   -0.1089 C   0  0  0  0  0  0  0  0  0  0  0  0
   -7.0652   -0.0956   -0.1897 C   0  0  0  0  0  0  0  0  0  0  0  0
   -5.7929   -0.6647   -0.1925 C   0  0  0  0  0  0  0  0  0  0  0  0
   -5.7535   -2.4147   -0.3011 Cl  0  0  0  0  0  0  0  0  0  0  0  0
   -2.8793   -1.7625   -0.1855 N   0  0  0  0  0  0  0  0  0  0  0  0
   -1.5204   -1.8116   -0.1544 C   0  0  0  0  0  0  0  0  0  0  0  0
    1.3438   -3.3960   -0.1800 H   0  0  0  0  0  0  0  0  0  0  0  0
    3.1842   -1.8876   -0.0404 H   0  0  0  0  0  0  0  0  0  0  0  0
    5.0380   -1.2157   -1.0907 H   0  0  0  0  0  0  0  0  0  0  0  0
    7.4461   -0.6672   -0.9308 H   0  0  0  0  0  0  0  0  0  0  0  0
    8.1762    1.2535    0.3403 H   0  0  0  0  0  0  0  0  0  0  0  0
    6.6001    2.7018    1.4951 H   0  0  0  0  0  0  0  0  0  0  0  0
    4.2112    2.2290    1.3868 H   0  0  0  0  0  0  0  0  0  0  0  0
    2.4983    2.2764    0.1981 H   0  0  0  0  0  0  0  0  0  0  0  0
    0.0417    1.8168    0.1081 H   0  0  0  0  0  0  0  0  0  0  0  0
   -3.9018    2.0494    0.0253 H   0  0  0  0  0  0  0  0  0  0  0  0
   -6.1560    3.1029    0.0332 H   0  0  0  0  0  0  0  0  0  0  0  0
   -8.1911    1.7328   -0.1047 H   0  0  0  0  0  0  0  0  0  0  0  0
   -7.9401   -0.7180   -0.2509 H   0  0  0  0  0  0  0  0  0  0  0  0
   -3.4534   -2.6270   -0.2532 H   0  0  0  0  0  0  0  0  0  0  0  0
  1  2  2  0
  2  3  1  0
  3  4  1  0
  4  5  2  0
  5  6  1  0
  6  7  1  0
  7  8  2  0
  8  9  1  0
  9 10  2  0
 10 11  1  0
 11 12  2  0
  6 13  2  0
 13 14  1  0
 14 15  2  0
 15 16  1  0
 16 17  1  0
 17 18  2  0
 18 19  1  0
 19 20  2  0
 20 21  1  0
 21 22  2  0
 22 23  1  0
 23 24  2  0
 24 25  1  0
 18 26  1  0
 26 27  1  0
 27  2  1  0
 15  4  1  0
 27 16  2  0
 12  7  1  0
 24 19  1  0
  3 28  1  0
  5 29  1  0
  8 30  1  0
  9 31  1  0
 10 32  1  0
 11 33  1  0
 12 34  1  0
 13 35  1  0
 14 36  1  0
 20 37  1  0
 21 38  1  0
 22 39  1  0
 23 40  1  0
 26 41  1  0
M  END
$$$$
