@<TRIPOS>MOLECULE
*****
 59 64 0 0 0
SMALL
GASTEIGER

@<TRIPOS>ATOM
      1 C          -2.9123   -3.3885   -2.7633 C.3     1  UNL1        0.0788
      2 O          -2.7150   -2.2887   -1.9264 O.3     1  UNL1       -0.4948
      3 C          -1.5229   -1.7590   -1.5153 C.ar    1  UNL1        0.1238
      4 C          -1.3326   -0.6717   -0.6878 C.ar    1  UNL1        0.0010
      5 C          -0.0312   -0.2845   -0.3840 C.ar    1  UNL1       -0.0468
      6 C           1.0789   -0.9543   -0.8845 C.ar    1  UNL1       -0.0174
      7 C           0.8749   -2.0273   -1.7010 C.ar    1  UNL1       -0.0506
      8 C          -0.4068   -2.4292   -2.0159 C.ar    1  UNL1       -0.0191
      9 C           2.4454   -0.5420   -0.5619 C.ar    1  UNL1       -0.0173
     10 C           2.8970    0.0370    0.6057 C.ar    1  UNL1       -0.0463
     11 C           4.2194    0.3603    0.7381 C.ar    1  UNL1       -0.0173
     12 C           5.1680    0.1512   -0.2230 C.ar    1  UNL1       -0.0171
     13 C           4.7368   -0.4299   -1.4057 C.ar    1  UNL1       -0.0534
     14 C           3.4070   -0.7611   -1.5536 C.ar    1  UNL1       -0.0534
     15 C           6.4853    0.4821   -0.0689 C.ar    1  UNL1       -0.0400
     16 C           6.9283    1.0566    1.0932 C.ar    1  UNL1        0.0594
     17 C           5.9914    1.2801    2.0830 C.ar    1  UNL1       -0.0472
     18 C           4.6616    0.9390    1.9106 C.ar    1  UNL1       -0.0532
     19 C           8.3393    1.4191    1.2783 C.2     1  UNL1        0.3368
     20 O           9.2227    1.1674    0.2469 O.3     1  UNL1       -0.4771
     21 O           8.8008    1.9470    2.3203 O.2     1  UNL1       -0.2451
     22 C          -2.5316   -0.0010   -0.1877 C.3     1  UNL1       -0.0000
     23 C          -3.4252   -0.9039    0.6234 C.3     1  UNL1       -0.0404
     24 C          -4.7485   -0.1878    0.8741 C.3     1  UNL1       -0.0397
     25 C          -5.3965    0.2757   -0.4044 C.3     1  UNL1       -0.0473
     26 C          -4.5149    1.3439   -0.9727 C.3     1  UNL1       -0.0397
     27 C          -4.1868    2.4602   -0.0286 C.3     1  UNL1       -0.0473
     28 C          -3.4528    1.8594    1.1491 C.3     1  UNL1       -0.0397
     29 C          -4.4483    0.9441    1.8337 C.3     1  UNL1       -0.0473
     30 C          -2.1824    1.1523    0.7641 C.3     1  UNL1       -0.0404
     31 C          -3.2241    0.6571   -1.3561 C.3     1  UNL1       -0.0404
     32 H          -2.3379   -4.2763   -2.3795 H       1  UNL1        0.0660
     33 H          -2.7159   -3.2293   -3.8252 H       1  UNL1        0.0660
     34 H          -3.9899   -3.6969   -2.6617 H       1  UNL1        0.0660
     35 H           0.1014    0.5732    0.2687 H       1  UNL1        0.0628
     36 H           1.7304   -2.5790   -2.1132 H       1  UNL1        0.0625
     37 H          -0.4837   -3.3032   -2.6803 H       1  UNL1        0.0654
     38 H           2.1446    0.1960    1.3513 H       1  UNL1        0.0630
     39 H           5.4766   -0.6012   -2.1751 H       1  UNL1        0.0624
     40 H           3.1828   -1.2106   -2.5224 H       1  UNL1        0.0624
     41 H           7.1850    0.2925   -0.8634 H       1  UNL1        0.0632
     42 H           6.3665    1.7348    2.9910 H       1  UNL1        0.0626
     43 H           3.9698    1.1380    2.7224 H       1  UNL1        0.0624
     44 H          10.2087    1.3369    0.3831 H       1  UNL1        0.2954
     45 H          -3.5939   -1.8925    0.1979 H       1  UNL1        0.0276
     46 H          -2.9606   -0.9564    1.6530 H       1  UNL1        0.0276
     47 H          -5.4148   -0.9034    1.3909 H       1  UNL1        0.0301
     48 H          -6.4278    0.5552   -0.2056 H       1  UNL1        0.0271
     49 H          -5.3555   -0.5848   -1.1028 H       1  UNL1        0.0271
     50 H          -4.9555    1.7283   -1.9069 H       1  UNL1        0.0301
     51 H          -5.1308    2.8794    0.3760 H       1  UNL1        0.0271
     52 H          -3.6159    3.2131   -0.5743 H       1  UNL1        0.0271
     53 H          -3.1757    2.6429    1.9054 H       1  UNL1        0.0301
     54 H          -3.9502    0.4908    2.7074 H       1  UNL1        0.0271
     55 H          -5.3257    1.5478    2.1034 H       1  UNL1        0.0271
     56 H          -1.5022    1.8781    0.3195 H       1  UNL1        0.0276
     57 H          -1.7782    0.7078    1.6969 H       1  UNL1        0.0276
     58 H          -2.5507    1.4721   -1.7050 H       1  UNL1        0.0276
     59 H          -3.3260   -0.0570   -2.1676 H       1  UNL1        0.0276
@<TRIPOS>BOND
     1     1     2    1
     2     2     3    1
     3     3     4   ar
     4     4     5   ar
     5     5     6   ar
     6     6     7   ar
     7     7     8   ar
     8     6     9    1
     9     9    10   ar
    10    10    11   ar
    11    11    12   ar
    12    12    13   ar
    13    13    14   ar
    14    12    15   ar
    15    15    16   ar
    16    16    17   ar
    17    17    18   ar
    18    16    19    1
    19    19    20    1
    20    19    21    2
    21     4    22    1
    22    22    23    1
    23    23    24    1
    24    24    25    1
    25    25    26    1
    26    26    27    1
    27    27    28    1
    28    28    29    1
    29    28    30    1
    30    26    31    1
    31     8     3   ar
    32    14     9   ar
    33    30    22    1
    34    18    11   ar
    35    31    22    1
    36    29    24    1
    37     1    32    1
    38     1    33    1
    39     1    34    1
    40     5    35    1
    41     7    36    1
    42     8    37    1
    43    10    38    1
    44    13    39    1
    45    14    40    1
    46    15    41    1
    47    17    42    1
    48    18    43    1
    49    20    44    1
    50    23    45    1
    51    23    46    1
    52    24    47    1
    53    25    48    1
    54    25    49    1
    55    26    50    1
    56    27    51    1
    57    27    52    1
    58    28    53    1
    59    29    54    1
    60    29    55    1
    61    30    56    1
    62    30    57    1
    63    31    58    1
    64    31    59    1
