@<TRIPOS>MOLECULE
*****
 55 59 0 0 0
SMALL
GASTEIGER

@<TRIPOS>ATOM
      1 C          -3.7226    2.4962   -1.3161 C.3     1  UNL1        0.0083
      2 N          -4.3046    1.1750   -1.1721 N.am    1  UNL1       -0.2741
      3 C          -5.5031    0.7975   -1.8343 C.2     1  UNL1        0.2199
      4 O          -5.9083    1.4576   -2.8227 O.2     1  UNL1       -0.2753
      5 C          -6.2676   -0.3601   -1.3669 C.3     1  UNL1        0.0285
      6 C          -5.4236   -1.4794   -0.8517 C.3     1  UNL1       -0.0177
      7 C          -4.1865   -1.0379   -0.1874 C.ar    1  UNL1       -0.0254
      8 C          -3.5085   -1.9287    0.6396 C.ar    1  UNL1       -0.0550
      9 C          -2.3441   -1.5413    1.2757 C.ar    1  UNL1       -0.0400
     10 C          -1.8181   -0.2622    1.1114 C.ar    1  UNL1        0.0357
     11 N          -0.6274    0.1086    1.7959 N.pl3   1  UNL1       -0.2998
     12 C          -0.6395    0.4702    3.2033 C.3     1  UNL1        0.0176
     13 C           0.4918   -0.2110    3.9433 C.3     1  UNL1       -0.0328
     14 C           1.8041   -0.0112    3.2902 C.3     1  UNL1       -0.0245
     15 C           1.7881    0.0634    1.8116 C.ar    1  UNL1       -0.0254
     16 C           2.9833    0.0749    1.1010 C.ar    1  UNL1       -0.0486
     17 C           2.9729    0.1420   -0.2799 C.ar    1  UNL1       -0.0061
     18 C           4.2769    0.1760   -0.9253 C.ar    1  UNL1        0.0200
     19 C           4.6764    1.1117   -1.8429 C.ar    1  UNL1        0.0571
     20 N           5.9521    0.8097   -2.2224 N.ar    1  UNL1       -0.1793
     21 N           6.3588   -0.2690   -1.5816 N.ar    1  UNL1       -0.2739
     22 C           7.6289   -0.9697   -1.6492 C.3     1  UNL1        0.0302
     23 C           5.3427   -0.6822   -0.7723 C.ar    1  UNL1        0.0329
     24 C           1.7789    0.1975   -0.9724 C.ar    1  UNL1        0.0270
     25 C           1.7414    0.2417   -2.4402 C.3     1  UNL1        0.2650
     26 F           0.9813    1.3120   -2.9096 F       1  UNL1       -0.2039
     27 F           1.0499   -0.9017   -2.8581 F       1  UNL1       -0.2039
     28 C           0.5861    0.1871   -0.2782 C.ar    1  UNL1       -0.0310
     29 C           0.6138    0.1200    1.1082 C.ar    1  UNL1        0.0376
     30 C          -2.4821    0.6001    0.3056 C.ar    1  UNL1       -0.0186
     31 C          -3.6633    0.2272   -0.3479 C.ar    1  UNL1        0.0409
     32 H          -4.3600    3.0813   -2.0049 H       1  UNL1        0.0433
     33 H          -3.6262    3.0306   -0.3527 H       1  UNL1        0.0433
     34 H          -2.7341    2.3495   -1.8099 H       1  UNL1        0.0433
     35 H          -7.0160   -0.0347   -0.5984 H       1  UNL1        0.0362
     36 H          -6.8524   -0.7617   -2.2343 H       1  UNL1        0.0362
     37 H          -5.1851   -2.2047   -1.6771 H       1  UNL1        0.0318
     38 H          -6.0719   -2.0733   -0.1425 H       1  UNL1        0.0318
     39 H          -3.9243   -2.9280    0.7647 H       1  UNL1        0.0621
     40 H          -1.8027   -2.2183    1.9220 H       1  UNL1        0.0636
     41 H          -1.5878    0.0812    3.6278 H       1  UNL1        0.0468
     42 H          -0.6427    1.5675    3.3607 H       1  UNL1        0.0468
     43 H           0.2501   -1.2754    4.0923 H       1  UNL1        0.0284
     44 H           0.5207    0.2611    4.9623 H       1  UNL1        0.0284
     45 H           2.3788    0.8571    3.6776 H       1  UNL1        0.0314
     46 H           2.4588   -0.8988    3.5416 H       1  UNL1        0.0314
     47 H           3.8903    0.0290    1.6895 H       1  UNL1        0.0627
     48 H           4.1134    1.9740   -2.2340 H       1  UNL1        0.0854
     49 H           7.8333   -1.4927   -0.6798 H       1  UNL1        0.0473
     50 H           8.4728   -0.2569   -1.7771 H       1  UNL1        0.0473
     51 H           7.6596   -1.6928   -2.4808 H       1  UNL1        0.0473
     52 H           5.3484   -1.5368   -0.1122 H       1  UNL1        0.0832
     53 H           2.7140    0.2025   -2.9408 H       1  UNL1        0.1072
     54 H          -0.3712    0.2269   -0.7784 H       1  UNL1        0.0641
     55 H          -2.0942    1.5997    0.1625 H       1  UNL1        0.0655
@<TRIPOS>BOND
     1     1     2    1
     2     2     3   am
     3     3     4    2
     4     3     5    1
     5     5     6    1
     6     6     7    1
     7     7     8   ar
     8     8     9   ar
     9     9    10   ar
    10    10    11    1
    11    11    12    1
    12    12    13    1
    13    13    14    1
    14    14    15    1
    15    15    16   ar
    16    16    17   ar
    17    17    18    1
    18    18    19   ar
    19    19    20   ar
    20    20    21   ar
    21    21    22    1
    22    21    23   ar
    23    17    24   ar
    24    24    25    1
    25    25    26    1
    26    25    27    1
    27    24    28   ar
    28    28    29   ar
    29    10    30   ar
    30    30    31   ar
    31    31     2    1
    32    31     7   ar
    33    29    11    1
    34    29    15   ar
    35    23    18   ar
    36     1    32    1
    37     1    33    1
    38     1    34    1
    39     5    35    1
    40     5    36    1
    41     6    37    1
    42     6    38    1
    43     8    39    1
    44     9    40    1
    45    12    41    1
    46    12    42    1
    47    13    43    1
    48    13    44    1
    49    14    45    1
    50    14    46    1
    51    16    47    1
    52    19    48    1
    53    22    49    1
    54    22    50    1
    55    22    51    1
    56    23    52    1
    57    25    53    1
    58    28    54    1
    59    30    55    1
