
     RDKit          3D

 50 54  0  0  0  0  0  0  0  0999 V2000
   -3.3016   -3.2814    2.5489 O   0  0  0  0  0  0  0  0  0  0  0  0
   -2.1970   -3.1027    1.9433 C   0  0  0  0  0  0  0  0  0  0  0  0
   -1.0906   -3.8409    2.1471 N   0  0  0  0  0  0  0  0  0  0  0  0
   -0.1681   -3.3511    1.3406 N   0  0  0  0  0  0  0  0  0  0  0  0
   -0.6830   -2.3113    0.6308 C   0  0  0  0  0  0  0  0  0  0  0  0
    0.0104   -1.4976   -0.3691 C   0  0  0  0  0  0  0  0  0  0  0  0
   -0.5957   -1.0124   -1.5001 C   0  0  0  0  0  0  0  0  0  0  0  0
    0.0908   -0.2524   -2.4136 C   0  0  0  0  0  0  0  0  0  0  0  0
    1.3910    0.0412   -2.2228 N   0  0  0  0  0  0  0  0  0  0  0  0
    2.0585   -0.4107   -1.1148 C   0  0  0  0  0  0  0  0  0  0  0  0
    3.4310   -0.0756   -0.9915 N   0  0  0  0  0  0  0  0  0  0  0  0
    4.2707   -0.4212    0.1345 C   0  0  0  0  0  0  0  0  0  0  0  0
    3.9189    0.3383    1.3883 C   0  0  0  0  0  0  0  0  0  0  0  0
    3.8879    1.8035    0.9931 C   0  0  0  0  0  0  0  0  0  0  0  0
    5.1794    2.1603    0.6702 O   0  0  0  0  0  0  0  0  0  0  0  0
    5.7424    1.4563   -0.3575 C   0  0  0  0  0  0  0  0  0  0  0  0
    5.7223   -0.0439   -0.1819 C   0  0  0  0  0  0  0  0  0  0  0  0
    1.3555   -1.1710   -0.2106 C   0  0  0  0  0  0  0  0  0  0  0  0
   -1.9662   -2.1531    1.0110 N   0  0  0  0  0  0  0  0  0  0  0  0
   -2.8983   -1.1902    0.5381 C   0  0  0  0  0  0  0  0  0  0  0  0
   -4.0544   -1.6025   -0.1293 C   0  0  0  0  0  0  0  0  0  0  0  0
   -4.9569   -0.6658   -0.5868 C   0  0  0  0  0  0  0  0  0  0  0  0
   -4.7563    0.6850   -0.4066 C   0  0  0  0  0  0  0  0  0  0  0  0
   -5.6770    1.6191   -0.8745 C   0  0  0  0  0  0  0  0  0  0  0  0
   -5.4495    2.9635   -0.6795 C   0  0  0  0  0  0  0  0  0  0  0  0
   -6.3564    3.8743   -1.1409 F   0  0  0  0  0  0  0  0  0  0  0  0
   -4.3011    3.3679   -0.0169 C   0  0  0  0  0  0  0  0  0  0  0  0
   -3.3729    2.4725    0.4572 C   0  0  0  0  0  0  0  0  0  0  0  0
   -3.6278    1.1143    0.2462 C   0  0  0  0  0  0  0  0  0  0  0  0
   -2.7355    0.1689    0.6977 C   0  0  0  0  0  0  0  0  0  0  0  0
   -0.9927   -4.6534    2.8251 H   0  0  0  0  0  0  0  0  0  0  0  0
   -1.6293   -1.2313   -1.6756 H   0  0  0  0  0  0  0  0  0  0  0  0
   -0.4094    0.1257   -3.3101 H   0  0  0  0  0  0  0  0  0  0  0  0
    3.8588    0.4649   -1.7855 H   0  0  0  0  0  0  0  0  0  0  0  0
    4.2417   -1.5128    0.3289 H   0  0  0  0  0  0  0  0  0  0  0  0
    3.0308    0.0147    1.9097 H   0  0  0  0  0  0  0  0  0  0  0  0
    4.8375    0.2512    2.0475 H   0  0  0  0  0  0  0  0  0  0  0  0
    3.1405    2.0251    0.2305 H   0  0  0  0  0  0  0  0  0  0  0  0
    3.6106    2.3942    1.9050 H   0  0  0  0  0  0  0  0  0  0  0  0
    6.8361    1.7412   -0.3783 H   0  0  0  0  0  0  0  0  0  0  0  0
    5.3673    1.7708   -1.3668 H   0  0  0  0  0  0  0  0  0  0  0  0
    6.3207   -0.2748    0.7207 H   0  0  0  0  0  0  0  0  0  0  0  0
    6.0758   -0.5152   -1.0982 H   0  0  0  0  0  0  0  0  0  0  0  0
    1.8629   -1.5446    0.6565 H   0  0  0  0  0  0  0  0  0  0  0  0
   -4.2040   -2.6600   -0.2662 H   0  0  0  0  0  0  0  0  0  0  0  0
   -5.8403   -1.0433   -1.1000 H   0  0  0  0  0  0  0  0  0  0  0  0
   -6.5446    1.2249   -1.3796 H   0  0  0  0  0  0  0  0  0  0  0  0
   -4.1203    4.4418    0.1383 H   0  0  0  0  0  0  0  0  0  0  0  0
   -2.4661    2.7716    0.9794 H   0  0  0  0  0  0  0  0  0  0  0  0
   -1.8463    0.5280    1.2131 H   0  0  0  0  0  0  0  0  0  0  0  0
  1  2  2  0
  2  3  1  0
  3  4  1  0
  4  5  2  0
  5  6  1  0
  6  7  2  0
  7  8  1  0
  8  9  2  0
  9 10  1  0
 10 11  1  0
 11 12  1  0
 12 13  1  0
 13 14  1  0
 14 15  1  0
 15 16  1  0
 16 17  1  0
 10 18  2  0
  5 19  1  0
 19 20  1  0
 20 21  2  0
 21 22  1  0
 22 23  2  0
 23 24  1  0
 24 25  2  0
 25 26  1  0
 25 27  1  0
 27 28  2  0
 28 29  1  0
 29 30  2  0
 19  2  1  0
 30 20  1  0
 18  6  1  0
 29 23  1  0
 17 12  1  0
  3 31  1  0
  7 32  1  0
  8 33  1  0
 11 34  1  0
 12 35  1  0
 13 36  1  0
 13 37  1  0
 14 38  1  0
 14 39  1  0
 16 40  1  0
 16 41  1  0
 17 42  1  0
 17 43  1  0
 18 44  1  0
 21 45  1  0
 22 46  1  0
 24 47  1  0
 27 48  1  0
 28 49  1  0
 30 50  1  0
M  END
$$$$
