@<TRIPOS>MOLECULE
*****
 50 54 0 0 0
SMALL
GASTEIGER

@<TRIPOS>ATOM
      1 O          -3.3016   -3.2814    2.5489 O.2     1  UNL1       -0.2446
      2 C          -2.1970   -3.1027    1.9433 C.ar    1  UNL1        0.3489
      3 N          -1.0906   -3.8409    2.1471 N.ar    1  UNL1       -0.2260
      4 N          -0.1681   -3.3511    1.3406 N.ar    1  UNL1       -0.1509
      5 C          -0.6830   -2.3113    0.6308 C.ar    1  UNL1        0.1693
      6 C           0.0104   -1.4976   -0.3691 C.ar    1  UNL1        0.0243
      7 C          -0.5957   -1.0124   -1.5001 C.ar    1  UNL1       -0.0327
      8 C           0.0908   -0.2524   -2.4136 C.ar    1  UNL1        0.0304
      9 N           1.3910    0.0412   -2.2228 N.ar    1  UNL1       -0.2405
     10 C           2.0585   -0.4107   -1.1148 C.ar    1  UNL1        0.1195
     11 N           3.4310   -0.0756   -0.9915 N.pl3   1  UNL1       -0.3261
     12 C           4.2707   -0.4212    0.1345 C.3     1  UNL1        0.0261
     13 C           3.9189    0.3383    1.3883 C.3     1  UNL1       -0.0109
     14 C           3.8879    1.8035    0.9931 C.3     1  UNL1        0.0493
     15 O           5.1794    2.1603    0.6702 O.3     1  UNL1       -0.3796
     16 C           5.7424    1.4563   -0.3575 C.3     1  UNL1        0.0493
     17 C           5.7223   -0.0439   -0.1819 C.3     1  UNL1       -0.0109
     18 C           1.3555   -1.1710   -0.2106 C.ar    1  UNL1       -0.0112
     19 N          -1.9662   -2.1531    1.0110 N.ar    1  UNL1       -0.2437
     20 C          -2.8983   -1.1902    0.5381 C.ar    1  UNL1        0.0535
     21 C          -4.0544   -1.6025   -0.1293 C.ar    1  UNL1       -0.0370
     22 C          -4.9569   -0.6658   -0.5868 C.ar    1  UNL1       -0.0520
     23 C          -4.7563    0.6850   -0.4066 C.ar    1  UNL1       -0.0150
     24 C          -5.6770    1.6191   -0.8745 C.ar    1  UNL1       -0.0187
     25 C          -5.4495    2.9635   -0.6795 C.ar    1  UNL1        0.1240
     26 F          -6.3564    3.8743   -1.1409 F       1  UNL1       -0.2055
     27 C          -4.3011    3.3679   -0.0169 C.ar    1  UNL1       -0.0259
     28 C          -3.3729    2.4725    0.4572 C.ar    1  UNL1       -0.0513
     29 C          -3.6278    1.1143    0.2462 C.ar    1  UNL1       -0.0158
     30 C          -2.7355    0.1689    0.6977 C.ar    1  UNL1       -0.0299
     31 H          -0.9927   -4.6534    2.8251 H       1  UNL1        0.1937
     32 H          -1.6293   -1.2313   -1.6756 H       1  UNL1        0.0640
     33 H          -0.4094    0.1257   -3.3101 H       1  UNL1        0.0830
     34 H           3.8588    0.4649   -1.7855 H       1  UNL1        0.1477
     35 H           4.2417   -1.5128    0.3289 H       1  UNL1        0.0499
     36 H           3.0308    0.0147    1.9097 H       1  UNL1        0.0305
     37 H           4.8375    0.2512    2.0475 H       1  UNL1        0.0305
     38 H           3.1405    2.0251    0.2305 H       1  UNL1        0.0560
     39 H           3.6106    2.3942    1.9050 H       1  UNL1        0.0560
     40 H           6.8361    1.7412   -0.3783 H       1  UNL1        0.0560
     41 H           5.3673    1.7708   -1.3668 H       1  UNL1        0.0560
     42 H           6.3207   -0.2748    0.7207 H       1  UNL1        0.0305
     43 H           6.0758   -0.5152   -1.0982 H       1  UNL1        0.0305
     44 H           1.8629   -1.5446    0.6565 H       1  UNL1        0.0659
     45 H          -4.2040   -2.6600   -0.2662 H       1  UNL1        0.0638
     46 H          -5.8403   -1.0433   -1.1000 H       1  UNL1        0.0624
     47 H          -6.5446    1.2249   -1.3796 H       1  UNL1        0.0652
     48 H          -4.1203    4.4418    0.1383 H       1  UNL1        0.0646
     49 H          -2.4661    2.7716    0.9794 H       1  UNL1        0.0624
     50 H          -1.8463    0.5280    1.2131 H       1  UNL1        0.0644
@<TRIPOS>BOND
     1     1     2    2
     2     2     3   ar
     3     3     4   ar
     4     4     5   ar
     5     5     6    1
     6     6     7   ar
     7     7     8   ar
     8     8     9   ar
     9     9    10   ar
    10    10    11    1
    11    11    12    1
    12    12    13    1
    13    13    14    1
    14    14    15    1
    15    15    16    1
    16    16    17    1
    17    10    18   ar
    18     5    19   ar
    19    19    20    1
    20    20    21   ar
    21    21    22   ar
    22    22    23   ar
    23    23    24   ar
    24    24    25   ar
    25    25    26    1
    26    25    27   ar
    27    27    28   ar
    28    28    29   ar
    29    29    30   ar
    30    19     2   ar
    31    30    20   ar
    32    18     6   ar
    33    29    23   ar
    34    17    12    1
    35     3    31    1
    36     7    32    1
    37     8    33    1
    38    11    34    1
    39    12    35    1
    40    13    36    1
    41    13    37    1
    42    14    38    1
    43    14    39    1
    44    16    40    1
    45    16    41    1
    46    17    42    1
    47    17    43    1
    48    18    44    1
    49    21    45    1
    50    22    46    1
    51    24    47    1
    52    27    48    1
    53    28    49    1
    54    30    50    1
