@<TRIPOS>MOLECULE
*****
 90 93 0 0 0
SMALL
GASTEIGER

@<TRIPOS>ATOM
      1 C           8.1720   -3.1402    2.9188 C.3     1  UNK1        0.0276
      2 C           7.0241   -2.1993    2.8381 C.2     1  UNK1        0.2722
      3 O           5.7990   -2.4918    2.9358 O.2     1  UNK1       -0.2577
      4 N           7.3130   -0.8162    2.6258 N.am    1  UNK1       -0.1751
      5 C           6.2358    0.1158    2.5356 C.2     1  UNK1        0.3773
      6 N           6.6418    1.4761    2.3153 N.pl3   1  UNK1       -0.2905
      7 N           4.9771   -0.2398    2.6476 N.pl3   1  UNK1       -0.1152
      8 C           3.9865    0.8476    2.5311 C.3     1  UNK1        0.1046
      9 C           3.6716    1.0942    1.0666 C.3     1  UNK1       -0.0165
     10 C           3.0919   -0.1230    0.4039 C.3     1  UNK1       -0.0230
     11 C           2.8165    0.0950   -1.0415 C.3     1  UNK1        0.0997
     12 N           1.9026    1.1447   -1.3742 N.am    1  UNK1       -0.3025
     13 C           0.5827    1.3151   -0.8778 C.2     5  UNK5        0.2339
     14 O           0.4103    0.4134   -0.0357 O.2     5  UNK5       -0.2738
     15 C          -0.6235    2.1999   -1.0362 C.3     5  UNK5        0.0994
     16 C          -0.2354    3.5946   -0.7644 C.3     5  UNK5       -0.0255
     17 C          -1.3022    4.6098   -0.9145 C.3     5  UNK5       -0.0409
     18 C          -2.5230    4.4417   -0.0731 C.3     5  UNK5        0.0448
     19 C          -3.4474    5.6128   -0.3555 C.2     5  UNK5        0.3047
     20 O          -4.6443    5.6160    0.3508 O.3     5  UNK5       -0.4806
     21 O          -3.1844    6.5389   -1.1664 O.2     5  UNK5       -0.2510
     22 N          -1.6823    1.7482   -0.1622 N.am    5  UNK5       -0.3025
     23 C          -2.6662    0.7549   -0.3827 C.2     4  HIS4        0.2346
     24 O          -2.3286    0.1994   -1.4467 O.2     4  HIS4       -0.2737
     25 CA         -3.8921    0.1218    0.1292 C.3     4  HIS4        0.1099
     26 CB         -4.1659    0.4848    1.5233 C.3     4  HIS4        0.0163
     27 CG         -5.4272   -0.0472    2.0896 C.ar    4  HIS4        0.0376
     28 CD2        -6.4484   -0.7958    1.5372 C.ar    4  HIS4        0.0485
     29 NE2        -7.3725   -0.9119    2.5398 N.ar    4  HIS4       -0.2440
     30 CE1        -6.9217   -0.2629    3.6448 C.ar    4  HIS4        0.0935
     31 ND1        -5.6990    0.2793    3.3613 N.ar    4  HIS4       -0.3481
     32 N          -3.7733   -1.3192   -0.1430 N.am    3  ASN3       -0.2623
     33 CG         -3.7800   -2.4076    0.8100 C.3     3  ASN3        0.1268
     34 OD1        -3.5455   -2.0055    2.1262 O.3     3  ASN3       -0.3741
     35 CB         -2.5151   -3.2221    0.4592 C.3     3  ASN3        0.0172
     36 CA         -2.5676   -3.2488   -1.0880 C.3     3  ASN3        0.1036
     37 N          -1.2938   -2.8241   -1.5976 N.am    3  ASN3       -0.3023
     38 C          -0.2927   -3.1342   -2.5391 C.2     2  PRO2        0.2342
     39 O          -0.8907   -4.1342   -3.0065 O.2     2  PRO2       -0.2738
     40 CA          1.0119   -2.8814   -3.1955 C.3     2  PRO2        0.1023
     41 CB          0.8958   -2.6931   -4.6661 C.3     2  PRO2       -0.0243
     42 CG          0.7580   -1.2155   -4.8704 C.3     2  PRO2       -0.0350
     43 CD          0.8095   -0.6436   -3.4556 C.3     2  PRO2        0.0156
     44 N           1.4968   -1.6099   -2.6505 N.am    2  PRO2       -0.2884
     45 C           2.4379   -1.2040   -1.6465 C.2     1  UNK1        0.2365
     46 O           2.8426   -2.3658   -1.4660 O.2     1  UNK1       -0.2735
     47 C          -3.6254   -2.2097   -1.2469 C.2     3  ASN3        0.2386
     48 O          -4.5448   -1.6136   -1.8446 O.2     3  ASN3       -0.2735
     49 H           8.9149   -2.7073    3.6438 H       1  UNK1        0.0337
     50 H           8.7272   -3.2389    1.9565 H       1  UNK1        0.0337
     51 H           7.8937   -4.1322    3.2816 H       1  UNK1        0.0337
     52 H           8.3099   -0.5236    2.5394 H       1  UNK1        0.2541
     53 H           6.9998    1.7714    1.3819 H       1  UNK1        0.2545
     54 H           6.5839    2.1916    3.0911 H       1  UNK1        0.2545
     55 H           3.0932    0.4936    3.0842 H       1  UNK1        0.0693
     56 H           4.3836    1.7577    3.0108 H       1  UNK1        0.0693
     57 H           2.9875    1.9738    1.0543 H       1  UNK1        0.0298
     58 H           4.5965    1.4240    0.5520 H       1  UNK1        0.0298
     59 H           2.2816   -0.5875    0.9778 H       1  UNK1        0.0289
     60 H           3.9225   -0.8898    0.4330 H       1  UNK1        0.0289
     61 H           3.8008    0.4067   -1.4917 H       1  UNK1        0.0594
     62 H           1.7964    2.0042   -1.9328 H       1  UNK1        0.1495
     63 H          -0.9864    2.0103   -2.0723 H       5  UNK5        0.0594
     64 H           0.1937    3.6800    0.2699 H       5  UNK5        0.0288
     65 H           0.6275    3.9148   -1.4187 H       5  UNK5        0.0288
     66 H          -1.5713    4.7699   -1.9958 H       5  UNK5        0.0271
     67 H          -0.8370    5.6035   -0.6109 H       5  UNK5        0.0271
     68 H          -2.3514    4.3998    0.9933 H       5  UNK5        0.0377
     69 H          -3.1376    3.5751   -0.4654 H       5  UNK5        0.0377
     70 H          -5.1941    6.4807    0.4570 H       5  UNK5        0.2951
     71 H          -2.0940    1.8882    0.7761 H       5  UNK5        0.1495
     72 HA         -4.7699    0.5217   -0.4775 H       4  HIS4        0.0601
     73 HB1        -3.2767    0.3010    2.1537 H       4  HIS4        0.0351
     74 HB2        -4.2813    1.6110    1.5459 H       4  HIS4        0.0351
     75 HD2        -6.4387   -1.2131    0.5387 H       4  HIS4        0.0848
     76 HE1        -7.6764   -0.3763    4.4157 H       4  HIS4        0.1027
     77 HD1        -5.3537    0.7829    4.2018 H       4  HIS4        0.1665
     78 HG         -4.6030   -3.1180    0.6903 H       3  ASN3        0.0808
     79 HD1        -4.0936   -2.5288    2.7739 H       3  ASN3        0.2117
     80 HB1        -1.6041   -2.7173    0.7772 H       3  ASN3        0.0329
     81 HB2        -2.6037   -4.2735    0.7769 H       3  ASN3        0.0329
     82 HA         -2.8848   -4.2264   -1.4455 H       3  ASN3        0.0596
     83 H          -0.7131   -2.0184   -1.3091 H       3  ASN3        0.1495
     84 HA          1.7390   -3.6967   -2.9859 H       2  PRO2        0.0597
     85 HB1        -0.0037   -3.2554   -5.0081 H       2  PRO2        0.0288
     86 HB2         1.7474   -3.0829   -5.2204 H       2  PRO2        0.0288
     87 HG1         1.5789   -0.8007   -5.4942 H       2  PRO2        0.0281
     88 HG2        -0.2550   -1.0030   -5.2618 H       2  PRO2        0.0281
     89 HD1         1.2696    0.3704   -3.4889 H       2  PRO2        0.0465
     90 HD2        -0.2023   -0.4862   -3.0413 H       2  PRO2        0.0465
@<TRIPOS>BOND
     1     1     2    1
     2     2     3    2
     3     2     4   am
     4     4     5    1
     5     5     6    1
     6     5     7    2
     7     7     8    1
     8     8     9    1
     9     9    10    1
    10    10    11    1
    11    11    12    1
    12    12    13   am
    13    13    14    2
    14    13    15    1
    15    15    16    1
    16    16    17    1
    17    17    18    1
    18    18    19    1
    19    19    20    1
    20    19    21    2
    21    15    22    1
    22    22    23   am
    23    23    24    2
    24    23    25    1
    25    25    26    1
    26    26    27    1
    27    27    28   ar
    28    28    29   ar
    29    29    30   ar
    30    30    31   ar
    31    25    32    1
    32    32    33    1
    33    33    34    1
    34    33    35    1
    35    35    36    1
    36    36    37    1
    37    37    38   am
    38    38    39    2
    39    38    40    1
    40    40    41    1
    41    41    42    1
    42    42    43    1
    43    43    44    1
    44    44    45   am
    45    45    46    2
    46    36    47    1
    47    47    48    2
    48    45    11    1
    49    31    27   ar
    50    47    32   am
    51    44    40    1
    52     1    49    1
    53     1    50    1
    54     1    51    1
    55     4    52    1
    56     6    53    1
    57     6    54    1
    58     8    55    1
    59     8    56    1
    60     9    57    1
    61     9    58    1
    62    10    59    1
    63    10    60    1
    64    11    61    1
    65    12    62    1
    66    15    63    1
    67    16    64    1
    68    16    65    1
    69    17    66    1
    70    17    67    1
    71    18    68    1
    72    18    69    1
    73    20    70    1
    74    22    71    1
    75    25    72    1
    76    26    73    1
    77    26    74    1
    78    28    75    1
    79    30    76    1
    80    31    77    1
    81    33    78    1
    82    34    79    1
    83    35    80    1
    84    35    81    1
    85    36    82    1
    86    37    83    1
    87    40    84    1
    88    41    85    1
    89    41    86    1
    90    42    87    1
    91    42    88    1
    92    43    89    1
    93    43    90    1
