
     RDKit          3D

 90 93  0  0  0  0  0  0  0  0999 V2000
    8.1720   -3.1402    2.9188 C   0  0  0  0  0  0  0  0  0  0  0  0
    7.0241   -2.1993    2.8381 C   0  0  0  0  0  0  0  0  0  0  0  0
    5.7990   -2.4918    2.9358 O   0  0  0  0  0  0  0  0  0  0  0  0
    7.3130   -0.8162    2.6258 N   0  0  0  0  0  0  0  0  0  0  0  0
    6.2358    0.1158    2.5356 C   0  0  0  0  0  0  0  0  0  0  0  0
    6.6418    1.4761    2.3153 N   0  0  0  0  0  0  0  0  0  0  0  0
    4.9771   -0.2398    2.6476 N   0  0  0  0  0  0  0  0  0  0  0  0
    3.9865    0.8476    2.5311 C   0  0  0  0  0  0  0  0  0  0  0  0
    3.6716    1.0942    1.0666 C   0  0  0  0  0  0  0  0  0  0  0  0
    3.0919   -0.1230    0.4039 C   0  0  0  0  0  0  0  0  0  0  0  0
    2.8165    0.0950   -1.0415 C   0  0  2  0  0  0  0  0  0  0  0  0
    1.9026    1.1447   -1.3742 N   0  0  0  0  0  0  0  0  0  0  0  0
    0.5827    1.3151   -0.8778 C   0  0  0  0  0  0  0  0  0  0  0  0
    0.4103    0.4134   -0.0357 O   0  0  0  0  0  0  0  0  0  0  0  0
   -0.6235    2.1999   -1.0362 C   0  0  2  0  0  0  0  0  0  0  0  0
   -0.2354    3.5946   -0.7644 C   0  0  0  0  0  0  0  0  0  0  0  0
   -1.3022    4.6098   -0.9145 C   0  0  0  0  0  0  0  0  0  0  0  0
   -2.5230    4.4417   -0.0731 C   0  0  0  0  0  0  0  0  0  0  0  0
   -3.4474    5.6128   -0.3555 C   0  0  0  0  0  0  0  0  0  0  0  0
   -4.6443    5.6160    0.3508 O   0  0  0  0  0  0  0  0  0  0  0  0
   -3.1844    6.5389   -1.1664 O   0  0  0  0  0  0  0  0  0  0  0  0
   -1.6823    1.7482   -0.1622 N   0  0  0  0  0  0  0  0  0  0  0  0
   -2.6662    0.7549   -0.3827 C   0  0  0  0  0  0  0  0  0  0  0  0
   -2.3286    0.1994   -1.4467 O   0  0  0  0  0  0  0  0  0  0  0  0
   -3.8921    0.1218    0.1292 C   0  0  2  0  0  0  0  0  0  0  0  0
   -4.1659    0.4848    1.5233 C   0  0  0  0  0  0  0  0  0  0  0  0
   -5.4272   -0.0472    2.0896 C   0  0  0  0  0  0  0  0  0  0  0  0
   -6.4484   -0.7958    1.5372 C   0  0  0  0  0  0  0  0  0  0  0  0
   -7.3725   -0.9119    2.5398 N   0  0  0  0  0  0  0  0  0  0  0  0
   -6.9217   -0.2629    3.6448 C   0  0  0  0  0  0  0  0  0  0  0  0
   -5.6990    0.2793    3.3613 N   0  0  0  0  0  0  0  0  0  0  0  0
   -3.7733   -1.3192   -0.1430 N   0  0  0  0  0  0  0  0  0  0  0  0
   -3.7800   -2.4076    0.8100 C   0  0  2  0  0  0  0  0  0  0  0  0
   -3.5455   -2.0055    2.1262 O   0  0  0  0  0  0  0  0  0  0  0  0
   -2.5151   -3.2221    0.4592 C   0  0  0  0  0  0  0  0  0  0  0  0
   -2.5676   -3.2488   -1.0880 C   0  0  2  0  0  0  0  0  0  0  0  0
   -1.2938   -2.8241   -1.5976 N   0  0  0  0  0  0  0  0  0  0  0  0
   -0.2927   -3.1342   -2.5391 C   0  0  0  0  0  0  0  0  0  0  0  0
   -0.8907   -4.1342   -3.0065 O   0  0  0  0  0  0  0  0  0  0  0  0
    1.0119   -2.8814   -3.1955 C   0  0  1  0  0  0  0  0  0  0  0  0
    0.8958   -2.6931   -4.6661 C   0  0  0  0  0  0  0  0  0  0  0  0
    0.7580   -1.2155   -4.8704 C   0  0  0  0  0  0  0  0  0  0  0  0
    0.8095   -0.6436   -3.4556 C   0  0  0  0  0  0  0  0  0  0  0  0
    1.4968   -1.6099   -2.6505 N   0  0  0  0  0  0  0  0  0  0  0  0
    2.4379   -1.2040   -1.6465 C   0  0  0  0  0  0  0  0  0  0  0  0
    2.8426   -2.3658   -1.4660 O   0  0  0  0  0  0  0  0  0  0  0  0
   -3.6254   -2.2097   -1.2469 C   0  0  0  0  0  0  0  0  0  0  0  0
   -4.5448   -1.6136   -1.8446 O   0  0  0  0  0  0  0  0  0  0  0  0
    8.9149   -2.7073    3.6438 H   0  0  0  0  0  0  0  0  0  0  0  0
    8.7272   -3.2389    1.9565 H   0  0  0  0  0  0  0  0  0  0  0  0
    7.8937   -4.1322    3.2816 H   0  0  0  0  0  0  0  0  0  0  0  0
    8.3099   -0.5236    2.5394 H   0  0  0  0  0  0  0  0  0  0  0  0
    6.9998    1.7714    1.3819 H   0  0  0  0  0  0  0  0  0  0  0  0
    6.5839    2.1916    3.0911 H   0  0  0  0  0  0  0  0  0  0  0  0
    3.0932    0.4936    3.0842 H   0  0  0  0  0  0  0  0  0  0  0  0
    4.3836    1.7577    3.0108 H   0  0  0  0  0  0  0  0  0  0  0  0
    2.9875    1.9738    1.0543 H   0  0  0  0  0  0  0  0  0  0  0  0
    4.5965    1.4240    0.5520 H   0  0  0  0  0  0  0  0  0  0  0  0
    2.2816   -0.5875    0.9778 H   0  0  0  0  0  0  0  0  0  0  0  0
    3.9225   -0.8898    0.4330 H   0  0  0  0  0  0  0  0  0  0  0  0
    3.8008    0.4067   -1.4917 H   0  0  0  0  0  0  0  0  0  0  0  0
    1.7964    2.0042   -1.9328 H   0  0  0  0  0  0  0  0  0  0  0  0
   -0.9864    2.0103   -2.0723 H   0  0  0  0  0  0  0  0  0  0  0  0
    0.1937    3.6800    0.2699 H   0  0  0  0  0  0  0  0  0  0  0  0
    0.6275    3.9148   -1.4187 H   0  0  0  0  0  0  0  0  0  0  0  0
   -1.5713    4.7699   -1.9958 H   0  0  0  0  0  0  0  0  0  0  0  0
   -0.8370    5.6035   -0.6109 H   0  0  0  0  0  0  0  0  0  0  0  0
   -2.3514    4.3998    0.9933 H   0  0  0  0  0  0  0  0  0  0  0  0
   -3.1376    3.5751   -0.4654 H   0  0  0  0  0  0  0  0  0  0  0  0
   -5.1941    6.4807    0.4570 H   0  0  0  0  0  0  0  0  0  0  0  0
   -2.0940    1.8882    0.7761 H   0  0  0  0  0  0  0  0  0  0  0  0
   -4.7699    0.5217   -0.4775 H   0  0  0  0  0  0  0  0  0  0  0  0
   -3.2767    0.3010    2.1537 H   0  0  0  0  0  0  0  0  0  0  0  0
   -4.2813    1.6110    1.5459 H   0  0  0  0  0  0  0  0  0  0  0  0
   -6.4387   -1.2131    0.5387 H   0  0  0  0  0  0  0  0  0  0  0  0
   -7.6764   -0.3763    4.4157 H   0  0  0  0  0  0  0  0  0  0  0  0
   -5.3537    0.7829    4.2018 H   0  0  0  0  0  0  0  0  0  0  0  0
   -4.6030   -3.1180    0.6903 H   0  0  0  0  0  0  0  0  0  0  0  0
   -4.0936   -2.5288    2.7739 H   0  0  0  0  0  0  0  0  0  0  0  0
   -1.6041   -2.7173    0.7772 H   0  0  0  0  0  0  0  0  0  0  0  0
   -2.6037   -4.2735    0.7769 H   0  0  0  0  0  0  0  0  0  0  0  0
   -2.8848   -4.2264   -1.4455 H   0  0  0  0  0  0  0  0  0  0  0  0
   -0.7131   -2.0184   -1.3091 H   0  0  0  0  0  0  0  0  0  0  0  0
    1.7390   -3.6967   -2.9859 H   0  0  0  0  0  0  0  0  0  0  0  0
   -0.0037   -3.2554   -5.0081 H   0  0  0  0  0  0  0  0  0  0  0  0
    1.7474   -3.0829   -5.2204 H   0  0  0  0  0  0  0  0  0  0  0  0
    1.5789   -0.8007   -5.4942 H   0  0  0  0  0  0  0  0  0  0  0  0
   -0.2550   -1.0030   -5.2618 H   0  0  0  0  0  0  0  0  0  0  0  0
    1.2696    0.3704   -3.4889 H   0  0  0  0  0  0  0  0  0  0  0  0
   -0.2023   -0.4862   -3.0413 H   0  0  0  0  0  0  0  0  0  0  0  0
  1  2  1  0
  2  3  2  0
  2  4  1  0
  4  5  1  0
  5  6  1  0
  5  7  2  0
  7  8  1  0
  8  9  1  0
  9 10  1  0
 10 11  1  0
 11 12  1  0
 12 13  1  0
 13 14  2  0
 13 15  1  0
 15 16  1  0
 16 17  1  0
 17 18  1  0
 18 19  1  0
 19 20  1  0
 19 21  2  0
 15 22  1  0
 22 23  1  0
 23 24  2  0
 23 25  1  0
 25 26  1  0
 26 27  1  0
 27 28  2  0
 28 29  1  0
 29 30  2  0
 30 31  1  0
 25 32  1  0
 32 33  1  0
 33 34  1  0
 33 35  1  0
 35 36  1  0
 36 37  1  0
 37 38  1  0
 38 39  2  0
 38 40  1  0
 40 41  1  0
 41 42  1  0
 42 43  1  0
 43 44  1  0
 44 45  1  0
 45 46  2  0
 36 47  1  0
 47 48  2  0
 45 11  1  0
 31 27  1  0
 47 32  1  0
 44 40  1  0
  1 49  1  0
  1 50  1  0
  1 51  1  0
  4 52  1  0
  6 53  1  0
  6 54  1  0
  8 55  1  0
  8 56  1  0
  9 57  1  0
  9 58  1  0
 10 59  1  0
 10 60  1  0
 11 61  1  6
 12 62  1  0
 15 63  1  6
 16 64  1  0
 16 65  1  0
 17 66  1  0
 17 67  1  0
 18 68  1  0
 18 69  1  0
 20 70  1  0
 22 71  1  0
 25 72  1  6
 26 73  1  0
 26 74  1  0
 28 75  1  0
 30 76  1  0
 31 77  1  0
 33 78  1  1
 34 79  1  0
 35 80  1  0
 35 81  1  0
 36 82  1  1
 37 83  1  0
 40 84  1  6
 41 85  1  0
 41 86  1  0
 42 87  1  0
 42 88  1  0
 43 89  1  0
 43 90  1  0
M  END
$$$$
