@<TRIPOS>MOLECULE
*****
 47 50 0 0 0
SMALL
GASTEIGER

@<TRIPOS>ATOM
      1 C          10.0473   -1.0208    0.3430 C.3     1  UNL1       -0.0022
      2 C           8.5824   -0.8305    0.3041 C.1     1  UNL1       -0.1003
      3 C           7.3861   -0.6577    0.2602 C.1     1  UNL1       -0.0651
      4 C           5.9666   -0.4456    0.2291 C.ar    1  UNL1        0.0430
      5 C           5.3621    0.7122    0.6713 C.ar    1  UNL1       -0.0427
      6 C           3.9895    0.8697    0.6222 C.ar    1  UNL1       -0.0300
      7 C           3.1944   -0.1236    0.1315 C.ar    1  UNL1        0.1257
      8 C           1.7150    0.0097    0.0647 C.2     1  UNL1        0.2666
      9 O           1.1960    1.0638    0.4702 O.2     1  UNL1       -0.2682
     10 N           0.9636   -1.0399   -0.4448 N.am    1  UNL1       -0.2802
     11 C          -0.4406   -1.0675   -0.5724 C.ar    1  UNL1        0.0342
     12 C          -1.0538   -2.2137   -1.1219 C.ar    1  UNL1       -0.0377
     13 C          -2.4134   -2.2876   -1.2632 C.ar    1  UNL1       -0.0243
     14 C          -3.2343   -1.2528   -0.8771 C.ar    1  UNL1        0.1292
     15 F          -4.5887   -1.3538   -1.0298 F       1  UNL1       -0.2051
     16 C          -2.6220   -0.1398   -0.3422 C.ar    1  UNL1        0.0228
     17 C          -3.5216    0.9767    0.0804 C.3     1  UNL1        0.1603
     18 C          -2.8268    2.1547    0.6643 C.3     1  UNL1        0.2686
     19 F          -1.9240    2.7847   -0.1586 F       1  UNL1       -0.2062
     20 F          -2.1851    1.8035    1.8248 F       1  UNL1       -0.2062
     21 N          -4.2243    1.3632   -1.1280 N.2     1  UNL1       -0.2194
     22 C          -5.4756    1.5146   -1.2665 C.2     1  UNL1        0.2764
     23 N          -6.0466    1.8992   -2.5122 N.pl3   1  UNL1       -0.3134
     24 O          -6.2878    1.2935   -0.1591 O.2     1  UNL1       -0.4622
     25 C          -5.8538    0.5482    0.9266 C.3     1  UNL1        0.1091
     26 C          -5.2262    1.3048    2.0456 C.3     1  UNL1       -0.0064
     27 C          -4.4234    0.4001    1.1451 C.3     1  UNL1        0.0344
     28 C          -1.2579   -0.0358   -0.1873 C.ar    1  UNL1       -0.0321
     29 N           3.7682   -1.2547   -0.3021 N.ar    1  UNL1       -0.2491
     30 C           5.1084   -1.4352   -0.2654 C.ar    1  UNL1        0.0438
     31 H          10.3630   -1.4567    1.3304 H       1  UNL1        0.0362
     32 H          10.5013   -0.0273    0.2800 H       1  UNL1        0.0362
     33 H          10.3792   -1.7233   -0.4436 H       1  UNL1        0.0362
     34 H           6.0093    1.4873    1.0560 H       1  UNL1        0.0631
     35 H           3.5677    1.7770    0.9737 H       1  UNL1        0.0641
     36 H           1.4678   -1.9227   -0.7795 H       1  UNL1        0.1552
     37 H          -0.4125   -3.0348   -1.4289 H       1  UNL1        0.0637
     38 H          -2.8541   -3.1843   -1.6898 H       1  UNL1        0.0647
     39 H          -3.6190    2.9408    0.8614 H       1  UNL1        0.1047
     40 H          -7.0731    1.8508   -2.6223 H       1  UNL1        0.1466
     41 H          -5.4369    2.2200   -3.2862 H       1  UNL1        0.1466
     42 H          -6.5531   -0.2862    1.2132 H       1  UNL1        0.0737
     43 H          -5.4524    0.9648    3.0922 H       1  UNL1        0.0306
     44 H          -5.2070    2.3880    1.9694 H       1  UNL1        0.0306
     45 H          -4.0670   -0.5164    1.6815 H       1  UNL1        0.0366
     46 H          -0.8381    0.8870    0.2537 H       1  UNL1        0.0640
     47 H           5.5511   -2.3402   -0.6135 H       1  UNL1        0.0842
@<TRIPOS>BOND
     1     1     2    1
     2     2     3    3
     3     3     4    1
     4     4     5   ar
     5     5     6   ar
     6     6     7   ar
     7     7     8    1
     8     8     9    2
     9     8    10   am
    10    10    11    1
    11    11    12   ar
    12    12    13   ar
    13    13    14   ar
    14    14    15    1
    15    14    16   ar
    16    16    17    1
    17    17    18    1
    18    18    19    1
    19    18    20    1
    20    17    21    1
    21    21    22    2
    22    22    23    1
    23    22    24    1
    24    24    25    1
    25    25    26    1
    26    26    27    1
    27    16    28   ar
    28     7    29   ar
    29    29    30   ar
    30    30     4   ar
    31    28    11   ar
    32    27    17    1
    33    27    25    1
    34     1    31    1
    35     1    32    1
    36     1    33    1
    37     5    34    1
    38     6    35    1
    39    10    36    1
    40    12    37    1
    41    13    38    1
    42    18    39    1
    43    23    40    1
    44    23    41    1
    45    25    42    1
    46    26    43    1
    47    26    44    1
    48    27    45    1
    49    28    46    1
    50    30    47    1
