
     RDKit          3D

 66 72  0  0  0  0  0  0  0  0999 V2000
    8.7223   -0.5278   -0.0524 C   0  0  0  0  0  0  0  0  0  0  0  0
    7.4965   -0.6954    0.6540 O   0  0  0  0  0  0  0  0  0  0  0  0
    6.3222   -0.9760    0.0045 C   0  0  0  0  0  0  0  0  0  0  0  0
    6.3664   -1.0834   -1.2445 O   0  0  0  0  0  0  0  0  0  0  0  0
    5.0012   -1.1549    0.7294 C   0  0  0  0  0  0  0  0  0  0  0  0
    4.7334    0.1319    1.4295 C   0  0  0  0  0  0  0  0  0  0  0  0
    3.3009    0.4074    1.6772 C   0  0  0  0  0  0  0  0  0  0  0  0
    2.4911    0.2659    0.4542 N   0  0  0  0  0  0  0  0  0  0  0  0
    2.9900    1.1276   -0.5723 C   0  0  0  0  0  0  0  0  0  0  0  0
    2.0788    1.4938   -1.6829 C   0  0  0  0  0  0  0  0  0  0  0  0
    0.9025    2.2842   -1.3052 C   0  0  0  0  0  0  0  0  0  0  0  0
    0.9327    3.6766   -1.3209 C   0  0  0  0  0  0  0  0  0  0  0  0
   -0.1463    4.4041   -0.9072 C   0  0  0  0  0  0  0  0  0  0  0  0
   -1.3206    3.7926   -0.4532 C   0  0  0  0  0  0  0  0  0  0  0  0
   -1.3715    2.4230   -0.4302 C   0  0  0  0  0  0  0  0  0  0  0  0
   -0.2528    1.6930   -0.8607 C   0  0  0  0  0  0  0  0  0  0  0  0
   -0.6093    0.3971   -0.7803 N   0  0  0  0  0  0  0  0  0  0  0  0
   -1.8633    0.2736   -0.3297 C   0  0  0  0  0  0  0  0  0  0  0  0
   -2.5933   -0.8723   -0.1626 C   0  0  0  0  0  0  0  0  0  0  0  0
   -2.0226   -2.1130   -0.3820 C   0  0  0  0  0  0  0  0  0  0  0  0
   -2.7270   -3.2649   -0.2141 C   0  0  0  0  0  0  0  0  0  0  0  0
   -4.0736   -3.1614    0.1749 C   0  0  0  0  0  0  0  0  0  0  0  0
   -5.0399   -4.1282    0.1674 C   0  0  0  0  0  0  0  0  0  0  0  0
   -6.2118   -3.4836    0.3422 C   0  0  0  0  0  0  0  0  0  0  0  0
   -5.9996   -2.1302    0.4621 N   0  0  0  0  0  0  0  0  0  0  0  0
   -7.1510   -1.2790    0.2024 C   0  0  0  0  0  0  0  0  0  0  0  0
   -4.6739   -1.9156    0.3948 C   0  0  0  0  0  0  0  0  0  0  0  0
   -3.9300   -0.7706    0.2497 C   0  0  0  0  0  0  0  0  0  0  0  0
   -4.4457    0.4722    0.5527 C   0  0  0  0  0  0  0  0  0  0  0  0
   -3.6572    1.6151    0.3651 C   0  0  0  0  0  0  0  0  0  0  0  0
   -2.3413    1.5310   -0.1055 C   0  0  0  0  0  0  0  0  0  0  0  0
   -4.2975    2.7292    1.0156 C   0  0  0  0  0  0  0  0  0  0  0  0
   -3.9175    3.9365    1.0728 O   0  0  0  0  0  0  0  0  0  0  0  0
   -5.4785    2.2559    1.6172 N   0  0  0  0  0  0  0  0  0  0  0  0
   -5.5937    0.8551    1.3566 C   0  0  0  0  0  0  0  0  0  0  0  0
   -6.5644    0.2620    1.8517 O   0  0  0  0  0  0  0  0  0  0  0  0
    2.6181   -1.1303    0.0088 C   0  0  0  0  0  0  0  0  0  0  0  0
    3.9957   -1.6040   -0.2541 C   0  0  0  0  0  0  0  0  0  0  0  0
    9.0613   -1.4577   -0.5498 H   0  0  0  0  0  0  0  0  0  0  0  0
    8.6372    0.2878   -0.8051 H   0  0  0  0  0  0  0  0  0  0  0  0
    9.4877   -0.2414    0.6803 H   0  0  0  0  0  0  0  0  0  0  0  0
    5.2094   -1.9609    1.4929 H   0  0  0  0  0  0  0  0  0  0  0  0
    5.2190    1.0015    0.9298 H   0  0  0  0  0  0  0  0  0  0  0  0
    5.2448    0.0745    2.4355 H   0  0  0  0  0  0  0  0  0  0  0  0
    2.8407   -0.2038    2.4708 H   0  0  0  0  0  0  0  0  0  0  0  0
    3.1960    1.4883    1.9548 H   0  0  0  0  0  0  0  0  0  0  0  0
    3.5022    2.0108   -0.1168 H   0  0  0  0  0  0  0  0  0  0  0  0
    3.8568    0.5783   -1.0650 H   0  0  0  0  0  0  0  0  0  0  0  0
    1.6554    0.5116   -2.0752 H   0  0  0  0  0  0  0  0  0  0  0  0
    2.5959    1.9216   -2.5439 H   0  0  0  0  0  0  0  0  0  0  0  0
    1.8257    4.1827   -1.6661 H   0  0  0  0  0  0  0  0  0  0  0  0
   -0.1507    5.4974   -0.9067 H   0  0  0  0  0  0  0  0  0  0  0  0
   -2.1516    4.4145   -0.1653 H   0  0  0  0  0  0  0  0  0  0  0  0
   -0.0019   -0.4038   -1.0418 H   0  0  0  0  0  0  0  0  0  0  0  0
   -0.9716   -2.1227   -0.6967 H   0  0  0  0  0  0  0  0  0  0  0  0
   -2.3123   -4.2347   -0.3549 H   0  0  0  0  0  0  0  0  0  0  0  0
   -4.8840   -5.2057    0.0477 H   0  0  0  0  0  0  0  0  0  0  0  0
   -7.1749   -4.0068    0.3775 H   0  0  0  0  0  0  0  0  0  0  0  0
   -7.9426   -1.3319    0.9507 H   0  0  0  0  0  0  0  0  0  0  0  0
   -7.7802   -1.8906   -0.6563 H   0  0  0  0  0  0  0  0  0  0  0  0
   -6.9930   -0.4102   -0.4215 H   0  0  0  0  0  0  0  0  0  0  0  0
   -6.1499    2.8604    2.1663 H   0  0  0  0  0  0  0  0  0  0  0  0
    2.0654   -1.1970   -0.9516 H   0  0  0  0  0  0  0  0  0  0  0  0
    2.1382   -1.7879    0.7754 H   0  0  0  0  0  0  0  0  0  0  0  0
    3.9562   -2.7411   -0.1875 H   0  0  0  0  0  0  0  0  0  0  0  0
    4.3514   -1.3704   -1.2958 H   0  0  0  0  0  0  0  0  0  0  0  0
  1  2  1  0
  2  3  1  0
  3  4  2  0
  3  5  1  0
  5  6  1  0
  6  7  1  0
  7  8  1  0
  8  9  1  0
  9 10  1  0
 10 11  1  0
 11 12  2  0
 12 13  1  0
 13 14  2  0
 14 15  1  0
 15 16  2  0
 16 17  1  0
 17 18  1  0
 18 19  2  0
 19 20  1  0
 20 21  2  0
 21 22  1  0
 22 23  1  0
 23 24  2  0
 24 25  1  0
 25 26  1  0
 25 27  1  0
 27 28  1  0
 28 29  2  0
 29 30  1  0
 30 31  2  0
 30 32  1  0
 32 33  2  0
 32 34  1  0
 34 35  1  0
 35 36  2  0
  8 37  1  0
 37 38  1  0
 38  5  1  0
 16 11  1  0
 31 18  1  0
 31 15  1  0
 28 19  1  0
 35 29  1  0
 27 22  2  0
  1 39  1  0
  1 40  1  0
  1 41  1  0
  5 42  1  0
  6 43  1  0
  6 44  1  0
  7 45  1  0
  7 46  1  0
  9 47  1  0
  9 48  1  0
 10 49  1  0
 10 50  1  0
 12 51  1  0
 13 52  1  0
 14 53  1  0
 17 54  1  0
 20 55  1  0
 21 56  1  0
 23 57  1  0
 24 58  1  0
 26 59  1  0
 26 60  1  0
 26 61  1  0
 34 62  1  0
 37 63  1  0
 37 64  1  0
 38 65  1  0
 38 66  1  0
M  END
$$$$
