@<TRIPOS>MOLECULE
*****
 66 72 0 0 0
SMALL
GASTEIGER

@<TRIPOS>ATOM
      1 C           8.7223   -0.5278   -0.0524 C.3     1  UNL1        0.0817
      2 O           7.4965   -0.6954    0.6540 O.3     1  UNL1       -0.4677
      3 C           6.3222   -0.9760    0.0045 C.2     1  UNL1        0.3100
      4 O           6.3664   -1.0834   -1.2445 O.2     1  UNL1       -0.2505
      5 C           5.0012   -1.1549    0.7294 C.3     1  UNL1        0.0587
      6 C           4.7334    0.1319    1.4295 C.3     1  UNL1       -0.0272
      7 C           3.3009    0.4074    1.6772 C.3     1  UNL1       -0.0003
      8 N           2.4911    0.2659    0.4542 N.3     1  UNL1       -0.3020
      9 C           2.9900    1.1276   -0.5723 C.3     1  UNL1        0.0029
     10 C           2.0788    1.4938   -1.6829 C.3     1  UNL1       -0.0129
     11 C           0.9025    2.2842   -1.3052 C.ar    1  UNL1       -0.0223
     12 C           0.9327    3.6766   -1.3209 C.ar    1  UNL1       -0.0566
     13 C          -0.1463    4.4041   -0.9072 C.ar    1  UNL1       -0.0608
     14 C          -1.3206    3.7926   -0.4532 C.ar    1  UNL1       -0.0520
     15 C          -1.3715    2.4230   -0.4302 C.ar    1  UNL1        0.0084
     16 C          -0.2528    1.6930   -0.8607 C.ar    1  UNL1        0.0508
     17 N          -0.6093    0.3971   -0.7803 N.ar    1  UNL1       -0.3534
     18 C          -1.8633    0.2736   -0.3297 C.ar    1  UNL1        0.0561
     19 C          -2.5933   -0.8723   -0.1626 C.ar    1  UNL1        0.0088
     20 C          -2.0226   -2.1130   -0.3820 C.ar    1  UNL1       -0.0513
     21 C          -2.7270   -3.2649   -0.2141 C.ar    1  UNL1       -0.0519
     22 C          -4.0736   -3.1614    0.1749 C.ar    1  UNL1        0.0005
     23 C          -5.0399   -4.1282    0.1674 C.ar    1  UNL1       -0.0364
     24 C          -6.2118   -3.4836    0.3422 C.ar    1  UNL1        0.0054
     25 N          -5.9996   -2.1302    0.4621 N.ar    1  UNL1       -0.3492
     26 C          -7.1510   -1.2790    0.2024 C.3     1  UNL1        0.0119
     27 C          -4.6739   -1.9156    0.3948 C.ar    1  UNL1        0.0574
     28 C          -3.9300   -0.7706    0.2497 C.ar    1  UNL1        0.0210
     29 C          -4.4457    0.4722    0.5527 C.ar    1  UNL1        0.0596
     30 C          -3.6572    1.6151    0.3651 C.ar    1  UNL1        0.0596
     31 C          -2.3413    1.5310   -0.1055 C.ar    1  UNL1        0.0209
     32 C          -4.2975    2.7292    1.0156 C.2     1  UNL1        0.2519
     33 O          -3.9175    3.9365    1.0728 O.2     1  UNL1       -0.2697
     34 N          -5.4785    2.2559    1.6172 N.am    1  UNL1       -0.2483
     35 C          -5.5937    0.8551    1.3566 C.2     1  UNL1        0.2519
     36 O          -6.5644    0.2620    1.8517 O.2     1  UNL1       -0.2697
     37 C           2.6181   -1.1303    0.0088 C.3     1  UNL1       -0.0003
     38 C           3.9957   -1.6040   -0.2541 C.3     1  UNL1       -0.0272
     39 H           9.0613   -1.4577   -0.5498 H       1  UNL1        0.0661
     40 H           8.6372    0.2878   -0.8051 H       1  UNL1        0.0661
     41 H           9.4877   -0.2414    0.6803 H       1  UNL1        0.0661
     42 H           5.2094   -1.9609    1.4929 H       1  UNL1        0.0414
     43 H           5.2190    1.0015    0.9298 H       1  UNL1        0.0285
     44 H           5.2448    0.0745    2.4355 H       1  UNL1        0.0285
     45 H           2.8407   -0.2038    2.4708 H       1  UNL1        0.0427
     46 H           3.1960    1.4883    1.9548 H       1  UNL1        0.0427
     47 H           3.5022    2.0108   -0.1168 H       1  UNL1        0.0430
     48 H           3.8568    0.5783   -1.0650 H       1  UNL1        0.0430
     49 H           1.6554    0.5116   -2.0752 H       1  UNL1        0.0326
     50 H           2.5959    1.9216   -2.5439 H       1  UNL1        0.0326
     51 H           1.8257    4.1827   -1.6661 H       1  UNL1        0.0621
     52 H          -0.1507    5.4974   -0.9067 H       1  UNL1        0.0618
     53 H          -2.1516    4.4145   -0.1653 H       1  UNL1        0.0624
     54 H          -0.0019   -0.4038   -1.0418 H       1  UNL1        0.1659
     55 H          -0.9716   -2.1227   -0.6967 H       1  UNL1        0.0624
     56 H          -2.3123   -4.2347   -0.3549 H       1  UNL1        0.0624
     57 H          -4.8840   -5.2057    0.0477 H       1  UNL1        0.0639
     58 H          -7.1749   -4.0068    0.3775 H       1  UNL1        0.0809
     59 H          -7.9426   -1.3319    0.9507 H       1  UNL1        0.0456
     60 H          -7.7802   -1.8906   -0.6563 H       1  UNL1        0.0456
     61 H          -6.9930   -0.4102   -0.4215 H       1  UNL1        0.0456
     62 H          -6.1499    2.8604    2.1663 H       1  UNL1        0.1581
     63 H           2.0654   -1.1970   -0.9516 H       1  UNL1        0.0427
     64 H           2.1382   -1.7879    0.7754 H       1  UNL1        0.0427
     65 H           3.9562   -2.7411   -0.1875 H       1  UNL1        0.0285
     66 H           4.3514   -1.3704   -1.2958 H       1  UNL1        0.0285
@<TRIPOS>BOND
     1     1     2    1
     2     2     3    1
     3     3     4    2
     4     3     5    1
     5     5     6    1
     6     6     7    1
     7     7     8    1
     8     8     9    1
     9     9    10    1
    10    10    11    1
    11    11    12   ar
    12    12    13   ar
    13    13    14   ar
    14    14    15   ar
    15    15    16   ar
    16    16    17   ar
    17    17    18   ar
    18    18    19   ar
    19    19    20   ar
    20    20    21   ar
    21    21    22   ar
    22    22    23   ar
    23    23    24   ar
    24    24    25   ar
    25    25    26    1
    26    25    27   ar
    27    27    28   ar
    28    28    29   ar
    29    29    30   ar
    30    30    31   ar
    31    30    32    1
    32    32    33    2
    33    32    34   am
    34    34    35   am
    35    35    36    2
    36     8    37    1
    37    37    38    1
    38    38     5    1
    39    16    11   ar
    40    31    18   ar
    41    31    15   ar
    42    28    19   ar
    43    35    29    1
    44    27    22   ar
    45     1    39    1
    46     1    40    1
    47     1    41    1
    48     5    42    1
    49     6    43    1
    50     6    44    1
    51     7    45    1
    52     7    46    1
    53     9    47    1
    54     9    48    1
    55    10    49    1
    56    10    50    1
    57    12    51    1
    58    13    52    1
    59    14    53    1
    60    17    54    1
    61    20    55    1
    62    21    56    1
    63    23    57    1
    64    24    58    1
    65    26    59    1
    66    26    60    1
    67    26    61    1
    68    34    62    1
    69    37    63    1
    70    37    64    1
    71    38    65    1
    72    38    66    1
