
     RDKit          3D

 50 52  0  0  0  0  0  0  0  0999 V2000
   -3.3315   -1.2806    2.2530 C   0  0  0  0  0  0  0  0  0  0  0  0
   -3.1570   -1.4350    0.7110 C   0  0  0  0  0  0  0  0  0  0  0  0
   -2.6761   -0.1660    0.2113 N   0  0  0  0  0  0  0  0  0  0  0  0
   -3.4874    1.0397    0.2303 C   0  0  0  0  0  0  0  0  0  0  0  0
   -2.6340    2.2448    0.0042 C   0  0  0  0  0  0  0  0  0  0  0  0
   -3.2753    3.5182    0.5020 C   0  0  0  0  0  0  0  0  0  0  0  0
   -4.4896    3.7686   -0.1324 O   0  0  0  0  0  0  0  0  0  0  0  0
   -1.2765    2.0856    0.6556 C   0  0  0  0  0  0  0  0  0  0  0  0
   -0.5900    1.0153   -0.0942 C   0  0  0  0  0  0  0  0  0  0  0  0
    0.6887    1.1267   -0.5531 C   0  0  0  0  0  0  0  0  0  0  0  0
    1.2921    0.0799   -1.2755 C   0  0  0  0  0  0  0  0  0  0  0  0
    2.6895    0.2653   -1.7553 C   0  0  0  0  0  0  0  0  0  0  0  0
    3.6145    0.0398   -0.6332 C   0  0  0  0  0  0  0  0  0  0  0  0
    4.1542    1.1781   -0.0225 C   0  0  0  0  0  0  0  0  0  0  0  0
    4.9845    0.9771    1.0050 N   0  0  0  0  0  0  0  0  0  0  0  0
    5.2794   -0.2655    1.4221 C   0  0  0  0  0  0  0  0  0  0  0  0
    6.1614   -0.4427    2.5147 N   0  0  0  0  0  0  0  0  0  0  0  0
    4.7654   -1.3596    0.8400 N   0  0  0  0  0  0  0  0  0  0  0  0
    3.9094   -1.2267   -0.2152 C   0  0  0  0  0  0  0  0  0  0  0  0
    3.3829   -2.3997   -0.8176 N   0  0  0  0  0  0  0  0  0  0  0  0
    0.5330   -1.0429   -1.4904 C   0  0  0  0  0  0  0  0  0  0  0  0
   -0.7755   -1.1544   -1.0200 C   0  0  0  0  0  0  0  0  0  0  0  0
   -1.5421   -2.2756   -1.2345 O   0  0  0  0  0  0  0  0  0  0  0  0
   -1.0822   -3.4168   -1.9470 C   0  0  0  0  0  0  0  0  0  0  0  0
   -1.3331   -0.1245   -0.3219 C   0  0  0  0  0  0  0  0  0  0  0  0
   -2.3109   -1.2752    2.7011 H   0  0  0  0  0  0  0  0  0  0  0  0
   -3.8228   -2.2214    2.5684 H   0  0  0  0  0  0  0  0  0  0  0  0
   -3.9342   -0.4086    2.4726 H   0  0  0  0  0  0  0  0  0  0  0  0
   -4.1726   -1.6011    0.3461 H   0  0  0  0  0  0  0  0  0  0  0  0
   -2.4742   -2.2708    0.6436 H   0  0  0  0  0  0  0  0  0  0  0  0
   -4.2335    0.9227   -0.6055 H   0  0  0  0  0  0  0  0  0  0  0  0
   -4.0862    1.0931    1.1523 H   0  0  0  0  0  0  0  0  0  0  0  0
   -2.4627    2.3396   -1.0844 H   0  0  0  0  0  0  0  0  0  0  0  0
   -2.5912    4.3477    0.2345 H   0  0  0  0  0  0  0  0  0  0  0  0
   -3.3626    3.5078    1.6133 H   0  0  0  0  0  0  0  0  0  0  0  0
   -4.3940    4.4581   -0.8485 H   0  0  0  0  0  0  0  0  0  0  0  0
   -1.3748    1.8460    1.7375 H   0  0  0  0  0  0  0  0  0  0  0  0
   -0.7340    3.0588    0.5267 H   0  0  0  0  0  0  0  0  0  0  0  0
    1.2749    2.0114   -0.3802 H   0  0  0  0  0  0  0  0  0  0  0  0
    2.8267    1.2934   -2.1964 H   0  0  0  0  0  0  0  0  0  0  0  0
    2.8734   -0.4370   -2.5942 H   0  0  0  0  0  0  0  0  0  0  0  0
    3.8873    2.1651   -0.3948 H   0  0  0  0  0  0  0  0  0  0  0  0
    5.8428   -0.9347    3.3705 H   0  0  0  0  0  0  0  0  0  0  0  0
    7.1260   -0.0785    2.4556 H   0  0  0  0  0  0  0  0  0  0  0  0
    3.5383   -2.6379   -1.8113 H   0  0  0  0  0  0  0  0  0  0  0  0
    2.8136   -3.0457   -0.2193 H   0  0  0  0  0  0  0  0  0  0  0  0
    0.9654   -1.8604   -2.0464 H   0  0  0  0  0  0  0  0  0  0  0  0
   -0.7448   -2.9992   -2.9408 H   0  0  0  0  0  0  0  0  0  0  0  0
   -1.9632   -4.0724   -2.1225 H   0  0  0  0  0  0  0  0  0  0  0  0
   -0.2916   -3.9500   -1.4144 H   0  0  0  0  0  0  0  0  0  0  0  0
  1  2  1  0
  2  3  1  0
  3  4  1  0
  4  5  1  0
  5  6  1  0
  6  7  1  0
  5  8  1  0
  8  9  1  0
  9 10  2  0
 10 11  1  0
 11 12  1  0
 12 13  1  0
 13 14  2  0
 14 15  1  0
 15 16  2  0
 16 17  1  0
 16 18  1  0
 18 19  2  0
 19 20  1  0
 11 21  2  0
 21 22  1  0
 22 23  1  0
 23 24  1  0
 22 25  2  0
 25  3  1  0
 25  9  1  0
 19 13  1  0
  1 26  1  0
  1 27  1  0
  1 28  1  0
  2 29  1  0
  2 30  1  0
  4 31  1  0
  4 32  1  0
  5 33  1  0
  6 34  1  0
  6 35  1  0
  7 36  1  0
  8 37  1  0
  8 38  1  0
 10 39  1  0
 12 40  1  0
 12 41  1  0
 14 42  1  0
 17 43  1  0
 17 44  1  0
 20 45  1  0
 20 46  1  0
 21 47  1  0
 24 48  1  0
 24 49  1  0
 24 50  1  0
M  END
$$$$
