@<TRIPOS>MOLECULE
*****
 50 52 0 0 0
SMALL
GASTEIGER

@<TRIPOS>ATOM
      1 C          -3.3315   -1.2806    2.2530 C.3     1  UNL1       -0.0494
      2 C          -3.1570   -1.4350    0.7110 C.3     1  UNL1        0.0095
      3 N          -2.6761   -0.1660    0.2113 N.pl3   1  UNL1       -0.3268
      4 C          -3.4874    1.0397    0.2303 C.3     1  UNL1        0.0175
      5 C          -2.6340    2.2448    0.0042 C.3     1  UNL1        0.0019
      6 C          -3.2753    3.5182    0.5020 C.3     1  UNL1        0.0487
      7 O          -4.4896    3.7686   -0.1324 O.3     1  UNL1       -0.3947
      8 C          -1.2765    2.0856    0.6556 C.3     1  UNL1       -0.0195
      9 C          -0.5900    1.0153   -0.0942 C.ar    1  UNL1       -0.0221
     10 C           0.6887    1.1267   -0.5531 C.ar    1  UNL1       -0.0531
     11 C           1.2921    0.0799   -1.2755 C.ar    1  UNL1       -0.0391
     12 C           2.6895    0.2653   -1.7553 C.3     1  UNL1        0.0024
     13 C           3.6145    0.0398   -0.6332 C.ar    1  UNL1        0.0146
     14 C           4.1542    1.1781   -0.0225 C.ar    1  UNL1        0.0379
     15 N           4.9845    0.9771    1.0050 N.ar    1  UNL1       -0.2227
     16 C           5.2794   -0.2655    1.4221 C.ar    1  UNL1        0.2142
     17 N           6.1614   -0.4427    2.5147 N.pl3   1  UNL1       -0.3274
     18 N           4.7654   -1.3596    0.8400 N.ar    1  UNL1       -0.1999
     19 C           3.9094   -1.2267   -0.2152 C.ar    1  UNL1        0.1247
     20 N           3.3829   -2.3997   -0.8176 N.pl3   1  UNL1       -0.3428
     21 C           0.5330   -1.0429   -1.4904 C.ar    1  UNL1       -0.0146
     22 C          -0.7755   -1.1544   -1.0200 C.ar    1  UNL1        0.1415
     23 O          -1.5421   -2.2756   -1.2345 O.3     1  UNL1       -0.4932
     24 C          -1.0822   -3.4168   -1.9470 C.3     1  UNL1        0.0789
     25 C          -1.3331   -0.1245   -0.3219 C.ar    1  UNL1        0.0752
     26 H          -2.3109   -1.2752    2.7011 H       1  UNL1        0.0245
     27 H          -3.8228   -2.2214    2.5684 H       1  UNL1        0.0245
     28 H          -3.9342   -0.4086    2.4726 H       1  UNL1        0.0245
     29 H          -4.1726   -1.6011    0.3461 H       1  UNL1        0.0461
     30 H          -2.4742   -2.2708    0.6436 H       1  UNL1        0.0461
     31 H          -4.2335    0.9227   -0.6055 H       1  UNL1        0.0467
     32 H          -4.0862    1.0931    1.1523 H       1  UNL1        0.0467
     33 H          -2.4627    2.3396   -1.0844 H       1  UNL1        0.0341
     34 H          -2.5912    4.3477    0.2345 H       1  UNL1        0.0560
     35 H          -3.3626    3.5078    1.6133 H       1  UNL1        0.0560
     36 H          -4.3940    4.4581   -0.8485 H       1  UNL1        0.2094
     37 H          -1.3748    1.8460    1.7375 H       1  UNL1        0.0318
     38 H          -0.7340    3.0588    0.5267 H       1  UNL1        0.0318
     39 H           1.2749    2.0114   -0.3802 H       1  UNL1        0.0624
     40 H           2.8267    1.2934   -2.1964 H       1  UNL1        0.0363
     41 H           2.8734   -0.4370   -2.5942 H       1  UNL1        0.0363
     42 H           3.8873    2.1651   -0.3948 H       1  UNL1        0.0834
     43 H           5.8428   -0.9347    3.3705 H       1  UNL1        0.1452
     44 H           7.1260   -0.0785    2.4556 H       1  UNL1        0.1452
     45 H           3.5383   -2.6379   -1.8113 H       1  UNL1        0.1437
     46 H           2.8136   -3.0457   -0.2193 H       1  UNL1        0.1437
     47 H           0.9654   -1.8604   -2.0464 H       1  UNL1        0.0657
     48 H          -0.7448   -2.9992   -2.9408 H       1  UNL1        0.0660
     49 H          -1.9632   -4.0724   -2.1225 H       1  UNL1        0.0660
     50 H          -0.2916   -3.9500   -1.4144 H       1  UNL1        0.0660
@<TRIPOS>BOND
     1     1     2    1
     2     2     3    1
     3     3     4    1
     4     4     5    1
     5     5     6    1
     6     6     7    1
     7     5     8    1
     8     8     9    1
     9     9    10   ar
    10    10    11   ar
    11    11    12    1
    12    12    13    1
    13    13    14   ar
    14    14    15   ar
    15    15    16   ar
    16    16    17    1
    17    16    18   ar
    18    18    19   ar
    19    19    20    1
    20    11    21   ar
    21    21    22   ar
    22    22    23    1
    23    23    24    1
    24    22    25   ar
    25    25     3    1
    26    25     9   ar
    27    19    13   ar
    28     1    26    1
    29     1    27    1
    30     1    28    1
    31     2    29    1
    32     2    30    1
    33     4    31    1
    34     4    32    1
    35     5    33    1
    36     6    34    1
    37     6    35    1
    38     7    36    1
    39     8    37    1
    40     8    38    1
    41    10    39    1
    42    12    40    1
    43    12    41    1
    44    14    42    1
    45    17    43    1
    46    17    44    1
    47    20    45    1
    48    20    46    1
    49    21    47    1
    50    24    48    1
    51    24    49    1
    52    24    50    1
