@<TRIPOS>MOLECULE
*****
 20 20 0 0 0
SMALL
GASTEIGER

@<TRIPOS>ATOM
      1 C           0.0978   -1.0235    0.3929 C.3     1  UNL1        0.1912
      2 O           0.3464   -1.4019   -0.9580 O.3     1  UNL1       -0.4450
      3 C           1.5138   -0.7482   -1.3626 C.2     1  UNL1        0.3783
      4 O           1.9735   -0.8977   -2.5162 O.2     1  UNL1       -0.2414
      5 C           2.0028    0.0449   -0.2634 C.2     1  UNL1        0.2437
      6 O           3.1347    0.8404   -0.2606 O.2     1  UNL1       -0.4988
      7 C           1.1875   -0.1036    0.7720 C.2     1  UNL1        0.1863
      8 O           1.2320    0.4486    2.0449 O.2     1  UNL1       -0.5042
      9 C          -1.2802   -0.4380    0.5614 C.3     1  UNL1        0.1222
     10 O          -1.4759   -0.0853    1.8887 O.3     1  UNL1       -0.3854
     11 C          -1.5738    0.6549   -0.4112 C.3     1  UNL1        0.0741
     12 O          -1.3590    0.2417   -1.7296 O.3     1  UNL1       -0.3923
     13 H           0.1863   -1.9615    0.9742 H       1  UNL1        0.0845
     14 H           3.3122    1.5496   -0.9513 H       1  UNL1        0.2925
     15 H           0.8172    1.3622    2.2016 H       1  UNL1        0.2920
     16 H          -1.9882   -1.2795    0.3357 H       1  UNL1        0.0658
     17 H          -2.2493    0.5324    1.9313 H       1  UNL1        0.2101
     18 H          -1.0217    1.5859   -0.2247 H       1  UNL1        0.0584
     19 H          -2.6775    0.8635   -0.3355 H       1  UNL1        0.0584
     20 H          -2.1784   -0.1851   -2.0895 H       1  UNL1        0.2095
@<TRIPOS>BOND
     1     1     2    1
     2     2     3    1
     3     3     4    2
     4     3     5    1
     5     5     6    1
     6     5     7    2
     7     7     8    1
     8     1     9    1
     9     9    10    1
    10     9    11    1
    11    11    12    1
    12     7     1    1
    13     1    13    1
    14     6    14    1
    15     8    15    1
    16     9    16    1
    17    10    17    1
    18    11    18    1
    19    11    19    1
    20    12    20    1
