
     RDKit          3D

 46 49  0  0  0  0  0  0  0  0999 V2000
   -4.0371    0.2751    1.8434 C   0  0  0  0  0  0  0  0  0  0  0  0
   -2.8739    0.0991    0.9387 C   0  0  0  0  0  0  0  0  0  0  0  0
   -2.0929   -1.0447    0.9353 C   0  0  0  0  0  0  0  0  0  0  0  0
   -1.0172   -1.2115    0.1011 C   0  0  0  0  0  0  0  0  0  0  0  0
   -0.1733   -2.3966    0.0675 C   0  0  0  0  0  0  0  0  0  0  0  0
   -0.6917   -3.6819    0.0774 C   0  0  0  0  0  0  0  0  0  0  0  0
    0.3644   -4.5485    0.0387 C   0  0  0  0  0  0  0  0  0  0  0  0
    0.2082   -6.0293    0.0358 C   0  0  0  0  0  0  0  0  0  0  0  0
   -0.1325   -6.4306   -1.2266 F   0  0  0  0  0  0  0  0  0  0  0  0
   -0.8861   -6.3308    0.8561 F   0  0  0  0  0  0  0  0  0  0  0  0
    1.2951   -6.6821    0.5450 F   0  0  0  0  0  0  0  0  0  0  0  0
    1.4724   -3.8008    0.0069 N   0  0  0  0  0  0  0  0  0  0  0  0
    1.1592   -2.5013    0.0240 N   0  0  0  0  0  0  0  0  0  0  0  0
    2.0596   -1.4001    0.0008 C   0  0  0  0  0  0  0  0  0  0  0  0
    2.8425   -1.1053   -1.1002 C   0  0  0  0  0  0  0  0  0  0  0  0
    3.7194   -0.0310   -1.1197 C   0  0  0  0  0  0  0  0  0  0  0  0
    3.8290    0.7838   -0.0128 C   0  0  0  0  0  0  0  0  0  0  0  0
    4.9262    2.1594    0.0140 S   0  0  0  0  0  6  0  0  0  0  0  0
    4.1261    3.6152   -0.5670 C   0  0  0  0  0  0  0  0  0  0  0  0
    5.4520    2.3852    1.3920 O   0  0  0  0  0  0  0  0  0  0  0  0
    6.0441    1.8270   -0.9447 O   0  0  0  0  0  0  0  0  0  0  0  0
    3.0347    0.4666    1.0746 C   0  0  0  0  0  0  0  0  0  0  0  0
    2.1860   -0.5863    1.0722 N   0  0  0  0  0  0  0  0  0  0  0  0
   -0.7129   -0.1849   -0.7672 C   0  0  0  0  0  0  0  0  0  0  0  0
   -1.4885    0.9797   -0.7808 C   0  0  0  0  0  0  0  0  0  0  0  0
   -2.5634    1.1214    0.0675 C   0  0  0  0  0  0  0  0  0  0  0  0
   -3.3726    2.3412    0.0505 C   0  0  0  0  0  0  0  0  0  0  0  0
   -3.1577    3.3989   -0.7587 N   0  0  0  0  0  0  0  0  0  0  0  0
   -4.0860    4.3601   -0.5200 C   0  0  0  0  0  0  0  0  0  0  0  0
   -4.8794    3.8334    0.4778 C   0  0  0  0  0  0  0  0  0  0  0  0
   -4.4083    2.6506    0.7661 O   0  0  0  0  0  0  0  0  0  0  0  0
   -4.1088   -0.6185    2.5170 H   0  0  0  0  0  0  0  0  0  0  0  0
   -4.9918    0.3224    1.2944 H   0  0  0  0  0  0  0  0  0  0  0  0
   -3.9393    1.1544    2.5065 H   0  0  0  0  0  0  0  0  0  0  0  0
   -2.3419   -1.8338    1.6159 H   0  0  0  0  0  0  0  0  0  0  0  0
   -1.7398   -3.9462    0.1098 H   0  0  0  0  0  0  0  0  0  0  0  0
    2.7724   -1.7302   -1.9774 H   0  0  0  0  0  0  0  0  0  0  0  0
    4.3296    0.1980   -1.9790 H   0  0  0  0  0  0  0  0  0  0  0  0
    4.8837    4.3578   -0.8865 H   0  0  0  0  0  0  0  0  0  0  0  0
    3.5313    4.0392    0.2917 H   0  0  0  0  0  0  0  0  0  0  0  0
    3.4168    3.3609   -1.3770 H   0  0  0  0  0  0  0  0  0  0  0  0
    3.1269    1.1180    1.9504 H   0  0  0  0  0  0  0  0  0  0  0  0
    0.1100   -0.2063   -1.4679 H   0  0  0  0  0  0  0  0  0  0  0  0
   -1.2552    1.7956   -1.4636 H   0  0  0  0  0  0  0  0  0  0  0  0
   -4.1931    5.3305   -0.9987 H   0  0  0  0  0  0  0  0  0  0  0  0
   -5.7462    4.3269    0.9386 H   0  0  0  0  0  0  0  0  0  0  0  0
  1  2  1  0
  2  3  2  0
  3  4  1  0
  4  5  1  0
  5  6  2  0
  6  7  1  0
  7  8  1  0
  8  9  1  0
  8 10  1  0
  8 11  1  0
  7 12  2  0
 12 13  1  0
 13 14  1  0
 14 15  2  0
 15 16  1  0
 16 17  2  0
 17 18  1  0
 18 19  1  0
 18 20  2  0
 18 21  2  0
 17 22  1  0
 22 23  2  0
  4 24  2  0
 24 25  1  0
 25 26  2  0
 26 27  1  0
 27 28  2  0
 28 29  1  0
 29 30  2  0
 30 31  1  0
 26  2  1  0
 31 27  1  0
 13  5  1  0
 23 14  1  0
  1 32  1  0
  1 33  1  0
  1 34  1  0
  3 35  1  0
  6 36  1  0
 15 37  1  0
 16 38  1  0
 19 39  1  0
 19 40  1  0
 19 41  1  0
 22 42  1  0
 24 43  1  0
 25 44  1  0
 29 45  1  0
 30 46  1  0
M  END
$$$$
