@<TRIPOS>MOLECULE
*****
 46 49 0 0 0
SMALL
GASTEIGER

@<TRIPOS>ATOM
      1 C          -4.0371    0.2751    1.8434 C.3     1  UNL1       -0.0390
      2 C          -2.8739    0.0991    0.9387 C.ar    1  UNL1       -0.0376
      3 C          -2.0929   -1.0447    0.9353 C.ar    1  UNL1       -0.0489
      4 C          -1.0172   -1.2115    0.1011 C.ar    1  UNL1        0.0008
      5 C          -0.1733   -2.3966    0.0675 C.ar    1  UNL1        0.0768
      6 C          -0.6917   -3.6819    0.0774 C.ar    1  UNL1       -0.0038
      7 C           0.3644   -4.5485    0.0387 C.ar    1  UNL1        0.1662
      8 C           0.2082   -6.0293    0.0358 C.3     1  UNL1        0.4360
      9 F          -0.1325   -6.4306   -1.2266 F       1  UNL1       -0.1644
     10 F          -0.8861   -6.3308    0.8561 F       1  UNL1       -0.1644
     11 F           1.2951   -6.6821    0.5450 F       1  UNL1       -0.1644
     12 N           1.4724   -3.8008    0.0069 N.ar    1  UNL1       -0.1604
     13 N           1.1592   -2.5013    0.0240 N.ar    1  UNL1       -0.2136
     14 C           2.0596   -1.4001    0.0008 C.ar    1  UNL1        0.1547
     15 C           2.8425   -1.1053   -1.1002 C.ar    1  UNL1       -0.0156
     16 C           3.7194   -0.0310   -1.1197 C.ar    1  UNL1       -0.0319
     17 C           3.8290    0.7838   -0.0128 C.ar    1  UNL1        0.1060
     18 S           4.9262    2.1594    0.0140 S.O2    1  UNL1       -0.0044
     19 C           4.1261    3.6152   -0.5670 C.3     1  UNL1        0.0596
     20 O           5.4520    2.3852    1.3920 O.2     1  UNL1       -0.1696
     21 O           6.0441    1.8270   -0.9447 O.2     1  UNL1       -0.1696
     22 C           3.0347    0.4666    1.0746 C.ar    1  UNL1        0.0547
     23 N           2.1860   -0.5863    1.0722 N.ar    1  UNL1       -0.2343
     24 C          -0.7129   -0.1849   -0.7672 C.ar    1  UNL1       -0.0518
     25 C          -1.4885    0.9797   -0.7808 C.ar    1  UNL1       -0.0486
     26 C          -2.5634    1.1214    0.0675 C.ar    1  UNL1        0.0398
     27 C          -3.3726    2.3412    0.0505 C.ar    1  UNL1        0.2273
     28 N          -3.1577    3.3989   -0.7587 N.ar    1  UNL1       -0.2175
     29 C          -4.0860    4.3601   -0.5200 C.ar    1  UNL1        0.0663
     30 C          -4.8794    3.8334    0.4778 C.ar    1  UNL1        0.1125
     31 O          -4.4083    2.6506    0.7661 O.2     1  UNL1       -0.4435
     32 H          -4.1088   -0.6185    2.5170 H       1  UNL1        0.0278
     33 H          -4.9918    0.3224    1.2944 H       1  UNL1        0.0278
     34 H          -3.9393    1.1544    2.5065 H       1  UNL1        0.0278
     35 H          -2.3419   -1.8338    1.6159 H       1  UNL1        0.0627
     36 H          -1.7398   -3.9462    0.1098 H       1  UNL1        0.0660
     37 H           2.7724   -1.7302   -1.9774 H       1  UNL1        0.0655
     38 H           4.3296    0.1980   -1.9790 H       1  UNL1        0.0638
     39 H           4.8837    4.3578   -0.8865 H       1  UNL1        0.0468
     40 H           3.5313    4.0392    0.2917 H       1  UNL1        0.0468
     41 H           3.4168    3.3609   -1.3770 H       1  UNL1        0.0468
     42 H           3.1269    1.1180    1.9504 H       1  UNL1        0.0850
     43 H           0.1100   -0.2063   -1.4679 H       1  UNL1        0.0624
     44 H          -1.2552    1.7956   -1.4636 H       1  UNL1        0.0625
     45 H          -4.1931    5.3305   -0.9987 H       1  UNL1        0.0862
     46 H          -5.7462    4.3269    0.9386 H       1  UNL1        0.1046
@<TRIPOS>BOND
     1     1     2    1
     2     2     3   ar
     3     3     4   ar
     4     4     5    1
     5     5     6   ar
     6     6     7   ar
     7     7     8    1
     8     8     9    1
     9     8    10    1
    10     8    11    1
    11     7    12   ar
    12    12    13   ar
    13    13    14    1
    14    14    15   ar
    15    15    16   ar
    16    16    17   ar
    17    17    18    1
    18    18    19    1
    19    18    20    2
    20    18    21    2
    21    17    22   ar
    22    22    23   ar
    23     4    24   ar
    24    24    25   ar
    25    25    26   ar
    26    26    27    1
    27    27    28   ar
    28    28    29   ar
    29    29    30   ar
    30    30    31   ar
    31    26     2   ar
    32    31    27   ar
    33    13     5   ar
    34    23    14   ar
    35     1    32    1
    36     1    33    1
    37     1    34    1
    38     3    35    1
    39     6    36    1
    40    15    37    1
    41    16    38    1
    42    19    39    1
    43    19    40    1
    44    19    41    1
    45    22    42    1
    46    24    43    1
    47    25    44    1
    48    29    45    1
    49    30    46    1
