@<TRIPOS>MOLECULE
*****
 53 57 0 0 0
SMALL
GASTEIGER

@<TRIPOS>ATOM
      1 C           1.0867   -0.2817    2.8258 C.3     1  UNL1        0.0790
      2 O           0.1486   -0.3780    1.7697 O.3     1  UNL1       -0.4914
      3 C           0.6222   -0.7841    0.5321 C.ar    1  UNL1        0.1623
      4 C           1.9584   -1.0882    0.3220 C.ar    1  UNL1       -0.0038
      5 C           2.4265   -1.4915   -0.9099 C.ar    1  UNL1        0.0441
      6 C           3.7422   -1.7958   -1.1490 C.ar    1  UNL1        0.1340
      7 N           4.6335   -1.6881   -0.0473 N.pl3   1  UNL1       -0.2966
      8 C           5.2763   -0.4902    0.3303 C.ar    1  UNL1        0.0695
      9 C           5.0794    0.6882   -0.3485 C.ar    1  UNL1       -0.0183
     10 C           5.7201    1.8526    0.0415 C.ar    1  UNL1        0.0568
     11 CL          5.4685    3.3678   -0.8294 Cl      1  UNL1       -0.0823
     12 C           6.5713    1.8300    1.1308 C.ar    1  UNL1        0.0390
     13 BR          7.4739    3.4111    1.7025 Br      1  UNL1       -0.0487
     14 C           6.7817    0.6499    1.8277 C.ar    1  UNL1       -0.0092
     15 C           6.1205   -0.4763    1.3978 C.ar    1  UNL1        0.1456
     16 F           6.3321   -1.6283    2.0849 F       1  UNL1       -0.2035
     17 N           4.1186   -2.1768   -2.3757 N.ar    1  UNL1       -0.2200
     18 C           3.2622   -2.2817   -3.4140 C.ar    1  UNL1        0.1187
     19 N           1.9671   -1.9845   -3.1863 N.ar    1  UNL1       -0.2352
     20 C           1.5366   -1.5931   -1.9572 C.ar    1  UNL1        0.0797
     21 C           0.1950   -1.2853   -1.7345 C.ar    1  UNL1        0.0099
     22 C          -0.3008   -0.8798   -0.5146 C.ar    1  UNL1        0.1646
     23 O          -1.5985   -0.5690   -0.2467 O.3     1  UNL1       -0.4801
     24 C          -2.7079   -0.5842   -1.0744 C.3     1  UNL1        0.1519
     25 C          -3.8431   -1.4338   -0.5310 C.3     1  UNL1        0.0877
     26 O          -4.4702   -0.6814    0.4356 O.3     1  UNL1       -0.3675
     27 C          -4.3559    0.6546    0.1192 C.3     1  UNL1        0.1166
     28 C          -5.6051    1.2616   -0.4210 C.3     1  UNL1        0.1101
     29 O          -6.1428    2.2019    0.4577 O.3     1  UNL1       -0.3748
     30 C          -7.4363    1.9450    0.8293 C.3     1  UNL1        0.0370
     31 C          -5.1624    1.8836   -1.7210 C.3     1  UNL1        0.0770
     32 O          -4.1244    1.0564   -2.1509 O.3     1  UNL1       -0.3675
     33 C          -3.3653    0.7912   -1.0136 C.3     1  UNL1        0.1262
     34 H           0.6112    0.0902    3.7588 H       1  UNL1        0.0660
     35 H           1.9762    0.3054    2.5409 H       1  UNL1        0.0660
     36 H           1.4273   -1.3210    3.0456 H       1  UNL1        0.0660
     37 H           2.6713   -1.0102    1.1513 H       1  UNL1        0.0663
     38 H           4.7971   -2.5720    0.4917 H       1  UNL1        0.1537
     39 H           4.4184    0.7297   -1.2038 H       1  UNL1        0.0652
     40 H           7.4515    0.6719    2.6703 H       1  UNL1        0.0658
     41 H           3.6348   -2.5973   -4.3888 H       1  UNL1        0.1048
     42 H          -0.4967   -1.3680   -2.5642 H       1  UNL1        0.0677
     43 H          -2.5009   -0.8269   -2.1281 H       1  UNL1        0.0784
     44 H          -3.5183   -2.4136   -0.1970 H       1  UNL1        0.0598
     45 H          -4.5596   -1.5672   -1.3789 H       1  UNL1        0.0598
     46 H          -4.0534    1.2288    1.0221 H       1  UNL1        0.0650
     47 H          -6.3687    0.4665   -0.6527 H       1  UNL1        0.0646
     48 H          -7.7462    2.7548    1.5237 H       1  UNL1        0.0524
     49 H          -7.5637    0.9824    1.3793 H       1  UNL1        0.0524
     50 H          -8.1559    2.0183   -0.0318 H       1  UNL1        0.0524
     51 H          -4.8316    2.9359   -1.5835 H       1  UNL1        0.0587
     52 H          -5.9401    1.8744   -2.4954 H       1  UNL1        0.0587
     53 H          -2.6614    1.5958   -0.7525 H       1  UNL1        0.0661
@<TRIPOS>BOND
     1     1     2    1
     2     2     3    1
     3     3     4   ar
     4     4     5   ar
     5     5     6   ar
     6     6     7    1
     7     7     8    1
     8     8     9   ar
     9     9    10   ar
    10    10    11    1
    11    10    12   ar
    12    12    13    1
    13    12    14   ar
    14    14    15   ar
    15    15    16    1
    16     6    17   ar
    17    17    18   ar
    18    18    19   ar
    19    19    20   ar
    20    20    21   ar
    21    21    22   ar
    22    22    23    1
    23    23    24    1
    24    24    25    1
    25    25    26    1
    26    26    27    1
    27    27    28    1
    28    28    29    1
    29    29    30    1
    30    28    31    1
    31    31    32    1
    32    32    33    1
    33    22     3   ar
    34    33    24    1
    35    20     5   ar
    36    33    27    1
    37    15     8   ar
    38     1    34    1
    39     1    35    1
    40     1    36    1
    41     4    37    1
    42     7    38    1
    43     9    39    1
    44    14    40    1
    45    18    41    1
    46    21    42    1
    47    24    43    1
    48    25    44    1
    49    25    45    1
    50    27    46    1
    51    28    47    1
    52    30    48    1
    53    30    49    1
    54    30    50    1
    55    31    51    1
    56    31    52    1
    57    33    53    1
