@<TRIPOS>MOLECULE
*****
 35 35 0 0 0
SMALL
GASTEIGER

@<TRIPOS>ATOM
      1 N          -4.5150    0.5409    2.0485 N.3     1  UNL1       -0.3300
      2 C          -5.0950    0.1463    0.7779 C.3     1  UNL1       -0.0069
      3 C          -4.5179    1.0155   -0.2949 C.3     1  UNL1       -0.0392
      4 C          -3.0135    0.9142   -0.4122 C.3     1  UNL1       -0.0362
      5 C          -2.5694   -0.4743   -0.7310 C.3     1  UNL1        0.0119
      6 N          -1.1229   -0.5839   -0.8521 N.am    1  UNL1       -0.3113
      7 C          -0.2250   -0.2748    0.2025 C.2     1  UNL1        0.2441
      8 O          -0.6664    0.1168    1.3134 O.2     1  UNL1       -0.2702
      9 C           1.2246   -0.3805    0.0923 C.ar    1  UNL1        0.0368
     10 C           1.9960   -0.0521    1.1861 C.ar    1  UNL1       -0.0478
     11 C           3.3924   -0.1266    1.1620 C.ar    1  UNL1       -0.0346
     12 C           4.0499   -0.5385    0.0219 C.ar    1  UNL1        0.1050
     13 C           3.2923   -0.8668   -1.0693 C.ar    1  UNL1       -0.0346
     14 C           1.9157   -0.7880   -1.0296 C.ar    1  UNL1       -0.0478
     15 S           5.7933   -0.6443   -0.0462 S.O2    1  UNL1        0.0559
     16 N           6.4707    0.8419   -0.5780 N.3     1  UNL1       -0.2035
     17 O           6.1306   -1.7727   -1.0025 O.2     1  UNL1       -0.1533
     18 O           6.3726   -0.9838    1.2980 O.2     1  UNL1       -0.1533
     19 H          -4.1424   -0.2735    2.5935 H       1  UNL1        0.1182
     20 H          -5.1806    1.1103    2.6247 H       1  UNL1        0.1182
     21 H          -4.8831   -0.9203    0.6265 H       1  UNL1        0.0422
     22 H          -6.2123    0.3215    0.7894 H       1  UNL1        0.0422
     23 H          -4.8370    2.0662   -0.2196 H       1  UNL1        0.0278
     24 H          -4.9062    0.6101   -1.2767 H       1  UNL1        0.0278
     25 H          -2.6330    1.6699   -1.1326 H       1  UNL1        0.0281
     26 H          -2.5688    1.2439    0.5725 H       1  UNL1        0.0281
     27 H          -2.9583   -1.1602    0.0603 H       1  UNL1        0.0462
     28 H          -3.0227   -0.8053   -1.6851 H       1  UNL1        0.0462
     29 H          -0.6851   -0.9027   -1.7445 H       1  UNL1        0.1490
     30 H           1.5682    0.2869    2.1407 H       1  UNL1        0.0626
     31 H           3.9727    0.1413    2.0473 H       1  UNL1        0.0637
     32 H           3.8021   -1.1868   -1.9553 H       1  UNL1        0.0637
     33 H           1.3370   -1.0522   -1.9037 H       1  UNL1        0.0626
     34 H           5.9205    1.2759   -1.3597 H       1  UNL1        0.1442
     35 H           6.5158    1.4858    0.2517 H       1  UNL1        0.1442
@<TRIPOS>BOND
     1     1     2    1
     2     2     3    1
     3     3     4    1
     4     4     5    1
     5     5     6    1
     6     6     7   am
     7     7     8    2
     8     7     9    1
     9     9    10   ar
    10    10    11   ar
    11    11    12   ar
    12    12    13   ar
    13    13    14   ar
    14    12    15    1
    15    15    16    1
    16    15    17    2
    17    15    18    2
    18    14     9   ar
    19     1    19    1
    20     1    20    1
    21     2    21    1
    22     2    22    1
    23     3    23    1
    24     3    24    1
    25     4    25    1
    26     4    26    1
    27     5    27    1
    28     5    28    1
    29     6    29    1
    30    10    30    1
    31    11    31    1
    32    13    32    1
    33    14    33    1
    34    16    34    1
    35    16    35    1
