
     RDKit          3D

 60 63  0  0  0  0  0  0  0  0999 V2000
    2.7995    0.8292    2.0021 C   0  0  0  0  0  0  0  0  0  0  0  0
    2.1121    0.4642    0.7335 C   0  0  1  0  0  0  0  0  0  0  0  0
    1.2315    1.6341    0.2465 C   0  0  0  0  0  0  0  0  0  0  0  0
    0.5170    1.1097   -0.8732 N   0  0  0  0  0  0  0  0  0  0  0  0
   -0.8799    0.9403   -0.8533 C   0  0  0  0  0  0  0  0  0  0  0  0
   -1.6295    1.1509    0.2750 C   0  0  0  0  0  0  0  0  0  0  0  0
   -3.0096    0.9781    0.2571 C   0  0  0  0  0  0  0  0  0  0  0  0
   -3.6700    0.5923   -0.8839 C   0  0  0  0  0  0  0  0  0  0  0  0
   -5.1038    0.4089   -0.9171 C   0  0  0  0  0  0  0  0  0  0  0  0
   -5.6385    0.0503   -2.0133 O   0  0  0  0  0  0  0  0  0  0  0  0
   -5.9652    0.6001    0.1888 N   0  0  0  0  0  0  0  0  0  0  0  0
   -7.3863    0.3964    0.0742 C   0  0  0  0  0  0  0  0  0  0  0  0
   -8.2510    1.3979   -0.2809 C   0  0  0  0  0  0  0  0  0  0  0  0
   -9.6004    1.1627   -0.3791 C   0  0  0  0  0  0  0  0  0  0  0  0
  -10.0881   -0.0950   -0.1172 C   0  0  0  0  0  0  0  0  0  0  0  0
   -9.2469   -1.1267    0.2427 C   0  0  0  0  0  0  0  0  0  0  0  0
   -7.9019   -0.8608    0.3326 C   0  0  0  0  0  0  0  0  0  0  0  0
   -6.9946   -1.8888    0.6993 N   0  0  0  0  0  0  0  0  0  0  0  0
   -2.8785    0.3904   -1.9984 C   0  0  0  0  0  0  0  0  0  0  0  0
   -1.5542    0.5571   -1.9782 N   0  0  0  0  0  0  0  0  0  0  0  0
    1.2548    0.7353   -2.0577 C   0  0  0  0  0  0  0  0  0  0  0  0
    2.3810   -0.2041   -1.6346 C   0  0  0  0  0  0  0  0  0  0  0  0
    2.9786    0.1689   -0.3784 N   0  0  0  0  0  0  0  0  0  0  0  0
    4.3971    0.2396   -0.2552 C   0  0  0  0  0  0  0  0  0  0  0  0
    5.0849   -0.0325   -1.2701 O   0  0  0  0  0  0  0  0  0  0  0  0
    5.0363    0.5858    0.9024 O   0  0  0  0  0  0  0  0  0  0  0  0
    6.4225    0.6609    1.0471 C   0  0  0  0  0  0  0  0  0  0  0  0
    7.1598   -0.5884    0.7999 C   0  0  0  0  0  0  0  0  0  0  0  0
    7.2703   -1.5349    1.7984 C   0  0  0  0  0  0  0  0  0  0  0  0
    7.9678   -2.7094    1.6251 C   0  0  0  0  0  0  0  0  0  0  0  0
    8.5839   -2.9712    0.4255 C   0  0  0  0  0  0  0  0  0  0  0  0
    8.4893   -2.0398   -0.5916 C   0  0  0  0  0  0  0  0  0  0  0  0
    7.7724   -0.8447   -0.3962 C   0  0  0  0  0  0  0  0  0  0  0  0
    1.9774    1.0265    2.7579 H   0  0  0  0  0  0  0  0  0  0  0  0
    3.3445    1.7957    1.9292 H   0  0  0  0  0  0  0  0  0  0  0  0
    3.3810    0.0093    2.4196 H   0  0  0  0  0  0  0  0  0  0  0  0
    1.4018   -0.3729    0.8794 H   0  0  0  0  0  0  0  0  0  0  0  0
    0.6501    2.0710    1.0507 H   0  0  0  0  0  0  0  0  0  0  0  0
    2.0160    2.3804   -0.1153 H   0  0  0  0  0  0  0  0  0  0  0  0
   -1.2003    1.4536    1.2251 H   0  0  0  0  0  0  0  0  0  0  0  0
   -3.5510    1.1585    1.1777 H   0  0  0  0  0  0  0  0  0  0  0  0
   -5.5413    0.8947    1.0964 H   0  0  0  0  0  0  0  0  0  0  0  0
   -7.8682    2.3799   -0.4850 H   0  0  0  0  0  0  0  0  0  0  0  0
  -10.2968    1.9571   -0.6619 H   0  0  0  0  0  0  0  0  0  0  0  0
  -11.1537   -0.2445   -0.2040 H   0  0  0  0  0  0  0  0  0  0  0  0
   -9.6538   -2.1210    0.4472 H   0  0  0  0  0  0  0  0  0  0  0  0
   -7.3692   -2.7432    1.1830 H   0  0  0  0  0  0  0  0  0  0  0  0
   -5.9642   -1.8083    0.4960 H   0  0  0  0  0  0  0  0  0  0  0  0
   -3.4208    0.0840   -2.8967 H   0  0  0  0  0  0  0  0  0  0  0  0
    0.6142    0.1818   -2.7721 H   0  0  0  0  0  0  0  0  0  0  0  0
    1.7339    1.6089   -2.5363 H   0  0  0  0  0  0  0  0  0  0  0  0
    3.1380   -0.1536   -2.4653 H   0  0  0  0  0  0  0  0  0  0  0  0
    2.0334   -1.2677   -1.6326 H   0  0  0  0  0  0  0  0  0  0  0  0
    6.5993    1.0200    2.1098 H   0  0  0  0  0  0  0  0  0  0  0  0
    6.8272    1.5111    0.4367 H   0  0  0  0  0  0  0  0  0  0  0  0
    6.7693   -1.3046    2.7503 H   0  0  0  0  0  0  0  0  0  0  0  0
    8.0440   -3.4349    2.4119 H   0  0  0  0  0  0  0  0  0  0  0  0
    9.1291   -3.8944    0.2962 H   0  0  0  0  0  0  0  0  0  0  0  0
    8.9551   -2.1953   -1.5557 H   0  0  0  0  0  0  0  0  0  0  0  0
    7.7451   -0.1491   -1.2215 H   0  0  0  0  0  0  0  0  0  0  0  0
  1  2  1  0
  2  3  1  0
  3  4  1  0
  4  5  1  0
  5  6  2  0
  6  7  1  0
  7  8  2  0
  8  9  1  0
  9 10  2  0
  9 11  1  0
 11 12  1  0
 12 13  2  0
 13 14  1  0
 14 15  2  0
 15 16  1  0
 16 17  2  0
 17 18  1  0
  8 19  1  0
 19 20  2  0
  4 21  1  0
 21 22  1  0
 22 23  1  0
 23 24  1  0
 24 25  2  0
 24 26  1  0
 26 27  1  0
 27 28  1  0
 28 29  2  0
 29 30  1  0
 30 31  2  0
 31 32  1  0
 32 33  2  0
 23  2  1  0
 33 28  1  0
 20  5  1  0
 17 12  1  0
  1 34  1  0
  1 35  1  0
  1 36  1  0
  2 37  1  1
  3 38  1  0
  3 39  1  0
  6 40  1  0
  7 41  1  0
 11 42  1  0
 13 43  1  0
 14 44  1  0
 15 45  1  0
 16 46  1  0
 18 47  1  0
 18 48  1  0
 19 49  1  0
 21 50  1  0
 21 51  1  0
 22 52  1  0
 22 53  1  0
 27 54  1  0
 27 55  1  0
 29 56  1  0
 30 57  1  0
 31 58  1  0
 32 59  1  0
 33 60  1  0
M  END
$$$$
