@<TRIPOS>MOLECULE
*****
 60 63 0 0 0
SMALL
GASTEIGER

@<TRIPOS>ATOM
      1 C           2.7995    0.8292    2.0021 C.3     1  UNL1       -0.0448
      2 C           2.1121    0.4642    0.7335 C.3     1  UNL1        0.0420
      3 C           1.2315    1.6341    0.2465 C.3     1  UNL1        0.0320
      4 N           0.5170    1.1097   -0.8732 N.pl3   1  UNL1       -0.3119
      5 C          -0.8799    0.9403   -0.8533 C.ar    1  UNL1        0.1213
      6 C          -1.6295    1.1509    0.2750 C.ar    1  UNL1       -0.0210
      7 C          -3.0096    0.9781    0.2571 C.ar    1  UNL1       -0.0449
      8 C          -3.6700    0.5923   -0.8839 C.ar    1  UNL1        0.0552
      9 C          -5.1038    0.4089   -0.9171 C.2     1  UNL1        0.2498
     10 O          -5.6385    0.0503   -2.0133 O.2     1  UNL1       -0.2698
     11 N          -5.9652    0.6001    0.1888 N.am    1  UNL1       -0.2799
     12 C          -7.3863    0.3964    0.0742 C.ar    1  UNL1        0.0545
     13 C          -8.2510    1.3979   -0.2809 C.ar    1  UNL1       -0.0387
     14 C          -9.6004    1.1627   -0.3791 C.ar    1  UNL1       -0.0599
     15 C         -10.0881   -0.0950   -0.1172 C.ar    1  UNL1       -0.0599
     16 C          -9.2469   -1.1267    0.2427 C.ar    1  UNL1       -0.0392
     17 C          -7.9019   -0.8608    0.3326 C.ar    1  UNL1        0.0461
     18 N          -6.9946   -1.8888    0.6993 N.pl3   1  UNL1       -0.3565
     19 C          -2.8785    0.3904   -1.9984 C.ar    1  UNL1        0.0418
     20 N          -1.5542    0.5571   -1.9782 N.ar    1  UNL1       -0.2396
     21 C           1.2548    0.7353   -2.0577 C.3     1  UNL1        0.0295
     22 C           2.3810   -0.2041   -1.6346 C.3     1  UNL1        0.0339
     23 N           2.9786    0.1689   -0.3784 N.am    1  UNL1       -0.2617
     24 C           4.3971    0.2396   -0.2552 C.2     1  UNL1        0.4035
     25 O           5.0849   -0.0325   -1.2701 O.2     1  UNL1       -0.2262
     26 O           5.0363    0.5858    0.9024 O.3     1  UNL1       -0.4455
     27 C           6.4225    0.6609    1.0471 C.3     1  UNL1        0.1191
     28 C           7.1598   -0.5884    0.7999 C.ar    1  UNL1       -0.0103
     29 C           7.2703   -1.5349    1.7984 C.ar    1  UNL1       -0.0554
     30 C           7.9678   -2.7094    1.6251 C.ar    1  UNL1       -0.0614
     31 C           8.5839   -2.9712    0.4255 C.ar    1  UNL1       -0.0617
     32 C           8.4893   -2.0398   -0.5916 C.ar    1  UNL1       -0.0614
     33 C           7.7724   -0.8447   -0.3962 C.ar    1  UNL1       -0.0554
     34 H           1.9774    1.0265    2.7579 H       1  UNL1        0.0248
     35 H           3.3445    1.7957    1.9292 H       1  UNL1        0.0248
     36 H           3.3810    0.0093    2.4196 H       1  UNL1        0.0248
     37 H           1.4018   -0.3729    0.8794 H       1  UNL1        0.0514
     38 H           0.6501    2.0710    1.0507 H       1  UNL1        0.0482
     39 H           2.0160    2.3804   -0.1153 H       1  UNL1        0.0482
     40 H          -1.2003    1.4536    1.2251 H       1  UNL1        0.0652
     41 H          -3.5510    1.1585    1.1777 H       1  UNL1        0.0627
     42 H          -5.5413    0.8947    1.0964 H       1  UNL1        0.1552
     43 H          -7.8682    2.3799   -0.4850 H       1  UNL1        0.0637
     44 H         -10.2968    1.9571   -0.6619 H       1  UNL1        0.0618
     45 H         -11.1537   -0.2445   -0.2040 H       1  UNL1        0.0618
     46 H          -9.6538   -2.1210    0.4472 H       1  UNL1        0.0636
     47 H          -7.3692   -2.7432    1.1830 H       1  UNL1        0.1424
     48 H          -5.9642   -1.8083    0.4960 H       1  UNL1        0.1424
     49 H          -3.4208    0.0840   -2.8967 H       1  UNL1        0.0838
     50 H           0.6142    0.1818   -2.7721 H       1  UNL1        0.0480
     51 H           1.7339    1.6089   -2.5363 H       1  UNL1        0.0480
     52 H           3.1380   -0.1536   -2.4653 H       1  UNL1        0.0481
     53 H           2.0334   -1.2677   -1.6326 H       1  UNL1        0.0481
     54 H           6.5993    1.0200    2.1098 H       1  UNL1        0.0749
     55 H           6.8272    1.5111    0.4367 H       1  UNL1        0.0749
     56 H           6.7693   -1.3046    2.7503 H       1  UNL1        0.0621
     57 H           8.0440   -3.4349    2.4119 H       1  UNL1        0.0618
     58 H           9.1291   -3.8944    0.2962 H       1  UNL1        0.0618
     59 H           8.9551   -2.1953   -1.5557 H       1  UNL1        0.0618
     60 H           7.7451   -0.1491   -1.2215 H       1  UNL1        0.0621
@<TRIPOS>BOND
     1     1     2    1
     2     2     3    1
     3     3     4    1
     4     4     5    1
     5     5     6   ar
     6     6     7   ar
     7     7     8   ar
     8     8     9    1
     9     9    10    2
    10     9    11   am
    11    11    12    1
    12    12    13   ar
    13    13    14   ar
    14    14    15   ar
    15    15    16   ar
    16    16    17   ar
    17    17    18    1
    18     8    19   ar
    19    19    20   ar
    20     4    21    1
    21    21    22    1
    22    22    23    1
    23    23    24   am
    24    24    25    2
    25    24    26    1
    26    26    27    1
    27    27    28    1
    28    28    29   ar
    29    29    30   ar
    30    30    31   ar
    31    31    32   ar
    32    32    33   ar
    33    23     2    1
    34    33    28   ar
    35    20     5   ar
    36    17    12   ar
    37     1    34    1
    38     1    35    1
    39     1    36    1
    40     2    37    1
    41     3    38    1
    42     3    39    1
    43     6    40    1
    44     7    41    1
    45    11    42    1
    46    13    43    1
    47    14    44    1
    48    15    45    1
    49    16    46    1
    50    18    47    1
    51    18    48    1
    52    19    49    1
    53    21    50    1
    54    21    51    1
    55    22    52    1
    56    22    53    1
    57    27    54    1
    58    27    55    1
    59    29    56    1
    60    30    57    1
    61    31    58    1
    62    32    59    1
    63    33    60    1
