@<TRIPOS>MOLECULE
*****
 29 31 0 0 0
SMALL
GASTEIGER

@<TRIPOS>ATOM
      1 O           2.0645    0.6455   -3.6442 O.2     1  UNL1       -0.2817
      2 C           1.6843    0.2456   -2.5045 C.2     1  UNL1        0.2496
      3 C           0.5694   -0.6398   -2.1987 C.2     1  UNL1        0.2915
      4 O          -0.1974   -1.1472   -3.0620 O.2     1  UNL1       -0.2661
      5 N           0.5345   -0.8010   -0.7785 N.am    1  UNL1       -0.2598
      6 C          -0.4296   -1.6124   -0.0745 C.3     1  UNL1        0.0452
      7 C          -1.6671   -0.9066    0.2851 C.ar    1  UNL1       -0.0297
      8 C          -2.7277   -0.8994   -0.6172 C.ar    1  UNL1       -0.0571
      9 C          -3.9075   -0.2561   -0.3291 C.ar    1  UNL1       -0.0615
     10 C          -4.0106    0.3860    0.8874 C.ar    1  UNL1       -0.0617
     11 C          -2.9776    0.3952    1.7991 C.ar    1  UNL1       -0.0615
     12 C          -1.7847   -0.2635    1.4912 C.ar    1  UNL1       -0.0571
     13 C           1.5971   -0.0401   -0.1967 C.ar    1  UNL1        0.0481
     14 C           1.9557    0.1066    1.1373 C.ar    1  UNL1       -0.0382
     15 C           3.0223    0.8940    1.4545 C.ar    1  UNL1       -0.0416
     16 C           3.7152    1.5225    0.4429 C.ar    1  UNL1        0.0418
     17 CL          5.0939    2.5435    0.8205 Cl      1  UNL1       -0.0835
     18 C           3.3718    1.3866   -0.8856 C.ar    1  UNL1       -0.0306
     19 C           2.2810    0.5817   -1.2144 C.ar    1  UNL1        0.0497
     20 H           0.0346   -1.9583    0.8924 H       1  UNL1        0.0518
     21 H          -0.6388   -2.5466   -0.6427 H       1  UNL1        0.0518
     22 H          -2.5717   -1.4275   -1.5560 H       1  UNL1        0.0621
     23 H          -4.7238   -0.2668   -1.0565 H       1  UNL1        0.0618
     24 H          -4.9324    0.8959    1.1271 H       1  UNL1        0.0618
     25 H          -3.0623    0.9023    2.7569 H       1  UNL1        0.0618
     26 H          -0.9560   -0.2698    2.1984 H       1  UNL1        0.0621
     27 H           1.4042   -0.3942    1.9158 H       1  UNL1        0.0637
     28 H           3.3712    1.0637    2.4738 H       1  UNL1        0.0633
     29 H           3.8875    1.8599   -1.6974 H       1  UNL1        0.0640
@<TRIPOS>BOND
     1     1     2    2
     2     2     3    1
     3     3     4    2
     4     3     5   am
     5     5     6    1
     6     6     7    1
     7     7     8   ar
     8     8     9   ar
     9     9    10   ar
    10    10    11   ar
    11    11    12   ar
    12     5    13    1
    13    13    14   ar
    14    14    15   ar
    15    15    16   ar
    16    16    17    1
    17    16    18   ar
    18    18    19   ar
    19    19     2    1
    20    12     7   ar
    21    19    13   ar
    22     6    20    1
    23     6    21    1
    24     8    22    1
    25     9    23    1
    26    10    24    1
    27    11    25    1
    28    12    26    1
    29    14    27    1
    30    15    28    1
    31    18    29    1
