
     RDKit          3D

 29 31  0  0  0  0  0  0  0  0999 V2000
    2.0645    0.6455   -3.6442 O   0  0  0  0  0  0  0  0  0  0  0  0
    1.6843    0.2456   -2.5045 C   0  0  0  0  0  0  0  0  0  0  0  0
    0.5694   -0.6398   -2.1987 C   0  0  0  0  0  0  0  0  0  0  0  0
   -0.1974   -1.1472   -3.0620 O   0  0  0  0  0  0  0  0  0  0  0  0
    0.5345   -0.8010   -0.7785 N   0  0  0  0  0  0  0  0  0  0  0  0
   -0.4296   -1.6124   -0.0745 C   0  0  0  0  0  0  0  0  0  0  0  0
   -1.6671   -0.9066    0.2851 C   0  0  0  0  0  0  0  0  0  0  0  0
   -2.7277   -0.8994   -0.6172 C   0  0  0  0  0  0  0  0  0  0  0  0
   -3.9075   -0.2561   -0.3291 C   0  0  0  0  0  0  0  0  0  0  0  0
   -4.0106    0.3860    0.8874 C   0  0  0  0  0  0  0  0  0  0  0  0
   -2.9776    0.3952    1.7991 C   0  0  0  0  0  0  0  0  0  0  0  0
   -1.7847   -0.2635    1.4912 C   0  0  0  0  0  0  0  0  0  0  0  0
    1.5971   -0.0401   -0.1967 C   0  0  0  0  0  0  0  0  0  0  0  0
    1.9557    0.1066    1.1373 C   0  0  0  0  0  0  0  0  0  0  0  0
    3.0223    0.8940    1.4545 C   0  0  0  0  0  0  0  0  0  0  0  0
    3.7152    1.5225    0.4429 C   0  0  0  0  0  0  0  0  0  0  0  0
    5.0939    2.5435    0.8205 Cl  0  0  0  0  0  0  0  0  0  0  0  0
    3.3718    1.3866   -0.8856 C   0  0  0  0  0  0  0  0  0  0  0  0
    2.2810    0.5817   -1.2144 C   0  0  0  0  0  0  0  0  0  0  0  0
    0.0346   -1.9583    0.8924 H   0  0  0  0  0  0  0  0  0  0  0  0
   -0.6388   -2.5466   -0.6427 H   0  0  0  0  0  0  0  0  0  0  0  0
   -2.5717   -1.4275   -1.5560 H   0  0  0  0  0  0  0  0  0  0  0  0
   -4.7238   -0.2668   -1.0565 H   0  0  0  0  0  0  0  0  0  0  0  0
   -4.9324    0.8959    1.1271 H   0  0  0  0  0  0  0  0  0  0  0  0
   -3.0623    0.9023    2.7569 H   0  0  0  0  0  0  0  0  0  0  0  0
   -0.9560   -0.2698    2.1984 H   0  0  0  0  0  0  0  0  0  0  0  0
    1.4042   -0.3942    1.9158 H   0  0  0  0  0  0  0  0  0  0  0  0
    3.3712    1.0637    2.4738 H   0  0  0  0  0  0  0  0  0  0  0  0
    3.8875    1.8599   -1.6974 H   0  0  0  0  0  0  0  0  0  0  0  0
  1  2  2  0
  2  3  1  0
  3  4  2  0
  3  5  1  0
  5  6  1  0
  6  7  1  0
  7  8  2  0
  8  9  1  0
  9 10  2  0
 10 11  1  0
 11 12  2  0
  5 13  1  0
 13 14  2  0
 14 15  1  0
 15 16  2  0
 16 17  1  0
 16 18  1  0
 18 19  2  0
 19  2  1  0
 12  7  1  0
 19 13  1  0
  6 20  1  0
  6 21  1  0
  8 22  1  0
  9 23  1  0
 10 24  1  0
 11 25  1  0
 12 26  1  0
 14 27  1  0
 15 28  1  0
 18 29  1  0
M  END
$$$$
