
     RDKit          3D

 51 54  0  0  0  0  0  0  0  0999 V2000
   -1.1313    0.9951   -0.2255 C   0  0  2  0  0  0  0  0  0  0  0  0
   -1.9828    2.0104    0.4494 C   0  0  0  0  0  0  0  0  0  0  0  0
   -3.3981    1.4904    0.2734 C   0  0  0  0  0  0  0  0  0  0  0  0
   -3.2433    0.1630   -0.4812 C   0  0  1  0  0  0  0  0  0  0  0  0
   -4.2961   -0.6662   -0.2176 O   0  0  0  0  0  0  0  0  0  0  0  0
   -3.1757    0.4958   -1.9039 C   0  0  0  0  0  0  0  0  0  0  0  0
   -3.0991    0.7717   -3.0758 C   0  0  0  0  0  0  0  0  0  0  0  0
   -1.9048   -0.2792    0.0026 C   0  0  2  0  0  0  0  0  0  0  0  0
   -1.9189   -0.5974    1.4717 C   0  0  0  0  0  0  0  0  0  0  0  0
   -2.6473   -1.8315    1.8537 C   0  0  0  0  0  0  0  0  0  0  0  0
   -1.2680   -1.3634   -0.7861 C   0  0  0  0  0  0  0  0  0  0  0  0
    0.1530   -1.5411   -0.3270 C   0  0  0  0  0  0  0  0  0  0  0  0
    0.9422   -0.2665   -0.4319 C   0  0  2  0  0  0  0  0  0  0  0  0
    2.2654   -0.4309    0.2935 C   0  0  1  0  0  0  0  0  0  0  0  0
    2.9035   -1.7679    0.0513 C   0  0  0  0  0  0  0  0  0  0  0  0
    4.2365   -1.7906    0.7284 C   0  0  0  0  0  0  0  0  0  0  0  0
    4.9867   -0.5740    0.3342 C   0  0  0  0  0  0  0  0  0  0  0  0
    6.2341   -0.6702    0.5034 O   0  0  0  0  0  0  0  0  0  0  0  0
    4.4234    0.6521   -0.2026 C   0  0  0  0  0  0  0  0  0  0  0  0
    3.0989    0.7000   -0.2128 C   0  0  0  0  0  0  0  0  0  0  0  0
    2.4022    1.8870   -0.7312 C   0  0  0  0  0  0  0  0  0  0  0  0
    1.0400    2.1344   -0.1532 C   0  0  0  0  0  0  0  0  0  0  0  0
    0.2836    0.9158    0.2493 C   0  0  1  0  0  0  0  0  0  0  0  0
   -1.1200    1.2180   -1.2991 H   0  0  0  0  0  0  0  0  0  0  0  0
   -1.7154    2.1742    1.5213 H   0  0  0  0  0  0  0  0  0  0  0  0
   -1.8812    3.0366   -0.0091 H   0  0  0  0  0  0  0  0  0  0  0  0
   -3.9457    2.2053   -0.3675 H   0  0  0  0  0  0  0  0  0  0  0  0
   -3.8982    1.3480    1.2481 H   0  0  0  0  0  0  0  0  0  0  0  0
   -5.1109   -0.1142   -0.0774 H   0  0  0  0  0  0  0  0  0  0  0  0
   -3.0286    1.0265   -4.1102 H   0  0  0  0  0  0  0  0  0  0  0  0
   -2.3249    0.2866    1.9958 H   0  0  0  0  0  0  0  0  0  0  0  0
   -0.8781   -0.7103    1.8594 H   0  0  0  0  0  0  0  0  0  0  0  0
   -3.2437   -2.3163    1.0590 H   0  0  0  0  0  0  0  0  0  0  0  0
   -3.3511   -1.5924    2.6774 H   0  0  0  0  0  0  0  0  0  0  0  0
   -2.0001   -2.6374    2.2590 H   0  0  0  0  0  0  0  0  0  0  0  0
   -1.2238   -1.0962   -1.8588 H   0  0  0  0  0  0  0  0  0  0  0  0
   -1.8085   -2.3128   -0.6033 H   0  0  0  0  0  0  0  0  0  0  0  0
    0.6361   -2.2651   -1.0058 H   0  0  0  0  0  0  0  0  0  0  0  0
    0.2573   -1.9318    0.6830 H   0  0  0  0  0  0  0  0  0  0  0  0
    1.1072   -0.0482   -1.5021 H   0  0  0  0  0  0  0  0  0  0  0  0
    2.1380   -0.2502    1.3841 H   0  0  0  0  0  0  0  0  0  0  0  0
    2.9597   -1.9372   -1.0400 H   0  0  0  0  0  0  0  0  0  0  0  0
    2.2570   -2.5170    0.5544 H   0  0  0  0  0  0  0  0  0  0  0  0
    4.0278   -1.7116    1.8330 H   0  0  0  0  0  0  0  0  0  0  0  0
    4.7965   -2.7216    0.4945 H   0  0  0  0  0  0  0  0  0  0  0  0
    5.0507    1.4505   -0.5604 H   0  0  0  0  0  0  0  0  0  0  0  0
    2.3814    1.8370   -1.8392 H   0  0  0  0  0  0  0  0  0  0  0  0
    3.0420    2.7705   -0.4874 H   0  0  0  0  0  0  0  0  0  0  0  0
    0.4649    2.6771   -0.9356 H   0  0  0  0  0  0  0  0  0  0  0  0
    1.1201    2.8784    0.6912 H   0  0  0  0  0  0  0  0  0  0  0  0
    0.3874    0.8165    1.3467 H   0  0  0  0  0  0  0  0  0  0  0  0
  1  2  1  0
  2  3  1  0
  3  4  1  0
  4  5  1  0
  4  6  1  6
  6  7  3  0
  4  8  1  0
  8  9  1  1
  9 10  1  0
  8 11  1  0
 11 12  1  0
 12 13  1  0
 13 14  1  0
 14 15  1  0
 15 16  1  0
 16 17  1  0
 17 18  2  0
 17 19  1  0
 19 20  2  0
 20 21  1  0
 21 22  1  0
 22 23  1  0
  8  1  1  0
 23 13  1  0
 23  1  1  0
 20 14  1  0
  1 24  1  6
  2 25  1  0
  2 26  1  0
  3 27  1  0
  3 28  1  0
  5 29  1  0
  7 30  1  0
  9 31  1  0
  9 32  1  0
 10 33  1  0
 10 34  1  0
 10 35  1  0
 11 36  1  0
 11 37  1  0
 12 38  1  0
 12 39  1  0
 13 40  1  6
 14 41  1  1
 15 42  1  0
 15 43  1  0
 16 44  1  0
 16 45  1  0
 19 46  1  0
 21 47  1  0
 21 48  1  0
 22 49  1  0
 22 50  1  0
 23 51  1  1
M  END
$$$$
