@<TRIPOS>MOLECULE
*****
 59 62 0 0 0
SMALL
GASTEIGER

@<TRIPOS>ATOM
      1 C           9.4147    2.1503   -0.6746 C.3     1  UNL1       -0.0397
      2 C           8.1438    1.3633   -0.8036 C.ar    1  UNL1       -0.0503
      3 C           7.8266    0.4376    0.1756 C.ar    1  UNL1       -0.0570
      4 C           6.6483   -0.3074    0.0773 C.ar    1  UNL1       -0.0350
      5 C           5.7802   -0.1462   -0.9796 C.ar    1  UNL1        0.1070
      6 S           4.3034   -1.0688   -1.1140 S.O2    1  UNL1        0.0758
      7 O           4.5442   -2.3913   -0.4437 O.2     1  UNL1       -0.1515
      8 O           4.0071   -1.3158   -2.5539 O.2     1  UNL1       -0.1515
      9 N           3.0410   -0.1859   -0.3628 N.3     1  UNL1       -0.0975
     10 C           3.2953    0.0227    1.0284 C.3     1  UNL1        0.0280
     11 N           1.8161   -0.8201   -0.6191 N.am    1  UNL1       -0.2281
     12 C           0.5682   -0.3409   -0.1399 C.2     1  UNL1        0.2468
     13 O           0.5749    0.7103    0.5505 O.2     1  UNL1       -0.2727
     14 C          -0.6735   -1.0786   -0.4617 C.3     1  UNL1        0.1101
     15 C          -0.6455   -2.5140   -0.0526 C.3     1  UNL1       -0.0143
     16 C          -1.5927   -2.6005    1.1255 C.3     1  UNL1        0.0186
     17 S          -0.7828   -3.2513    2.6037 S.3     1  UNL1       -0.1735
     18 C          -2.0921   -1.1948    1.3291 C.3     1  UNL1        0.0330
     19 N          -1.8493   -0.4811    0.0896 N.3     1  UNL1       -0.1636
     20 S          -3.1681   -0.8270   -0.9696 S.O2    1  UNL1        0.0616
     21 O          -2.9400   -0.2055   -2.3323 O.2     1  UNL1       -0.1528
     22 O          -3.2822   -2.3239   -1.2226 O.2     1  UNL1       -0.1528
     23 C          -4.6955   -0.2971   -0.3566 C.ar    1  UNL1        0.1061
     24 C          -5.5366   -1.0447    0.4072 C.ar    1  UNL1       -0.0348
     25 C          -6.7412   -0.5157    0.8460 C.ar    1  UNL1       -0.0522
     26 C          -7.1451    0.7687    0.5398 C.ar    1  UNL1       -0.0178
     27 C          -8.3427    1.2926    0.9768 C.ar    1  UNL1       -0.0540
     28 C          -8.7528    2.5727    0.6756 C.ar    1  UNL1       -0.0612
     29 C          -7.8976    3.3536   -0.1095 C.ar    1  UNL1       -0.0612
     30 C          -6.7062    2.8117   -0.5357 C.ar    1  UNL1       -0.0540
     31 C          -6.2888    1.5336   -0.2393 C.ar    1  UNL1       -0.0160
     32 C          -5.0924    1.0029   -0.6730 C.ar    1  UNL1       -0.0276
     33 C           6.1237    0.7890   -1.9468 C.ar    1  UNL1       -0.0350
     34 C           7.2840    1.5292   -1.8592 C.ar    1  UNL1       -0.0570
     35 H           9.2200    3.1193   -0.1869 H       1  UNL1        0.0278
     36 H          10.1083    1.5660   -0.0634 H       1  UNL1        0.0278
     37 H           9.8001    2.3500   -1.7017 H       1  UNL1        0.0278
     38 H           8.4961    0.2923    1.0198 H       1  UNL1        0.0621
     39 H           6.4503   -1.0082    0.8562 H       1  UNL1        0.0637
     40 H           2.7506    0.9507    1.3537 H       1  UNL1        0.0425
     41 H           2.8896   -0.8618    1.5816 H       1  UNL1        0.0425
     42 H           4.3839    0.1457    1.2002 H       1  UNL1        0.0425
     43 H           1.7927   -1.7033   -1.1969 H       1  UNL1        0.1709
     44 H          -0.7760   -1.0520   -1.5812 H       1  UNL1        0.0576
     45 H           0.3815   -2.7724    0.2427 H       1  UNL1        0.0296
     46 H          -0.9508   -3.1915   -0.8885 H       1  UNL1        0.0296
     47 H          -2.4293   -3.2634    0.8248 H       1  UNL1        0.0423
     48 H           0.6266   -3.1780    2.4541 H       1  UNL1        0.1020
     49 H          -1.6200   -0.6959    2.1979 H       1  UNL1        0.0455
     50 H          -3.1809   -1.2084    1.5373 H       1  UNL1        0.0455
     51 H          -5.2407   -2.0664    0.6638 H       1  UNL1        0.0637
     52 H          -7.3932   -1.1130    1.4455 H       1  UNL1        0.0624
     53 H          -9.0162    0.6953    1.5879 H       1  UNL1        0.0624
     54 H          -9.6942    2.9824    1.0201 H       1  UNL1        0.0618
     55 H          -8.1929    4.3586   -0.3604 H       1  UNL1        0.0618
     56 H          -6.0578    3.4263   -1.1401 H       1  UNL1        0.0624
     57 H          -4.4647    1.6493   -1.2793 H       1  UNL1        0.0643
     58 H           5.4280    0.8968   -2.7642 H       1  UNL1        0.0637
     59 H           7.5428    2.2542   -2.6160 H       1  UNL1        0.0621
@<TRIPOS>BOND
     1     1     2    1
     2     2     3   ar
     3     3     4   ar
     4     4     5   ar
     5     5     6    1
     6     6     7    2
     7     6     8    2
     8     6     9    1
     9     9    10    1
    10     9    11    1
    11    11    12   am
    12    12    13    2
    13    12    14    1
    14    14    15    1
    15    15    16    1
    16    16    17    1
    17    16    18    1
    18    18    19    1
    19    19    20    1
    20    20    21    2
    21    20    22    2
    22    20    23    1
    23    23    24   ar
    24    24    25   ar
    25    25    26   ar
    26    26    27   ar
    27    27    28   ar
    28    28    29   ar
    29    29    30   ar
    30    30    31   ar
    31    31    32   ar
    32     5    33   ar
    33    33    34   ar
    34    34     2   ar
    35    19    14    1
    36    32    23   ar
    37    31    26   ar
    38     1    35    1
    39     1    36    1
    40     1    37    1
    41     3    38    1
    42     4    39    1
    43    10    40    1
    44    10    41    1
    45    10    42    1
    46    11    43    1
    47    14    44    1
    48    15    45    1
    49    15    46    1
    50    16    47    1
    51    17    48    1
    52    18    49    1
    53    18    50    1
    54    24    51    1
    55    25    52    1
    56    27    53    1
    57    28    54    1
    58    29    55    1
    59    30    56    1
    60    32    57    1
    61    33    58    1
    62    34    59    1
