
     RDKit          3D

 59 62  0  0  0  0  0  0  0  0999 V2000
    9.4147    2.1503   -0.6746 C   0  0  0  0  0  0  0  0  0  0  0  0
    8.1438    1.3633   -0.8036 C   0  0  0  0  0  0  0  0  0  0  0  0
    7.8266    0.4376    0.1756 C   0  0  0  0  0  0  0  0  0  0  0  0
    6.6483   -0.3074    0.0773 C   0  0  0  0  0  0  0  0  0  0  0  0
    5.7802   -0.1462   -0.9796 C   0  0  0  0  0  0  0  0  0  0  0  0
    4.3034   -1.0688   -1.1140 S   0  0  0  0  0  6  0  0  0  0  0  0
    4.5442   -2.3913   -0.4437 O   0  0  0  0  0  0  0  0  0  0  0  0
    4.0071   -1.3158   -2.5539 O   0  0  0  0  0  0  0  0  0  0  0  0
    3.0410   -0.1859   -0.3628 N   0  0  0  0  0  0  0  0  0  0  0  0
    3.2953    0.0227    1.0284 C   0  0  0  0  0  0  0  0  0  0  0  0
    1.8161   -0.8201   -0.6191 N   0  0  0  0  0  0  0  0  0  0  0  0
    0.5682   -0.3409   -0.1399 C   0  0  0  0  0  0  0  0  0  0  0  0
    0.5749    0.7103    0.5505 O   0  0  0  0  0  0  0  0  0  0  0  0
   -0.6735   -1.0786   -0.4617 C   0  0  0  0  0  0  0  0  0  0  0  0
   -0.6455   -2.5140   -0.0526 C   0  0  0  0  0  0  0  0  0  0  0  0
   -1.5927   -2.6005    1.1255 C   0  0  1  0  0  0  0  0  0  0  0  0
   -0.7828   -3.2513    2.6037 S   0  0  0  0  0  0  0  0  0  0  0  0
   -2.0921   -1.1948    1.3291 C   0  0  0  0  0  0  0  0  0  0  0  0
   -1.8493   -0.4811    0.0896 N   0  0  0  0  0  0  0  0  0  0  0  0
   -3.1681   -0.8270   -0.9696 S   0  0  0  0  0  6  0  0  0  0  0  0
   -2.9400   -0.2055   -2.3323 O   0  0  0  0  0  0  0  0  0  0  0  0
   -3.2822   -2.3239   -1.2226 O   0  0  0  0  0  0  0  0  0  0  0  0
   -4.6955   -0.2971   -0.3566 C   0  0  0  0  0  0  0  0  0  0  0  0
   -5.5366   -1.0447    0.4072 C   0  0  0  0  0  0  0  0  0  0  0  0
   -6.7412   -0.5157    0.8460 C   0  0  0  0  0  0  0  0  0  0  0  0
   -7.1451    0.7687    0.5398 C   0  0  0  0  0  0  0  0  0  0  0  0
   -8.3427    1.2926    0.9768 C   0  0  0  0  0  0  0  0  0  0  0  0
   -8.7528    2.5727    0.6756 C   0  0  0  0  0  0  0  0  0  0  0  0
   -7.8976    3.3536   -0.1095 C   0  0  0  0  0  0  0  0  0  0  0  0
   -6.7062    2.8117   -0.5357 C   0  0  0  0  0  0  0  0  0  0  0  0
   -6.2888    1.5336   -0.2393 C   0  0  0  0  0  0  0  0  0  0  0  0
   -5.0924    1.0029   -0.6730 C   0  0  0  0  0  0  0  0  0  0  0  0
    6.1237    0.7890   -1.9468 C   0  0  0  0  0  0  0  0  0  0  0  0
    7.2840    1.5292   -1.8592 C   0  0  0  0  0  0  0  0  0  0  0  0
    9.2200    3.1193   -0.1869 H   0  0  0  0  0  0  0  0  0  0  0  0
   10.1083    1.5660   -0.0634 H   0  0  0  0  0  0  0  0  0  0  0  0
    9.8001    2.3500   -1.7017 H   0  0  0  0  0  0  0  0  0  0  0  0
    8.4961    0.2923    1.0198 H   0  0  0  0  0  0  0  0  0  0  0  0
    6.4503   -1.0082    0.8562 H   0  0  0  0  0  0  0  0  0  0  0  0
    2.7506    0.9507    1.3537 H   0  0  0  0  0  0  0  0  0  0  0  0
    2.8896   -0.8618    1.5816 H   0  0  0  0  0  0  0  0  0  0  0  0
    4.3839    0.1457    1.2002 H   0  0  0  0  0  0  0  0  0  0  0  0
    1.7927   -1.7033   -1.1969 H   0  0  0  0  0  0  0  0  0  0  0  0
   -0.7760   -1.0520   -1.5812 H   0  0  0  0  0  0  0  0  0  0  0  0
    0.3815   -2.7724    0.2427 H   0  0  0  0  0  0  0  0  0  0  0  0
   -0.9508   -3.1915   -0.8885 H   0  0  0  0  0  0  0  0  0  0  0  0
   -2.4293   -3.2634    0.8248 H   0  0  0  0  0  0  0  0  0  0  0  0
    0.6266   -3.1780    2.4541 H   0  0  0  0  0  0  0  0  0  0  0  0
   -1.6200   -0.6959    2.1979 H   0  0  0  0  0  0  0  0  0  0  0  0
   -3.1809   -1.2084    1.5373 H   0  0  0  0  0  0  0  0  0  0  0  0
   -5.2407   -2.0664    0.6638 H   0  0  0  0  0  0  0  0  0  0  0  0
   -7.3932   -1.1130    1.4455 H   0  0  0  0  0  0  0  0  0  0  0  0
   -9.0162    0.6953    1.5879 H   0  0  0  0  0  0  0  0  0  0  0  0
   -9.6942    2.9824    1.0201 H   0  0  0  0  0  0  0  0  0  0  0  0
   -8.1929    4.3586   -0.3604 H   0  0  0  0  0  0  0  0  0  0  0  0
   -6.0578    3.4263   -1.1401 H   0  0  0  0  0  0  0  0  0  0  0  0
   -4.4647    1.6493   -1.2793 H   0  0  0  0  0  0  0  0  0  0  0  0
    5.4280    0.8968   -2.7642 H   0  0  0  0  0  0  0  0  0  0  0  0
    7.5428    2.2542   -2.6160 H   0  0  0  0  0  0  0  0  0  0  0  0
  1  2  1  0
  2  3  2  0
  3  4  1  0
  4  5  2  0
  5  6  1  0
  6  7  2  0
  6  8  2  0
  6  9  1  0
  9 10  1  0
  9 11  1  0
 11 12  1  0
 12 13  2  0
 12 14  1  0
 14 15  1  0
 15 16  1  0
 16 17  1  0
 16 18  1  0
 18 19  1  0
 19 20  1  0
 20 21  2  0
 20 22  2  0
 20 23  1  0
 23 24  2  0
 24 25  1  0
 25 26  2  0
 26 27  1  0
 27 28  2  0
 28 29  1  0
 29 30  2  0
 30 31  1  0
 31 32  2  0
  5 33  1  0
 33 34  2  0
 34  2  1  0
 19 14  1  0
 32 23  1  0
 31 26  1  0
  1 35  1  0
  1 36  1  0
  1 37  1  0
  3 38  1  0
  4 39  1  0
 10 40  1  0
 10 41  1  0
 10 42  1  0
 11 43  1  0
 14 44  1  0
 15 45  1  0
 15 46  1  0
 16 47  1  6
 17 48  1  0
 18 49  1  0
 18 50  1  0
 24 51  1  0
 25 52  1  0
 27 53  1  0
 28 54  1  0
 29 55  1  0
 30 56  1  0
 32 57  1  0
 33 58  1  0
 34 59  1  0
M  END
$$$$
