@<TRIPOS>MOLECULE
*****
 35 35 0 0 0
SMALL
GASTEIGER

@<TRIPOS>ATOM
      1 O           5.9089   -0.7384    0.4590 O.2     1  UNL1       -0.2510
      2 C           5.3415    0.3308    0.1625 C.2     1  UNL1        0.3062
      3 O           6.0907    1.4615   -0.0647 O.3     1  UNL1       -0.4806
      4 C           3.8663    0.3597    0.0612 C.3     1  UNL1        0.0603
      5 C           3.2563   -0.9862    0.3497 C.3     1  UNL1        0.0217
      6 N           1.8153   -0.9111    0.2444 N.am    1  UNL1       -0.3145
      7 C           1.2080   -0.5463   -0.9815 C.2     1  UNL1        0.2172
      8 O           1.8702   -0.2803   -2.0090 O.2     1  UNL1       -0.2755
      9 C          -0.3170   -0.4780   -1.0410 C.3     1  UNL1        0.0482
     10 C          -0.8366   -1.8459   -0.7034 C.3     1  UNL1        0.0021
     11 S          -2.6175   -1.9606   -0.7745 S.3     1  UNL1       -0.1775
     12 C          -0.7812    0.5684   -0.0820 C.3     1  UNL1       -0.0158
     13 C          -2.2169    0.7832    0.0150 C.ar    1  UNL1       -0.0466
     14 C          -2.8594    1.6083   -0.9087 C.ar    1  UNL1       -0.0586
     15 C          -4.2034    1.8614   -0.8207 C.ar    1  UNL1       -0.0615
     16 C          -4.9536    1.3065    0.1832 C.ar    1  UNL1       -0.0617
     17 C          -4.3475    0.4917    1.1047 C.ar    1  UNL1       -0.0615
     18 C          -2.9969    0.2407    1.0119 C.ar    1  UNL1       -0.0586
     19 H           6.9420    1.6385    0.4566 H       1  UNL1        0.2951
     20 H           3.6367    0.7400   -0.9521 H       1  UNL1        0.0393
     21 H           3.4547    1.1205    0.7858 H       1  UNL1        0.0393
     22 H           3.5913   -1.4207    1.2876 H       1  UNL1        0.0467
     23 H           3.5796   -1.7105   -0.4552 H       1  UNL1        0.0467
     24 H           1.2150   -1.1314    1.0931 H       1  UNL1        0.1487
     25 H          -0.5999   -0.2309   -2.0791 H       1  UNL1        0.0405
     26 H          -0.4853   -2.1230    0.3213 H       1  UNL1        0.0381
     27 H          -0.3634   -2.6267   -1.3665 H       1  UNL1        0.0381
     28 H          -3.0578   -3.1385   -0.1630 H       1  UNL1        0.1017
     29 H          -0.3589    0.3853    0.9476 H       1  UNL1        0.0321
     30 H          -0.3324    1.5553   -0.3980 H       1  UNL1        0.0321
     31 H          -2.2466    2.0354   -1.6929 H       1  UNL1        0.0620
     32 H          -4.6938    2.5004   -1.5384 H       1  UNL1        0.0618
     33 H          -6.0085    1.4923    0.2697 H       1  UNL1        0.0618
     34 H          -4.9392    0.0512    1.9004 H       1  UNL1        0.0618
     35 H          -2.5603   -0.4026    1.7608 H       1  UNL1        0.0620
@<TRIPOS>BOND
     1     1     2    2
     2     2     3    1
     3     2     4    1
     4     4     5    1
     5     5     6    1
     6     6     7   am
     7     7     8    2
     8     7     9    1
     9     9    10    1
    10    10    11    1
    11     9    12    1
    12    12    13    1
    13    13    14   ar
    14    14    15   ar
    15    15    16   ar
    16    16    17   ar
    17    17    18   ar
    18    18    13   ar
    19     3    19    1
    20     4    20    1
    21     4    21    1
    22     5    22    1
    23     5    23    1
    24     6    24    1
    25     9    25    1
    26    10    26    1
    27    10    27    1
    28    11    28    1
    29    12    29    1
    30    12    30    1
    31    14    31    1
    32    15    32    1
    33    16    33    1
    34    17    34    1
    35    18    35    1
