
     RDKit          3D

 77 80  0  0  0  0  0  0  0  0999 V2000
   -0.8729    7.6005    2.3130 C   0  0  0  0  0  0  0  0  0  0  0  0
   -1.9010    6.8465    1.7444 O   0  0  0  0  0  0  0  0  0  0  0  0
   -1.9298    5.4868    1.5676 C   0  0  0  0  0  0  0  0  0  0  0  0
   -0.8429    4.7137    1.9813 C   0  0  0  0  0  0  0  0  0  0  0  0
   -0.8828    3.3503    1.7991 C   0  0  0  0  0  0  0  0  0  0  0  0
   -1.9302    2.6603    1.2284 C   0  0  0  0  0  0  0  0  0  0  0  0
   -2.0302    1.2100    1.0039 C   0  0  0  0  0  0  0  0  0  0  0  0
   -1.5077    0.8198   -0.3032 N   0  0  0  0  0  0  0  0  0  0  0  0
   -2.4849    0.7929   -1.3820 C   0  0  1  0  0  0  0  0  0  0  0  0
   -2.1430    1.7496   -2.4981 C   0  0  0  0  0  0  0  0  0  0  0  0
   -2.5637   -0.6022   -1.9429 C   0  0  0  0  0  0  0  0  0  0  0  0
   -2.6044   -1.5945   -1.0223 N   0  0  0  0  0  0  0  0  0  0  0  0
   -2.6728   -2.7910   -1.6336 C   0  0  0  0  0  0  0  0  0  0  0  0
   -2.6723   -2.4904   -2.9783 C   0  0  0  0  0  0  0  0  0  0  0  0
   -2.6061   -1.1614   -3.1626 N   0  0  0  0  0  0  0  0  0  0  0  0
   -2.7312   -4.0784   -0.9516 C   0  0  0  0  0  0  0  0  0  0  0  0
   -2.7155   -4.0505    0.4320 C   0  0  0  0  0  0  0  0  0  0  0  0
   -2.7672   -5.2150    1.1677 C   0  0  0  0  0  0  0  0  0  0  0  0
   -2.8354   -6.4248    0.5104 C   0  0  0  0  0  0  0  0  0  0  0  0
   -2.8491   -6.4184   -0.8686 C   0  0  0  0  0  0  0  0  0  0  0  0
   -2.7987   -5.2687   -1.6443 C   0  0  0  0  0  0  0  0  0  0  0  0
   -0.2110    0.4443   -0.7799 C   0  0  0  0  0  0  0  0  0  0  0  0
   -0.0395    0.1507   -2.0234 O   0  0  0  0  0  0  0  0  0  0  0  0
    1.1802    0.2576   -0.2506 C   0  0  1  0  0  0  0  0  0  0  0  0
    1.2988    0.5214    1.1380 N   0  0  0  0  0  0  0  0  0  0  0  0
    1.6540   -1.1138   -0.6919 C   0  0  0  0  0  0  0  0  0  0  0  0
    3.0032   -1.4699   -0.2717 C   0  0  0  0  0  0  0  0  0  0  0  0
    3.4288   -1.9528    0.9193 C   0  0  0  0  0  0  0  0  0  0  0  0
    2.4507   -2.2291    1.9668 C   0  0  0  0  0  0  0  0  0  0  0  0
    4.7391   -2.2372    1.2412 C   0  0  0  0  0  0  0  0  0  0  0  0
    5.7379   -2.0282    0.2993 C   0  0  0  0  0  0  0  0  0  0  0  0
    5.3236   -1.5378   -0.9188 C   0  0  0  0  0  0  0  0  0  0  0  0
    3.9903   -1.2492   -1.2433 C   0  0  0  0  0  0  0  0  0  0  0  0
    3.7481   -0.7239   -2.6040 C   0  0  0  0  0  0  0  0  0  0  0  0
    7.1597   -2.2829    0.4997 C   0  0  0  0  0  0  0  0  0  0  0  0
    7.4764   -2.7889    1.7851 N   0  0  0  0  0  0  0  0  0  0  0  0
    8.0778   -2.0971   -0.3376 O   0  0  0  0  0  0  0  0  0  0  0  0
   -2.9998    3.4660    0.8267 C   0  0  0  0  0  0  0  0  0  0  0  0
   -3.0106    4.8387    0.9863 C   0  0  0  0  0  0  0  0  0  0  0  0
   -4.1701    5.6107    0.5399 C   0  0  0  0  0  0  0  0  0  0  0  0
   -4.1898    6.9766    0.6974 O   0  0  0  0  0  0  0  0  0  0  0  0
   -5.1992    5.1278    0.0016 O   0  0  0  0  0  0  0  0  0  0  0  0
   -1.2685    8.5370    2.7575 H   0  0  0  0  0  0  0  0  0  0  0  0
   -0.1483    7.8902    1.5045 H   0  0  0  0  0  0  0  0  0  0  0  0
   -0.3066    7.0746    3.1050 H   0  0  0  0  0  0  0  0  0  0  0  0
    0.0237    5.1590    2.4375 H   0  0  0  0  0  0  0  0  0  0  0  0
   -0.0446    2.7599    2.1194 H   0  0  0  0  0  0  0  0  0  0  0  0
   -1.5165    0.6013    1.7618 H   0  0  0  0  0  0  0  0  0  0  0  0
   -3.1176    0.9144    1.0408 H   0  0  0  0  0  0  0  0  0  0  0  0
   -3.4684    1.0810   -0.9891 H   0  0  0  0  0  0  0  0  0  0  0  0
   -3.0419    2.2893   -2.8944 H   0  0  0  0  0  0  0  0  0  0  0  0
   -1.3839    2.4766   -2.1451 H   0  0  0  0  0  0  0  0  0  0  0  0
   -1.7011    1.2014   -3.3691 H   0  0  0  0  0  0  0  0  0  0  0  0
   -2.7177   -3.2062   -3.7795 H   0  0  0  0  0  0  0  0  0  0  0  0
   -2.5844   -0.5496   -3.9816 H   0  0  0  0  0  0  0  0  0  0  0  0
   -2.6624   -3.1216    0.9977 H   0  0  0  0  0  0  0  0  0  0  0  0
   -2.7564   -5.2244    2.2630 H   0  0  0  0  0  0  0  0  0  0  0  0
   -2.8772   -7.3667    1.0769 H   0  0  0  0  0  0  0  0  0  0  0  0
   -2.9031   -7.3615   -1.4185 H   0  0  0  0  0  0  0  0  0  0  0  0
   -2.8096   -5.2783   -2.7227 H   0  0  0  0  0  0  0  0  0  0  0  0
    1.8325    1.0574   -0.7471 H   0  0  0  0  0  0  0  0  0  0  0  0
    0.7197    0.0102    1.7927 H   0  0  0  0  0  0  0  0  0  0  0  0
    2.1466    0.9837    1.4679 H   0  0  0  0  0  0  0  0  0  0  0  0
    0.8771   -1.8352   -0.3314 H   0  0  0  0  0  0  0  0  0  0  0  0
    1.5216   -1.1482   -1.8039 H   0  0  0  0  0  0  0  0  0  0  0  0
    1.3940   -2.2749    1.6540 H   0  0  0  0  0  0  0  0  0  0  0  0
    2.5275   -1.4390    2.7411 H   0  0  0  0  0  0  0  0  0  0  0  0
    2.6740   -3.2209    2.4630 H   0  0  0  0  0  0  0  0  0  0  0  0
    5.0451   -2.6227    2.2032 H   0  0  0  0  0  0  0  0  0  0  0  0
    6.1145   -1.3815   -1.6437 H   0  0  0  0  0  0  0  0  0  0  0  0
    2.9258    0.0105   -2.6786 H   0  0  0  0  0  0  0  0  0  0  0  0
    3.6525   -1.5512   -3.3280 H   0  0  0  0  0  0  0  0  0  0  0  0
    4.6661   -0.1416   -2.9117 H   0  0  0  0  0  0  0  0  0  0  0  0
    7.1885   -2.5340    2.7626 H   0  0  0  0  0  0  0  0  0  0  0  0
    7.7395   -3.1943    2.6967 H   0  0  0  0  0  0  0  0  0  0  0  0
   -3.8854    3.0221    0.3609 H   0  0  0  0  0  0  0  0  0  0  0  0
   -4.9620    7.5650    0.3976 H   0  0  0  0  0  0  0  0  0  0  0  0
  1  2  1  0
  2  3  1  0
  3  4  2  0
  4  5  1  0
  5  6  2  0
  6  7  1  0
  7  8  1  0
  8  9  1  0
  9 10  1  0
  9 11  1  0
 11 12  2  0
 12 13  1  0
 13 14  2  0
 14 15  1  0
 13 16  1  0
 16 17  2  0
 17 18  1  0
 18 19  2  0
 19 20  1  0
 20 21  2  0
  8 22  1  0
 22 23  2  0
 22 24  1  0
 24 25  1  0
 24 26  1  0
 26 27  1  0
 27 28  2  0
 28 29  1  0
 28 30  1  0
 30 31  2  0
 31 32  1  0
 32 33  2  0
 33 34  1  0
 31 35  1  0
 35 36  1  0
 35 37  2  0
  6 38  1  0
 38 39  2  0
 39 40  1  0
 40 41  1  0
 40 42  2  0
 39  3  1  0
 15 11  1  0
 21 16  1  0
 33 27  1  0
  1 43  1  0
  1 44  1  0
  1 45  1  0
  4 46  1  0
  5 47  1  0
  7 48  1  0
  7 49  1  0
  9 50  1  1
 10 51  1  0
 10 52  1  0
 10 53  1  0
 14 54  1  0
 15 55  1  0
 17 56  1  0
 18 57  1  0
 19 58  1  0
 20 59  1  0
 21 60  1  0
 24 61  1  6
 25 62  1  0
 25 63  1  0
 26 64  1  0
 26 65  1  0
 29 66  1  0
 29 67  1  0
 29 68  1  0
 30 69  1  0
 32 70  1  0
 34 71  1  0
 34 72  1  0
 34 73  1  0
 36 74  1  0
 36 75  1  0
 38 76  1  0
 41 77  1  0
M  END
$$$$
