@<TRIPOS>MOLECULE
*****
 77 80 0 0 0
SMALL
GASTEIGER

@<TRIPOS>ATOM
      1 C          -0.8729    7.6005    2.3130 C.3     1  UNL1        0.0788
      2 O          -1.9010    6.8465    1.7444 O.3     1  UNL1       -0.4943
      3 C          -1.9298    5.4868    1.5676 C.ar    1  UNL1        0.1341
      4 C          -0.8429    4.7137    1.9813 C.ar    1  UNL1       -0.0188
      5 C          -0.8828    3.3503    1.7991 C.ar    1  UNL1       -0.0536
      6 C          -1.9302    2.6603    1.2284 C.ar    1  UNL1       -0.0291
      7 C          -2.0302    1.2100    1.0039 C.3     1  UNL1        0.0405
      8 N          -1.5077    0.8198   -0.3032 N.am    1  UNL1       -0.2861
      9 C          -2.4849    0.7929   -1.3820 C.3     1  UNL1        0.0814
     10 C          -2.1430    1.7496   -2.4981 C.3     1  UNL1       -0.0393
     11 C          -2.5637   -0.6022   -1.9429 C.ar    1  UNL1        0.1281
     12 N          -2.6044   -1.5945   -1.0223 N.ar    1  UNL1       -0.2306
     13 C          -2.6728   -2.7910   -1.6336 C.ar    1  UNL1        0.0889
     14 C          -2.6723   -2.4904   -2.9783 C.ar    1  UNL1        0.0293
     15 N          -2.6061   -1.1614   -3.1626 N.ar    1  UNL1       -0.3462
     16 C          -2.7312   -4.0784   -0.9516 C.ar    1  UNL1        0.0018
     17 C          -2.7155   -4.0505    0.4320 C.ar    1  UNL1       -0.0525
     18 C          -2.7672   -5.2150    1.1677 C.ar    1  UNL1       -0.0611
     19 C          -2.8354   -6.4248    0.5104 C.ar    1  UNL1       -0.0617
     20 C          -2.8491   -6.4184   -0.8686 C.ar    1  UNL1       -0.0611
     21 C          -2.7987   -5.2687   -1.6443 C.ar    1  UNL1       -0.0525
     22 C          -0.2110    0.4443   -0.7799 C.2     1  UNL1        0.2336
     23 O          -0.0395    0.1507   -2.0234 O.2     1  UNL1       -0.2739
     24 C           1.1802    0.2576   -0.2506 C.3     1  UNL1        0.0865
     25 N           1.2988    0.5214    1.1380 N.3     1  UNL1       -0.3197
     26 C           1.6540   -1.1138   -0.6919 C.3     1  UNL1       -0.0034
     27 C           3.0032   -1.4699   -0.2717 C.ar    1  UNL1       -0.0396
     28 C           3.4288   -1.9528    0.9193 C.ar    1  UNL1       -0.0462
     29 C           2.4507   -2.2291    1.9668 C.3     1  UNL1       -0.0394
     30 C           4.7391   -2.2372    1.2412 C.ar    1  UNL1       -0.0464
     31 C           5.7379   -2.0282    0.2993 C.ar    1  UNL1        0.0370
     32 C           5.3236   -1.5378   -0.9188 C.ar    1  UNL1       -0.0464
     33 C           3.9903   -1.2492   -1.2433 C.ar    1  UNL1       -0.0462
     34 C           3.7481   -0.7239   -2.6040 C.3     1  UNL1       -0.0394
     35 C           7.1597   -2.2829    0.4997 C.2     1  UNL1        0.2415
     36 N           7.4764   -2.7889    1.7851 N.am    1  UNL1       -0.3253
     37 O           8.0778   -2.0971   -0.3376 O.2     1  UNL1       -0.2704
     38 C          -2.9998    3.4660    0.8267 C.ar    1  UNL1       -0.0395
     39 C          -3.0106    4.8387    0.9863 C.ar    1  UNL1        0.1006
     40 C          -4.1701    5.6107    0.5399 C.2     1  UNL1        0.3404
     41 O          -4.1898    6.9766    0.6974 O.3     1  UNL1       -0.4770
     42 O          -5.1992    5.1278    0.0016 O.2     1  UNL1       -0.2450
     43 H          -1.2685    8.5370    2.7575 H       1  UNL1        0.0660
     44 H          -0.1483    7.8902    1.5045 H       1  UNL1        0.0660
     45 H          -0.3066    7.0746    3.1050 H       1  UNL1        0.0660
     46 H           0.0237    5.1590    2.4375 H       1  UNL1        0.0654
     47 H          -0.0446    2.7599    2.1194 H       1  UNL1        0.0622
     48 H          -1.5165    0.6013    1.7618 H       1  UNL1        0.0514
     49 H          -3.1176    0.9144    1.0408 H       1  UNL1        0.0514
     50 H          -3.4684    1.0810   -0.9891 H       1  UNL1        0.0578
     51 H          -3.0419    2.2893   -2.8944 H       1  UNL1        0.0252
     52 H          -1.3839    2.4766   -2.1451 H       1  UNL1        0.0252
     53 H          -1.7011    1.2014   -3.3691 H       1  UNL1        0.0252
     54 H          -2.7177   -3.2062   -3.7795 H       1  UNL1        0.0829
     55 H          -2.5844   -0.5496   -3.9816 H       1  UNL1        0.1666
     56 H          -2.6624   -3.1216    0.9977 H       1  UNL1        0.0624
     57 H          -2.7564   -5.2244    2.2630 H       1  UNL1        0.0618
     58 H          -2.8772   -7.3667    1.0769 H       1  UNL1        0.0618
     59 H          -2.9031   -7.3615   -1.4185 H       1  UNL1        0.0618
     60 H          -2.8096   -5.2783   -2.7227 H       1  UNL1        0.0624
     61 H           1.8325    1.0574   -0.7471 H       1  UNL1        0.0558
     62 H           0.7197    0.0102    1.7927 H       1  UNL1        0.1189
     63 H           2.1466    0.9837    1.4679 H       1  UNL1        0.1189
     64 H           0.8771   -1.8352   -0.3314 H       1  UNL1        0.0333
     65 H           1.5216   -1.1482   -1.8039 H       1  UNL1        0.0333
     66 H           1.3940   -2.2749    1.6540 H       1  UNL1        0.0278
     67 H           2.5275   -1.4390    2.7411 H       1  UNL1        0.0278
     68 H           2.6740   -3.2209    2.4630 H       1  UNL1        0.0278
     69 H           5.0451   -2.6227    2.2032 H       1  UNL1        0.0628
     70 H           6.1145   -1.3815   -1.6437 H       1  UNL1        0.0628
     71 H           2.9258    0.0105   -2.6786 H       1  UNL1        0.0278
     72 H           3.6525   -1.5512   -3.3280 H       1  UNL1        0.0278
     73 H           4.6661   -0.1416   -2.9117 H       1  UNL1        0.0278
     74 H           7.1885   -2.5340    2.7626 H       1  UNL1        0.1453
     75 H           7.7395   -3.1943    2.6967 H       1  UNL1        0.1453
     76 H          -3.8854    3.0221    0.3609 H       1  UNL1        0.0630
     77 H          -4.9620    7.5650    0.3976 H       1  UNL1        0.2954
@<TRIPOS>BOND
     1     1     2    1
     2     2     3    1
     3     3     4   ar
     4     4     5   ar
     5     5     6   ar
     6     6     7    1
     7     7     8    1
     8     8     9    1
     9     9    10    1
    10     9    11    1
    11    11    12   ar
    12    12    13   ar
    13    13    14   ar
    14    14    15   ar
    15    13    16    1
    16    16    17   ar
    17    17    18   ar
    18    18    19   ar
    19    19    20   ar
    20    20    21   ar
    21     8    22   am
    22    22    23    2
    23    22    24    1
    24    24    25    1
    25    24    26    1
    26    26    27    1
    27    27    28   ar
    28    28    29    1
    29    28    30   ar
    30    30    31   ar
    31    31    32   ar
    32    32    33   ar
    33    33    34    1
    34    31    35    1
    35    35    36   am
    36    35    37    2
    37     6    38   ar
    38    38    39   ar
    39    39    40    1
    40    40    41    1
    41    40    42    2
    42    39     3   ar
    43    15    11   ar
    44    21    16   ar
    45    33    27   ar
    46     1    43    1
    47     1    44    1
    48     1    45    1
    49     4    46    1
    50     5    47    1
    51     7    48    1
    52     7    49    1
    53     9    50    1
    54    10    51    1
    55    10    52    1
    56    10    53    1
    57    14    54    1
    58    15    55    1
    59    17    56    1
    60    18    57    1
    61    19    58    1
    62    20    59    1
    63    21    60    1
    64    24    61    1
    65    25    62    1
    66    25    63    1
    67    26    64    1
    68    26    65    1
    69    29    66    1
    70    29    67    1
    71    29    68    1
    72    30    69    1
    73    32    70    1
    74    34    71    1
    75    34    72    1
    76    34    73    1
    77    36    74    1
    78    36    75    1
    79    38    76    1
    80    41    77    1
