@<TRIPOS>MOLECULE
*****
 80 83 0 0 0
SMALL
GASTEIGER

@<TRIPOS>ATOM
      1 C          -6.1132   -2.6068    3.7479 C.3     1  UNL1       -0.0496
      2 C          -5.4865   -1.7053    2.7092 C.3     1  UNL1        0.0063
      3 N          -4.1269   -2.0796    2.4151 N.pl3   1  UNL1       -0.3440
      4 C          -3.3854   -1.3331    1.4771 C.ar    1  UNL1        0.0298
      5 C          -2.0915   -1.6956    1.2030 C.ar    1  UNL1       -0.0258
      6 C          -1.2810   -1.0071    0.2851 C.ar    1  UNL1        0.0754
      7 C           0.0562   -1.4887    0.0735 C.2     1  UNL1        0.2473
      8 O           0.5531   -2.3169    0.9230 O.2     1  UNL1       -0.2701
      9 N           0.8887   -1.1293   -1.0014 N.am    1  UNL1       -0.3056
     10 C           2.2540   -1.6613   -1.1258 C.3     1  UNL1        0.0545
     11 C           2.4443   -2.4360   -2.3997 C.3     1  UNL1       -0.0067
     12 C           1.5976   -3.5964   -2.5781 C.ar    1  UNL1       -0.0455
     13 C           0.3715   -3.4912   -3.1890 C.ar    1  UNL1       -0.0585
     14 C          -0.4408   -4.6218   -3.3628 C.ar    1  UNL1       -0.0615
     15 C          -0.0192   -5.8554   -2.9224 C.ar    1  UNL1       -0.0617
     16 C           1.2012   -5.9584   -2.3148 C.ar    1  UNL1       -0.0615
     17 C           1.9951   -4.8361   -2.1481 C.ar    1  UNL1       -0.0585
     18 C           3.1942   -0.4644   -1.1797 C.3     1  UNL1        0.0862
     19 O           4.5137   -0.8587   -1.2931 O.3     1  UNL1       -0.3887
     20 C           2.9550    0.4781   -0.0390 C.3     1  UNL1        0.0240
     21 N           3.2599    0.0130    1.2635 N.3     1  UNL1       -0.3094
     22 C           4.6594   -0.1321    1.5189 C.3     1  UNL1        0.0243
     23 C           5.3501    1.1864    1.3650 C.ar    1  UNL1        0.0038
     24 C           5.9522    1.7521    0.2678 C.ar    1  UNL1        0.0538
     25 N           6.4226    2.9662    0.6545 N.ar    1  UNL1       -0.1793
     26 N           6.1309    3.1577    1.9358 N.ar    1  UNL1       -0.2714
     27 C           6.4506    4.3242    2.7444 C.3     1  UNL1        0.0387
     28 C           5.3040    5.3028    2.6308 C.3     1  UNL1       -0.0455
     29 C           5.4721    2.0872    2.4094 C.ar    1  UNL1        0.0299
     30 C          -1.8517    0.0705   -0.3416 C.ar    1  UNL1        0.1580
     31 F          -1.1183    0.7931   -1.2336 F       1  UNL1       -0.2027
     32 C          -3.1720    0.4861   -0.0994 C.ar    1  UNL1        0.0885
     33 N          -3.6618    1.6126   -0.7917 N.pl3   1  UNL1       -0.2045
     34 C          -3.5320    2.9707   -0.2581 C.3     1  UNL1        0.0348
     35 C          -4.8111    3.7221   -0.2192 C.3     1  UNL1       -0.0340
     36 C          -5.6115    3.7577   -1.4578 C.3     1  UNL1       -0.0304
     37 C          -4.9499    3.2166   -2.6776 C.3     1  UNL1        0.0850
     38 S          -4.4622    1.5237   -2.3317 S.O2    1  UNL1        0.0455
     39 O          -3.5207    1.0349   -3.3945 O.2     1  UNL1       -0.1550
     40 O          -5.6869    0.6937   -2.2077 O.2     1  UNL1       -0.1550
     41 C          -3.8885   -0.2410    0.8082 C.ar    1  UNL1       -0.0154
     42 H          -5.2771   -3.0436    4.3465 H       1  UNL1        0.0245
     43 H          -6.7871   -1.9850    4.4026 H       1  UNL1        0.0245
     44 H          -6.7457   -3.3647    3.2842 H       1  UNL1        0.0245
     45 H          -6.1436   -1.7825    1.7983 H       1  UNL1        0.0458
     46 H          -5.5545   -0.6193    2.9955 H       1  UNL1        0.0458
     47 H          -3.7080   -2.8897    2.8927 H       1  UNL1        0.1461
     48 H          -1.6434   -2.5494    1.6989 H       1  UNL1        0.0644
     49 H           0.5335   -0.4807   -1.7305 H       1  UNL1        0.1494
     50 H           2.4665   -2.2230   -0.2253 H       1  UNL1        0.0527
     51 H           2.2037   -1.7166   -3.2398 H       1  UNL1        0.0332
     52 H           3.5015   -2.7076   -2.5774 H       1  UNL1        0.0332
     53 H          -0.0167   -2.5582   -3.5560 H       1  UNL1        0.0620
     54 H          -1.4046   -4.5773   -3.8360 H       1  UNL1        0.0618
     55 H          -0.6612   -6.7392   -3.0624 H       1  UNL1        0.0618
     56 H           1.5688   -6.9059   -1.9557 H       1  UNL1        0.0618
     57 H           2.9359   -4.9484   -1.6741 H       1  UNL1        0.0620
     58 H           2.9521    0.1142   -2.1208 H       1  UNL1        0.0624
     59 H           4.7723   -1.0640   -2.2370 H       1  UNL1        0.2099
     60 H           1.8735    0.8025   -0.0500 H       1  UNL1        0.0450
     61 H           3.5759    1.4031   -0.2222 H       1  UNL1        0.0450
     62 H           2.7149   -0.7954    1.6078 H       1  UNL1        0.1223
     63 H           5.0923   -0.8840    0.8599 H       1  UNL1        0.0474
     64 H           4.7906   -0.4762    2.5947 H       1  UNL1        0.0474
     65 H           6.0373    1.3172   -0.7100 H       1  UNL1        0.0851
     66 H           6.5362    4.0085    3.7947 H       1  UNL1        0.0506
     67 H           7.3725    4.8189    2.3766 H       1  UNL1        0.0506
     68 H           4.9156    5.2190    1.5799 H       1  UNL1        0.0247
     69 H           5.6962    6.3500    2.7939 H       1  UNL1        0.0247
     70 H           4.5265    5.1235    3.3752 H       1  UNL1        0.0247
     71 H           5.1042    1.9534    3.4222 H       1  UNL1        0.0829
     72 H          -3.1746    2.8521    0.7898 H       1  UNL1        0.0482
     73 H          -2.7250    3.4839   -0.8226 H       1  UNL1        0.0482
     74 H          -4.5600    4.7704    0.0707 H       1  UNL1        0.0281
     75 H          -5.4165    3.3365    0.6539 H       1  UNL1        0.0281
     76 H          -6.5704    3.2019   -1.3018 H       1  UNL1        0.0282
     77 H          -5.9474    4.8056   -1.7145 H       1  UNL1        0.0282
     78 H          -5.6817    3.2295   -3.5079 H       1  UNL1        0.0518
     79 H          -4.0635    3.8362   -2.9455 H       1  UNL1        0.0518
     80 H          -4.9045    0.0506    1.0191 H       1  UNL1        0.0656
@<TRIPOS>BOND
     1     1     2    1
     2     2     3    1
     3     3     4    1
     4     4     5   ar
     5     5     6   ar
     6     6     7    1
     7     7     8    2
     8     7     9   am
     9     9    10    1
    10    10    11    1
    11    11    12    1
    12    12    13   ar
    13    13    14   ar
    14    14    15   ar
    15    15    16   ar
    16    16    17   ar
    17    10    18    1
    18    18    19    1
    19    18    20    1
    20    20    21    1
    21    21    22    1
    22    22    23    1
    23    23    24   ar
    24    24    25   ar
    25    25    26   ar
    26    26    27    1
    27    27    28    1
    28    26    29   ar
    29     6    30   ar
    30    30    31    1
    31    30    32   ar
    32    32    33    1
    33    33    34    1
    34    34    35    1
    35    35    36    1
    36    36    37    1
    37    37    38    1
    38    38    39    2
    39    38    40    2
    40    32    41   ar
    41    41     4   ar
    42    17    12   ar
    43    29    23   ar
    44    38    33    1
    45     1    42    1
    46     1    43    1
    47     1    44    1
    48     2    45    1
    49     2    46    1
    50     3    47    1
    51     5    48    1
    52     9    49    1
    53    10    50    1
    54    11    51    1
    55    11    52    1
    56    13    53    1
    57    14    54    1
    58    15    55    1
    59    16    56    1
    60    17    57    1
    61    18    58    1
    62    19    59    1
    63    20    60    1
    64    20    61    1
    65    21    62    1
    66    22    63    1
    67    22    64    1
    68    24    65    1
    69    27    66    1
    70    27    67    1
    71    28    68    1
    72    28    69    1
    73    28    70    1
    74    29    71    1
    75    34    72    1
    76    34    73    1
    77    35    74    1
    78    35    75    1
    79    36    76    1
    80    36    77    1
    81    37    78    1
    82    37    79    1
    83    41    80    1
