@<TRIPOS>MOLECULE
*****
 37 40 0 0 0
SMALL
GASTEIGER

@<TRIPOS>ATOM
      1 C          -2.0935   -1.4434   -0.5989 C.3     1  UNL1        0.0878
      2 O          -2.8142   -2.5716   -0.1720 O.3     1  UNL1       -0.3888
      3 C          -1.0551   -1.1113    0.4920 C.3     1  UNL1        0.0019
      4 C          -0.4981    0.1489    0.2094 C.ar    1  UNL1       -0.0309
      5 C          -1.4554    1.1901    0.1237 C.ar    1  UNL1       -0.0127
      6 C          -1.1297    2.5296   -0.0507 C.ar    1  UNL1       -0.0552
      7 C           0.1800    2.9063   -0.1511 C.ar    1  UNL1       -0.0537
      8 C           1.1537    1.9423   -0.0803 C.ar    1  UNL1       -0.0170
      9 C           0.7715    0.6330    0.0903 C.ar    1  UNL1       -0.0066
     10 C           1.8200   -0.2210    0.1257 C.ar    1  UNL1       -0.0099
     11 C           3.1173    0.1309    0.0251 C.ar    1  UNL1       -0.0173
     12 C           4.2036   -0.7269    0.0065 C.ar    1  UNL1       -0.0540
     13 C           3.8840   -2.0692    0.1002 C.ar    1  UNL1       -0.0612
     14 C           2.5637   -2.5313    0.2045 C.ar    1  UNL1       -0.0611
     15 C           1.5901   -1.5512    0.2092 C.ar    1  UNL1       -0.0534
     16 C           3.4711    1.4787   -0.1400 C.ar    1  UNL1       -0.0534
     17 C           2.4455    2.3956   -0.1939 C.ar    1  UNL1       -0.0534
     18 C          -2.9099    0.8034    0.1903 C.3     1  UNL1        0.1087
     19 O          -3.6273    1.9248   -0.2618 O.3     1  UNL1       -0.3845
     20 C          -3.0738   -0.3459   -0.7767 C.3     1  UNL1        0.1112
     21 O          -4.4028   -0.7796   -0.6745 O.3     1  UNL1       -0.3863
     22 H          -1.6320   -1.7006   -1.5453 H       1  UNL1        0.0623
     23 H          -2.2396   -3.3543   -0.0816 H       1  UNL1        0.2099
     24 H          -1.8878   -0.8054    1.3046 H       1  UNL1        0.0339
     25 H          -0.7607   -1.9115    1.1216 H       1  UNL1        0.0339
     26 H          -1.9109    3.2468   -0.1046 H       1  UNL1        0.0621
     27 H           0.3724    3.9548   -0.2807 H       1  UNL1        0.0624
     28 H           5.2056   -0.3889   -0.0731 H       1  UNL1        0.0624
     29 H           4.7535   -2.7338    0.0869 H       1  UNL1        0.0618
     30 H           2.5593   -3.6092    0.2638 H       1  UNL1        0.0618
     31 H           0.7374   -2.1273    0.2208 H       1  UNL1        0.0624
     32 H           4.4946    1.8069   -0.2234 H       1  UNL1        0.0624
     33 H           2.6768    3.4441   -0.3235 H       1  UNL1        0.0624
     34 H          -3.2592    0.5477    1.1869 H       1  UNL1        0.0670
     35 H          -3.7934    2.4727    0.5466 H       1  UNL1        0.2103
     36 H          -2.9165    0.1200   -1.7966 H       1  UNL1        0.0649
     37 H          -4.5402   -1.6940   -1.0198 H       1  UNL1        0.2100
@<TRIPOS>BOND
     1     1     2    1
     2     1     3    1
     3     3     4    1
     4     4     5   ar
     5     5     6   ar
     6     6     7   ar
     7     7     8   ar
     8     8     9   ar
     9     9    10   ar
    10    10    11   ar
    11    11    12   ar
    12    12    13   ar
    13    13    14   ar
    14    14    15   ar
    15    11    16   ar
    16    16    17   ar
    17     5    18    1
    18    18    19    1
    19    18    20    1
    20    20    21    1
    21    20     1    1
    22     9     4   ar
    23    15    10   ar
    24    17     8   ar
    25     1    22    1
    26     2    23    1
    27     3    24    1
    28     3    25    1
    29     6    26    1
    30     7    27    1
    31    12    28    1
    32    13    29    1
    33    14    30    1
    34    15    31    1
    35    16    32    1
    36    17    33    1
    37    18    34    1
    38    19    35    1
    39    20    36    1
    40    21    37    1
