@<TRIPOS>MOLECULE
*****
 46 49 0 0 0
SMALL
GASTEIGER

@<TRIPOS>ATOM
      1 N           7.0905    2.6624    0.8497 N.pl3   1  UNL1       -0.3431
      2 C           6.0513    1.7103    0.5612 C.ar    1  UNL1        0.1169
      3 C           6.3885    0.4282    0.1654 C.ar    1  UNL1       -0.0201
      4 C           5.4084   -0.5251   -0.1238 C.ar    1  UNL1       -0.0330
      5 C           4.0624   -0.1765   -0.0111 C.ar    1  UNL1        0.0656
      6 N           2.8987   -0.8219   -0.2048 N.ar    1  UNL1       -0.3528
      7 C           1.8598   -0.0020    0.0516 C.ar    1  UNL1        0.0525
      8 C           2.4403    1.1903    0.4161 C.ar    1  UNL1       -0.0102
      9 C           3.8217    1.1312    0.3922 C.ar    1  UNL1        0.0911
     10 N           4.7530    2.0512    0.6713 N.ar    1  UNL1       -0.2309
     11 C           0.4911   -0.4102   -0.0662 C.ar    1  UNL1        0.0406
     12 C           0.2109   -1.7061   -0.4521 C.ar    1  UNL1       -0.0454
     13 C          -1.0748   -2.2156   -0.5992 C.ar    1  UNL1       -0.0353
     14 C          -1.3186   -3.6155   -1.0162 C.3     1  UNL1        0.0699
     15 C          -1.3988   -4.5098    0.1843 C.2     1  UNL1        0.3091
     16 O          -1.6217   -5.8561    0.0088 O.3     1  UNL1       -0.4804
     17 O          -1.2761   -4.1195    1.3641 O.2     1  UNL1       -0.2507
     18 C          -2.1171   -1.3827   -0.3464 C.ar    1  UNL1       -0.0468
     19 C          -1.8900   -0.0571    0.0485 C.ar    1  UNL1        0.0247
     20 C          -0.5929    0.3968    0.1788 C.ar    1  UNL1        0.1336
     21 O          -0.3984    1.6973    0.5660 O.3     1  UNL1       -0.5055
     22 C          -3.0786    0.7205    0.2843 C.ar    1  UNL1       -0.0080
     23 C          -4.0783    0.1071    1.0491 C.ar    1  UNL1       -0.0535
     24 C          -5.2848    0.6946    1.3765 C.ar    1  UNL1       -0.0548
     25 C          -5.5427    1.9589    0.9356 C.ar    1  UNL1        0.0156
     26 C          -4.5816    2.6002    0.1772 C.ar    1  UNL1        0.2737
     27 C          -3.3860    1.9875   -0.1336 C.ar    1  UNL1        0.0234
     28 N          -4.8034    3.9221   -0.3071 N.pl3   1  UNL1        0.0796
     29 O          -3.8172    4.5213   -1.0589 O.co2   1  UNL1       -0.5760
     30 O          -5.8784    4.4963   -0.0381 O.2     1  UNL1        0.0414
     31 H           7.2842    3.1478   -0.0734 H       1  UNL1        0.1437
     32 H           7.5690    2.8521    1.7711 H       1  UNL1        0.1437
     33 H           7.4392    0.1755    0.0834 H       1  UNL1        0.0652
     34 H           5.6842   -1.5133   -0.4289 H       1  UNL1        0.0640
     35 H           2.9402   -1.8378   -0.5174 H       1  UNL1        0.1660
     36 H           1.8956    2.0817    0.6935 H       1  UNL1        0.0660
     37 H           1.0004   -2.4378   -0.6737 H       1  UNL1        0.0628
     38 H          -2.1730   -3.7203   -1.6916 H       1  UNL1        0.0426
     39 H          -0.4243   -3.9853   -1.5788 H       1  UNL1        0.0426
     40 H          -2.1037   -6.3735    0.7355 H       1  UNL1        0.2951
     41 H          -3.1295   -1.7846   -0.4624 H       1  UNL1        0.0628
     42 H          -0.2930    2.3688   -0.2121 H       1  UNL1        0.2922
     43 H          -3.9284   -0.9147    1.4340 H       1  UNL1        0.0624
     44 H          -6.0088    0.1559    1.9727 H       1  UNL1        0.0620
     45 H          -6.4681    2.4369    1.1745 H       1  UNL1        0.0685
     46 H          -2.6213    2.4706   -0.7267 H       1  UNL1        0.0691
@<TRIPOS>UNITY_ATOM_ATTR
28 1
charge 1
29 1
charge -1
@<TRIPOS>BOND
     1     1     2    1
     2     2     3   ar
     3     3     4   ar
     4     4     5   ar
     5     5     6   ar
     6     6     7   ar
     7     7     8   ar
     8     8     9   ar
     9     9    10   ar
    10     7    11    1
    11    11    12   ar
    12    12    13   ar
    13    13    14    1
    14    14    15    1
    15    15    16    1
    16    15    17    2
    17    13    18   ar
    18    18    19   ar
    19    19    20   ar
    20    20    21    1
    21    19    22    1
    22    22    23   ar
    23    23    24   ar
    24    24    25   ar
    25    25    26   ar
    26    26    27   ar
    27    26    28    1
    28    28    29    1
    29    28    30    2
    30    10     2   ar
    31    20    11   ar
    32    27    22   ar
    33     9     5   ar
    34     1    31    1
    35     1    32    1
    36     3    33    1
    37     4    34    1
    38     6    35    1
    39     8    36    1
    40    12    37    1
    41    14    38    1
    42    14    39    1
    43    16    40    1
    44    18    41    1
    45    21    42    1
    46    23    43    1
    47    24    44    1
    48    25    45    1
    49    27    46    1
