
     RDKit          3D

 46 49  0  0  0  0  0  0  0  0999 V2000
    7.0905    2.6624    0.8497 N   0  0  0  0  0  0  0  0  0  0  0  0
    6.0513    1.7103    0.5612 C   0  0  0  0  0  0  0  0  0  0  0  0
    6.3885    0.4282    0.1654 C   0  0  0  0  0  0  0  0  0  0  0  0
    5.4084   -0.5251   -0.1238 C   0  0  0  0  0  0  0  0  0  0  0  0
    4.0624   -0.1765   -0.0111 C   0  0  0  0  0  0  0  0  0  0  0  0
    2.8987   -0.8219   -0.2048 N   0  0  0  0  0  0  0  0  0  0  0  0
    1.8598   -0.0020    0.0516 C   0  0  0  0  0  0  0  0  0  0  0  0
    2.4403    1.1903    0.4161 C   0  0  0  0  0  0  0  0  0  0  0  0
    3.8217    1.1312    0.3922 C   0  0  0  0  0  0  0  0  0  0  0  0
    4.7530    2.0512    0.6713 N   0  0  0  0  0  0  0  0  0  0  0  0
    0.4911   -0.4102   -0.0662 C   0  0  0  0  0  0  0  0  0  0  0  0
    0.2109   -1.7061   -0.4521 C   0  0  0  0  0  0  0  0  0  0  0  0
   -1.0748   -2.2156   -0.5992 C   0  0  0  0  0  0  0  0  0  0  0  0
   -1.3186   -3.6155   -1.0162 C   0  0  0  0  0  0  0  0  0  0  0  0
   -1.3988   -4.5098    0.1843 C   0  0  0  0  0  0  0  0  0  0  0  0
   -1.6217   -5.8561    0.0088 O   0  0  0  0  0  0  0  0  0  0  0  0
   -1.2761   -4.1195    1.3641 O   0  0  0  0  0  0  0  0  0  0  0  0
   -2.1171   -1.3827   -0.3464 C   0  0  0  0  0  0  0  0  0  0  0  0
   -1.8900   -0.0571    0.0485 C   0  0  0  0  0  0  0  0  0  0  0  0
   -0.5929    0.3968    0.1788 C   0  0  0  0  0  0  0  0  0  0  0  0
   -0.3984    1.6973    0.5660 O   0  0  0  0  0  0  0  0  0  0  0  0
   -3.0786    0.7205    0.2843 C   0  0  0  0  0  0  0  0  0  0  0  0
   -4.0783    0.1071    1.0491 C   0  0  0  0  0  0  0  0  0  0  0  0
   -5.2848    0.6946    1.3765 C   0  0  0  0  0  0  0  0  0  0  0  0
   -5.5427    1.9589    0.9356 C   0  0  0  0  0  0  0  0  0  0  0  0
   -4.5816    2.6002    0.1772 C   0  0  0  0  0  0  0  0  0  0  0  0
   -3.3860    1.9875   -0.1336 C   0  0  0  0  0  0  0  0  0  0  0  0
   -4.8034    3.9221   -0.3071 N   0  0  0  0  0  4  0  0  0  0  0  0
   -3.8172    4.5213   -1.0589 O   0  0  0  0  0  1  0  0  0  0  0  0
   -5.8784    4.4963   -0.0381 O   0  0  0  0  0  0  0  0  0  0  0  0
    7.2842    3.1478   -0.0734 H   0  0  0  0  0  0  0  0  0  0  0  0
    7.5690    2.8521    1.7711 H   0  0  0  0  0  0  0  0  0  0  0  0
    7.4392    0.1755    0.0834 H   0  0  0  0  0  0  0  0  0  0  0  0
    5.6842   -1.5133   -0.4289 H   0  0  0  0  0  0  0  0  0  0  0  0
    2.9402   -1.8378   -0.5174 H   0  0  0  0  0  0  0  0  0  0  0  0
    1.8956    2.0817    0.6935 H   0  0  0  0  0  0  0  0  0  0  0  0
    1.0004   -2.4378   -0.6737 H   0  0  0  0  0  0  0  0  0  0  0  0
   -2.1730   -3.7203   -1.6916 H   0  0  0  0  0  0  0  0  0  0  0  0
   -0.4243   -3.9853   -1.5788 H   0  0  0  0  0  0  0  0  0  0  0  0
   -2.1037   -6.3735    0.7355 H   0  0  0  0  0  0  0  0  0  0  0  0
   -3.1295   -1.7846   -0.4624 H   0  0  0  0  0  0  0  0  0  0  0  0
   -0.2930    2.3688   -0.2121 H   0  0  0  0  0  0  0  0  0  0  0  0
   -3.9284   -0.9147    1.4340 H   0  0  0  0  0  0  0  0  0  0  0  0
   -6.0088    0.1559    1.9727 H   0  0  0  0  0  0  0  0  0  0  0  0
   -6.4681    2.4369    1.1745 H   0  0  0  0  0  0  0  0  0  0  0  0
   -2.6213    2.4706   -0.7267 H   0  0  0  0  0  0  0  0  0  0  0  0
  1  2  1  0
  2  3  2  0
  3  4  1  0
  4  5  2  0
  5  6  1  0
  6  7  1  0
  7  8  2  0
  8  9  1  0
  9 10  2  0
  7 11  1  0
 11 12  2  0
 12 13  1  0
 13 14  1  0
 14 15  1  0
 15 16  1  0
 15 17  2  0
 13 18  2  0
 18 19  1  0
 19 20  2  0
 20 21  1  0
 19 22  1  0
 22 23  2  0
 23 24  1  0
 24 25  2  0
 25 26  1  0
 26 27  2  0
 26 28  1  0
 28 29  1  0
 28 30  2  0
 10  2  1  0
 20 11  1  0
 27 22  1  0
  9  5  1  0
  1 31  1  0
  1 32  1  0
  3 33  1  0
  4 34  1  0
  6 35  1  0
  8 36  1  0
 12 37  1  0
 14 38  1  0
 14 39  1  0
 16 40  1  0
 18 41  1  0
 21 42  1  0
 23 43  1  0
 24 44  1  0
 25 45  1  0
 27 46  1  0
M  CHG  2  28   1  29  -1
M  END
$$$$
