@<TRIPOS>MOLECULE
*****
 48 51 0 0 0
SMALL
GASTEIGER

@<TRIPOS>ATOM
      1 N          -3.3824   -0.7822   -3.9902 N.am    1  UNL1       -0.3241
      2 C          -2.0699   -0.4212   -4.3678 C.2     1  UNL1        0.2599
      3 O          -1.7991   -0.4340   -5.6017 O.2     1  UNL1       -0.2687
      4 C          -1.0815   -0.0532   -3.3789 C.ar    1  UNL1        0.1281
      5 C           0.1904    0.2878   -3.8555 C.ar    1  UNL1        0.0588
      6 N           1.1088    0.6276   -2.9618 N.ar    1  UNL1       -0.2346
      7 C           0.8972    0.6646   -1.6410 C.ar    1  UNL1        0.1623
      8 N           1.9480    1.0565   -0.7847 N.pl3   1  UNL1       -0.3233
      9 C           1.8844    1.1060    0.6573 C.3     1  UNL1        0.0222
     10 C           1.7512   -0.3129    1.1799 C.3     1  UNL1       -0.0331
     11 C           3.1225   -0.7281    1.7355 C.3     1  UNL1       -0.0361
     12 C           4.1377   -0.3779    0.6512 C.3     1  UNL1        0.0050
     13 N           5.3857   -1.0004    1.0097 N.3     1  UNL1       -0.3272
     14 C           4.3629    1.1301    0.7002 C.3     1  UNL1       -0.0361
     15 C           3.1068    1.8144    1.1760 C.3     1  UNL1       -0.0331
     16 C          -0.3483    0.3311   -1.1709 C.ar    1  UNL1        0.1792
     17 N          -0.8866    0.2704    0.0584 N.ar    1  UNL1       -0.2245
     18 C          -2.1721   -0.1103    0.0172 C.ar    1  UNL1        0.0899
     19 C          -3.0965   -0.2940    1.1262 C.ar    1  UNL1        0.0019
     20 C          -2.6610   -0.0649    2.4078 C.ar    1  UNL1       -0.0511
     21 C          -3.5706   -0.2491    3.4551 C.ar    1  UNL1       -0.0428
     22 C          -4.8709   -0.6498    3.2143 C.ar    1  UNL1        0.0410
     23 CL         -6.0101   -0.8794    4.5401 Cl      1  UNL1       -0.0835
     24 C          -5.3065   -0.8801    1.9179 C.ar    1  UNL1       -0.0428
     25 C          -4.3942   -0.6919    0.9106 C.ar    1  UNL1       -0.0511
     26 C          -2.4315   -0.2938   -1.3411 C.ar    1  UNL1        0.0380
     27 N          -1.3268   -0.0262   -2.0615 N.ar    1  UNL1       -0.2907
     28 H          -4.1455   -0.0467   -3.9061 H       1  UNL1        0.1453
     29 H          -3.6728   -1.7665   -3.7774 H       1  UNL1        0.1453
     30 H           0.3925    0.2688   -4.9002 H       1  UNL1        0.0853
     31 H           2.8607    1.3379   -1.2333 H       1  UNL1        0.1478
     32 H           0.9618    1.6765    0.9856 H       1  UNL1        0.0498
     33 H           0.9942   -0.4114    1.9737 H       1  UNL1        0.0284
     34 H           1.5476   -1.0160    0.3398 H       1  UNL1        0.0284
     35 H           3.1414   -1.8155    1.9325 H       1  UNL1        0.0281
     36 H           3.3436   -0.1432    2.6541 H       1  UNL1        0.0281
     37 H           3.7362   -0.7019   -0.3211 H       1  UNL1        0.0458
     38 H           5.5331   -1.9341    0.6133 H       1  UNL1        0.1185
     39 H           6.1802   -0.3608    0.8450 H       1  UNL1        0.1185
     40 H           5.1634    1.3656    1.4505 H       1  UNL1        0.0281
     41 H           4.6369    1.5411   -0.2878 H       1  UNL1        0.0281
     42 H           3.1098    2.8386    0.7388 H       1  UNL1        0.0284
     43 H           3.0932    1.8911    2.2920 H       1  UNL1        0.0284
     44 H          -1.6672    0.2471    2.6648 H       1  UNL1        0.0625
     45 H          -3.2796   -0.0826    4.4814 H       1  UNL1        0.0632
     46 H          -6.2972   -1.1908    1.6665 H       1  UNL1        0.0632
     47 H          -4.7253   -0.8703   -0.1171 H       1  UNL1        0.0625
     48 H          -3.3948   -0.6048   -1.6973 H       1  UNL1        0.0835
@<TRIPOS>BOND
     1     1     2   am
     2     2     3    2
     3     2     4    1
     4     4     5   ar
     5     5     6   ar
     6     6     7   ar
     7     7     8    1
     8     8     9    1
     9     9    10    1
    10    10    11    1
    11    11    12    1
    12    12    13    1
    13    12    14    1
    14    14    15    1
    15     7    16   ar
    16    16    17   ar
    17    17    18   ar
    18    18    19    1
    19    19    20   ar
    20    20    21   ar
    21    21    22   ar
    22    22    23    1
    23    22    24   ar
    24    24    25   ar
    25    18    26   ar
    26    26    27   ar
    27    27     4   ar
    28    15     9    1
    29    27    16   ar
    30    25    19   ar
    31     1    28    1
    32     1    29    1
    33     5    30    1
    34     8    31    1
    35     9    32    1
    36    10    33    1
    37    10    34    1
    38    11    35    1
    39    11    36    1
    40    12    37    1
    41    13    38    1
    42    13    39    1
    43    14    40    1
    44    14    41    1
    45    15    42    1
    46    15    43    1
    47    20    44    1
    48    21    45    1
    49    24    46    1
    50    25    47    1
    51    26    48    1
