@<TRIPOS>MOLECULE
*****
 70 74 0 0 0
SMALL
GASTEIGER

@<TRIPOS>ATOM
      1 C         -10.1366   -0.2905   -2.7408 C.3     1  UNL1        0.0805
      2 O          -8.9646    0.3804   -2.3912 O.3     1  UNL1       -0.4774
      3 C          -8.3145    0.2354   -1.1725 C.ar    1  UNL1        0.2552
      4 N          -8.7205   -0.5644   -0.1707 N.ar    1  UNL1       -0.1317
      5 N          -7.8703   -0.4593    0.8400 N.ar    1  UNL1       -0.2692
      6 C          -8.0008   -1.1865    2.0809 C.3     1  UNL1        0.0304
      7 C          -6.8943    0.4265    0.4859 C.ar    1  UNL1        0.0503
      8 C          -7.1520    0.8821   -0.7866 C.ar    1  UNL1        0.1152
      9 N          -6.4031    1.7973   -1.5546 N.pl3   1  UNL1       -0.2782
     10 C          -5.2300    2.4702   -1.1261 C.ar    1  UNL1        0.2203
     11 N          -5.3192    3.7426   -0.6533 N.ar    1  UNL1       -0.2198
     12 C          -4.2459    4.4401   -0.2404 C.ar    1  UNL1        0.0685
     13 C          -2.9897    3.8757   -0.2831 C.ar    1  UNL1        0.1674
     14 F          -1.8708    4.5372    0.1231 F       1  UNL1       -0.2016
     15 C          -2.8821    2.5676   -0.7658 C.ar    1  UNL1        0.1132
     16 C          -1.5610    1.9631   -0.7898 C.ar    1  UNL1        0.0284
     17 C          -0.4185    2.3600   -1.4502 C.ar    1  UNL1        0.0121
     18 N           0.5815    1.4946   -1.2078 N.ar    1  UNL1       -0.3586
     19 C           0.1097    0.5408   -0.4002 C.ar    1  UNL1        0.0686
     20 C           0.7528   -0.5669    0.1421 C.ar    1  UNL1        0.0576
     21 N           2.1004   -0.8427   -0.1615 N.am    1  UNL1       -0.2825
     22 C           2.9468   -1.8323    0.3276 C.2     1  UNL1        0.2342
     23 O           2.4799   -2.6386    1.1849 O.2     1  UNL1       -0.2738
     24 C           4.3661   -2.0603   -0.0515 C.3     1  UNL1        0.0848
     25 C           4.3612   -3.2789   -0.9686 C.3     1  UNL1       -0.0409
     26 N           5.0094   -0.9919   -0.7304 N.3     1  UNL1       -0.2890
     27 C           6.2768   -1.5090   -1.2330 C.3     1  UNL1        0.0124
     28 C           7.4582   -1.1042   -0.3791 C.3     1  UNL1        0.0117
     29 N           7.0218   -1.1359    0.9912 N.3     1  UNL1       -0.3002
     30 C           8.0628   -1.3058    1.9538 C.3     1  UNL1       -0.0124
     31 C           6.1714   -0.0167    1.2336 C.3     1  UNL1        0.0201
     32 C           7.0408    1.2331    1.4476 C.3     1  UNL1       -0.0483
     33 C           5.2259    0.1896    0.0785 C.3     1  UNL1        0.0150
     34 C          -0.0031   -1.3640    0.9548 C.ar    1  UNL1       -0.0384
     35 C          -1.3593   -1.0991    1.2412 C.ar    1  UNL1       -0.0593
     36 C          -1.9745   -0.0013    0.6951 C.ar    1  UNL1       -0.0518
     37 C          -1.1965    0.7925   -0.1222 C.ar    1  UNL1        0.0107
     38 N          -4.0010    1.9320   -1.1618 N.ar    1  UNL1       -0.2113
     39 H         -10.8231   -0.4717   -1.8760 H       1  UNL1        0.0660
     40 H         -10.7107    0.2731   -3.5299 H       1  UNL1        0.0660
     41 H          -9.9160   -1.2886   -3.1829 H       1  UNL1        0.0660
     42 H          -7.3279   -2.0760    2.0910 H       1  UNL1        0.0473
     43 H          -7.6896   -0.5649    2.9590 H       1  UNL1        0.0473
     44 H          -9.0567   -1.4785    2.2322 H       1  UNL1        0.0473
     45 H          -6.0720    0.6971    1.1317 H       1  UNL1        0.0846
     46 H          -6.7561    1.9955   -2.5395 H       1  UNL1        0.1552
     47 H          -4.3376    5.4655    0.1374 H       1  UNL1        0.0861
     48 H          -0.3880    3.2531   -2.0658 H       1  UNL1        0.0814
     49 H           1.5689    1.5277   -1.5695 H       1  UNL1        0.1654
     50 H           2.5327   -0.1982   -0.9004 H       1  UNL1        0.1549
     51 H           4.9877   -2.3482    0.8217 H       1  UNL1        0.0556
     52 H           4.4854   -3.0190   -2.0367 H       1  UNL1        0.0249
     53 H           5.0583   -4.0739   -0.6138 H       1  UNL1        0.0249
     54 H           3.3507   -3.7886   -0.9344 H       1  UNL1        0.0249
     55 H           6.2896   -2.6137   -1.2536 H       1  UNL1        0.0439
     56 H           6.4395   -1.1598   -2.2706 H       1  UNL1        0.0439
     57 H           7.7981   -0.1147   -0.7329 H       1  UNL1        0.0439
     58 H           8.3012   -1.8136   -0.4800 H       1  UNL1        0.0439
     59 H           8.6584   -0.3904    2.1583 H       1  UNL1        0.0391
     60 H           7.5950   -1.5855    2.9420 H       1  UNL1        0.0391
     61 H           8.7334   -2.1485    1.6532 H       1  UNL1        0.0391
     62 H           5.5894   -0.1458    2.1536 H       1  UNL1        0.0472
     63 H           7.1976    1.4305    2.5278 H       1  UNL1        0.0245
     64 H           6.5333    2.0938    0.9560 H       1  UNL1        0.0245
     65 H           8.0239    1.1420    0.9768 H       1  UNL1        0.0245
     66 H           5.7424    0.9300   -0.6026 H       1  UNL1        0.0442
     67 H           4.2762    0.6200    0.3625 H       1  UNL1        0.0442
     68 H           0.4086   -2.2527    1.4214 H       1  UNL1        0.0637
     69 H          -1.9338   -1.7480    1.8889 H       1  UNL1        0.0618
     70 H          -3.0165    0.2390    0.8885 H       1  UNL1        0.0624
@<TRIPOS>BOND
     1     1     2    1
     2     2     3    1
     3     3     4   ar
     4     4     5   ar
     5     5     6    1
     6     5     7   ar
     7     7     8   ar
     8     8     9    1
     9     9    10    1
    10    10    11   ar
    11    11    12   ar
    12    12    13   ar
    13    13    14    1
    14    13    15   ar
    15    15    16    1
    16    16    17   ar
    17    17    18   ar
    18    18    19   ar
    19    19    20   ar
    20    20    21    1
    21    21    22   am
    22    22    23    2
    23    22    24    1
    24    24    25    1
    25    24    26    1
    26    26    27    1
    27    27    28    1
    28    28    29    1
    29    29    30    1
    30    29    31    1
    31    31    32    1
    32    31    33    1
    33    20    34   ar
    34    34    35   ar
    35    35    36   ar
    36    36    37   ar
    37    15    38   ar
    38     8     3   ar
    39    38    10   ar
    40    37    16   ar
    41    37    19   ar
    42    33    26    1
    43     1    39    1
    44     1    40    1
    45     1    41    1
    46     6    42    1
    47     6    43    1
    48     6    44    1
    49     7    45    1
    50     9    46    1
    51    12    47    1
    52    17    48    1
    53    18    49    1
    54    21    50    1
    55    24    51    1
    56    25    52    1
    57    25    53    1
    58    25    54    1
    59    27    55    1
    60    27    56    1
    61    28    57    1
    62    28    58    1
    63    30    59    1
    64    30    60    1
    65    30    61    1
    66    31    62    1
    67    32    63    1
    68    32    64    1
    69    32    65    1
    70    33    66    1
    71    33    67    1
    72    34    68    1
    73    35    69    1
    74    36    70    1
