
     RDKit          3D

 70 74  0  0  0  0  0  0  0  0999 V2000
  -10.1366   -0.2905   -2.7408 C   0  0  0  0  0  0  0  0  0  0  0  0
   -8.9646    0.3804   -2.3912 O   0  0  0  0  0  0  0  0  0  0  0  0
   -8.3145    0.2354   -1.1725 C   0  0  0  0  0  0  0  0  0  0  0  0
   -8.7205   -0.5644   -0.1707 N   0  0  0  0  0  0  0  0  0  0  0  0
   -7.8703   -0.4593    0.8400 N   0  0  0  0  0  0  0  0  0  0  0  0
   -8.0008   -1.1865    2.0809 C   0  0  0  0  0  0  0  0  0  0  0  0
   -6.8943    0.4265    0.4859 C   0  0  0  0  0  0  0  0  0  0  0  0
   -7.1520    0.8821   -0.7866 C   0  0  0  0  0  0  0  0  0  0  0  0
   -6.4031    1.7973   -1.5546 N   0  0  0  0  0  0  0  0  0  0  0  0
   -5.2300    2.4702   -1.1261 C   0  0  0  0  0  0  0  0  0  0  0  0
   -5.3192    3.7426   -0.6533 N   0  0  0  0  0  0  0  0  0  0  0  0
   -4.2459    4.4401   -0.2404 C   0  0  0  0  0  0  0  0  0  0  0  0
   -2.9897    3.8757   -0.2831 C   0  0  0  0  0  0  0  0  0  0  0  0
   -1.8708    4.5372    0.1231 F   0  0  0  0  0  0  0  0  0  0  0  0
   -2.8821    2.5676   -0.7658 C   0  0  0  0  0  0  0  0  0  0  0  0
   -1.5610    1.9631   -0.7898 C   0  0  0  0  0  0  0  0  0  0  0  0
   -0.4185    2.3600   -1.4502 C   0  0  0  0  0  0  0  0  0  0  0  0
    0.5815    1.4946   -1.2078 N   0  0  0  0  0  0  0  0  0  0  0  0
    0.1097    0.5408   -0.4002 C   0  0  0  0  0  0  0  0  0  0  0  0
    0.7528   -0.5669    0.1421 C   0  0  0  0  0  0  0  0  0  0  0  0
    2.1004   -0.8427   -0.1615 N   0  0  0  0  0  0  0  0  0  0  0  0
    2.9468   -1.8323    0.3276 C   0  0  0  0  0  0  0  0  0  0  0  0
    2.4799   -2.6386    1.1849 O   0  0  0  0  0  0  0  0  0  0  0  0
    4.3661   -2.0603   -0.0515 C   0  0  1  0  0  0  0  0  0  0  0  0
    4.3612   -3.2789   -0.9686 C   0  0  0  0  0  0  0  0  0  0  0  0
    5.0094   -0.9919   -0.7304 N   0  0  0  0  0  0  0  0  0  0  0  0
    6.2768   -1.5090   -1.2330 C   0  0  0  0  0  0  0  0  0  0  0  0
    7.4582   -1.1042   -0.3791 C   0  0  0  0  0  0  0  0  0  0  0  0
    7.0218   -1.1359    0.9912 N   0  0  0  0  0  0  0  0  0  0  0  0
    8.0628   -1.3058    1.9538 C   0  0  0  0  0  0  0  0  0  0  0  0
    6.1714   -0.0167    1.2336 C   0  0  1  0  0  0  0  0  0  0  0  0
    7.0408    1.2331    1.4476 C   0  0  0  0  0  0  0  0  0  0  0  0
    5.2259    0.1896    0.0785 C   0  0  0  0  0  0  0  0  0  0  0  0
   -0.0031   -1.3640    0.9548 C   0  0  0  0  0  0  0  0  0  0  0  0
   -1.3593   -1.0991    1.2412 C   0  0  0  0  0  0  0  0  0  0  0  0
   -1.9745   -0.0013    0.6951 C   0  0  0  0  0  0  0  0  0  0  0  0
   -1.1965    0.7925   -0.1222 C   0  0  0  0  0  0  0  0  0  0  0  0
   -4.0010    1.9320   -1.1618 N   0  0  0  0  0  0  0  0  0  0  0  0
  -10.8231   -0.4717   -1.8760 H   0  0  0  0  0  0  0  0  0  0  0  0
  -10.7107    0.2731   -3.5299 H   0  0  0  0  0  0  0  0  0  0  0  0
   -9.9160   -1.2886   -3.1829 H   0  0  0  0  0  0  0  0  0  0  0  0
   -7.3279   -2.0760    2.0910 H   0  0  0  0  0  0  0  0  0  0  0  0
   -7.6896   -0.5649    2.9590 H   0  0  0  0  0  0  0  0  0  0  0  0
   -9.0567   -1.4785    2.2322 H   0  0  0  0  0  0  0  0  0  0  0  0
   -6.0720    0.6971    1.1317 H   0  0  0  0  0  0  0  0  0  0  0  0
   -6.7561    1.9955   -2.5395 H   0  0  0  0  0  0  0  0  0  0  0  0
   -4.3376    5.4655    0.1374 H   0  0  0  0  0  0  0  0  0  0  0  0
   -0.3880    3.2531   -2.0658 H   0  0  0  0  0  0  0  0  0  0  0  0
    1.5689    1.5277   -1.5695 H   0  0  0  0  0  0  0  0  0  0  0  0
    2.5327   -0.1982   -0.9004 H   0  0  0  0  0  0  0  0  0  0  0  0
    4.9877   -2.3482    0.8217 H   0  0  0  0  0  0  0  0  0  0  0  0
    4.4854   -3.0190   -2.0367 H   0  0  0  0  0  0  0  0  0  0  0  0
    5.0583   -4.0739   -0.6138 H   0  0  0  0  0  0  0  0  0  0  0  0
    3.3507   -3.7886   -0.9344 H   0  0  0  0  0  0  0  0  0  0  0  0
    6.2896   -2.6137   -1.2536 H   0  0  0  0  0  0  0  0  0  0  0  0
    6.4395   -1.1598   -2.2706 H   0  0  0  0  0  0  0  0  0  0  0  0
    7.7981   -0.1147   -0.7329 H   0  0  0  0  0  0  0  0  0  0  0  0
    8.3012   -1.8136   -0.4800 H   0  0  0  0  0  0  0  0  0  0  0  0
    8.6584   -0.3904    2.1583 H   0  0  0  0  0  0  0  0  0  0  0  0
    7.5950   -1.5855    2.9420 H   0  0  0  0  0  0  0  0  0  0  0  0
    8.7334   -2.1485    1.6532 H   0  0  0  0  0  0  0  0  0  0  0  0
    5.5894   -0.1458    2.1536 H   0  0  0  0  0  0  0  0  0  0  0  0
    7.1976    1.4305    2.5278 H   0  0  0  0  0  0  0  0  0  0  0  0
    6.5333    2.0938    0.9560 H   0  0  0  0  0  0  0  0  0  0  0  0
    8.0239    1.1420    0.9768 H   0  0  0  0  0  0  0  0  0  0  0  0
    5.7424    0.9300   -0.6026 H   0  0  0  0  0  0  0  0  0  0  0  0
    4.2762    0.6200    0.3625 H   0  0  0  0  0  0  0  0  0  0  0  0
    0.4086   -2.2527    1.4214 H   0  0  0  0  0  0  0  0  0  0  0  0
   -1.9338   -1.7480    1.8889 H   0  0  0  0  0  0  0  0  0  0  0  0
   -3.0165    0.2390    0.8885 H   0  0  0  0  0  0  0  0  0  0  0  0
  1  2  1  0
  2  3  1  0
  3  4  2  0
  4  5  1  0
  5  6  1  0
  5  7  1  0
  7  8  2  0
  8  9  1  0
  9 10  1  0
 10 11  2  0
 11 12  1  0
 12 13  2  0
 13 14  1  0
 13 15  1  0
 15 16  1  0
 16 17  2  0
 17 18  1  0
 18 19  1  0
 19 20  2  0
 20 21  1  0
 21 22  1  0
 22 23  2  0
 22 24  1  0
 24 25  1  0
 24 26  1  0
 26 27  1  0
 27 28  1  0
 28 29  1  0
 29 30  1  0
 29 31  1  0
 31 32  1  0
 31 33  1  0
 20 34  1  0
 34 35  2  0
 35 36  1  0
 36 37  2  0
 15 38  2  0
  8  3  1  0
 38 10  1  0
 37 16  1  0
 37 19  1  0
 33 26  1  0
  1 39  1  0
  1 40  1  0
  1 41  1  0
  6 42  1  0
  6 43  1  0
  6 44  1  0
  7 45  1  0
  9 46  1  0
 12 47  1  0
 17 48  1  0
 18 49  1  0
 21 50  1  0
 24 51  1  1
 25 52  1  0
 25 53  1  0
 25 54  1  0
 27 55  1  0
 27 56  1  0
 28 57  1  0
 28 58  1  0
 30 59  1  0
 30 60  1  0
 30 61  1  0
 31 62  1  1
 32 63  1  0
 32 64  1  0
 32 65  1  0
 33 66  1  0
 33 67  1  0
 34 68  1  0
 35 69  1  0
 36 70  1  0
M  END
$$$$
