@<TRIPOS>MOLECULE
*****
 46 49 0 0 0
SMALL
GASTEIGER

@<TRIPOS>ATOM
      1 O           2.4268   -1.4213   -0.3073 O.2     1  UNL1       -0.2727
      2 C           1.8454   -0.2785   -0.3892 C.2     1  UNL1        0.2455
      3 C           2.6357    0.7389   -1.1263 C.3     1  UNL1        0.1339
      4 O           2.0084    1.9760   -1.1916 O.3     1  UNL1       -0.3823
      5 C           3.9961    0.8957   -0.4584 C.3     1  UNL1       -0.0064
      6 C           4.0060    1.3291    0.9576 C.3     1  UNL1       -0.0471
      7 C           4.5466    2.2239   -0.1662 C.3     1  UNL1       -0.0471
      8 N           0.5739   -0.0697    0.1879 N.am    1  UNL1       -0.2845
      9 C          -0.1985    1.1364    0.1743 C.3     1  UNL1        0.0411
     10 C          -1.6064    0.7424    0.5519 C.2     1  UNL1       -0.0220
     11 C          -2.7584    1.6744    0.4347 C.ar    1  UNL1        0.0173
     12 C          -2.5499    2.9634   -0.0383 C.ar    1  UNL1       -0.0163
     13 C          -3.5299    3.8944   -0.1849 C.ar    1  UNL1        0.1241
     14 F          -3.2178    5.1189   -0.6539 F       1  UNL1       -0.2055
     15 C          -4.8167    3.5336    0.1596 C.ar    1  UNL1       -0.0237
     16 C          -5.0532    2.2620    0.6316 C.ar    1  UNL1       -0.0231
     17 C          -4.0307    1.3120    0.7772 C.ar    1  UNL1        0.1310
     18 F          -4.3268    0.0880    1.2433 F       1  UNL1       -0.2049
     19 C          -1.5638   -0.4946    0.9640 C.2     1  UNL1       -0.0540
     20 C          -0.1936   -1.0192    0.9046 C.3     1  UNL1        0.0708
     21 C          -0.1129   -2.3975    0.4008 C.ar    1  UNL1       -0.0197
     22 C           0.0475   -3.4226    1.3078 C.ar    1  UNL1       -0.0563
     23 C           0.1346   -4.7524    0.9388 C.ar    1  UNL1       -0.0580
     24 C           0.0544   -5.0476   -0.4156 C.ar    1  UNL1       -0.0202
     25 C          -0.1068   -4.0457   -1.3584 C.ar    1  UNL1        0.1172
     26 O          -0.1822   -4.3865   -2.7019 O.3     1  UNL1       -0.5068
     27 C          -0.1872   -2.7351   -0.9244 C.ar    1  UNL1       -0.0149
     28 H           2.8133    0.4088   -2.1928 H       1  UNL1        0.0693
     29 H           2.0466    2.4635   -0.3317 H       1  UNL1        0.2104
     30 H           4.6777    0.0316   -0.7026 H       1  UNL1        0.0330
     31 H           4.8107    0.9374    1.6273 H       1  UNL1        0.0269
     32 H           3.0637    1.6913    1.4521 H       1  UNL1        0.0269
     33 H           3.9757    3.1010   -0.4735 H       1  UNL1        0.0269
     34 H           5.6528    2.3213   -0.2589 H       1  UNL1        0.0269
     35 H           0.1049    1.8759    0.9443 H       1  UNL1        0.0514
     36 H          -0.2466    1.6336   -0.8213 H       1  UNL1        0.0514
     37 H          -1.5265    3.2632   -0.3166 H       1  UNL1        0.0653
     38 H          -5.6225    4.2664    0.0502 H       1  UNL1        0.0647
     39 H          -6.0662    1.9972    0.8962 H       1  UNL1        0.0647
     40 H          -2.4629   -1.0521    1.3085 H       1  UNL1        0.0597
     41 H           0.1841   -0.9962    1.9703 H       1  UNL1        0.0595
     42 H           0.1108   -3.1853    2.3812 H       1  UNL1        0.0621
     43 H           0.2606   -5.5550    1.6539 H       1  UNL1        0.0619
     44 H           0.1209   -6.0911   -0.7285 H       1  UNL1        0.0654
     45 H           0.5747   -4.9920   -3.0516 H       1  UNL1        0.2921
     46 H          -0.3124   -1.9376   -1.6353 H       1  UNL1        0.0657
@<TRIPOS>BOND
     1     1     2    2
     2     2     3    1
     3     3     4    1
     4     3     5    1
     5     5     6    1
     6     6     7    1
     7     2     8   am
     8     8     9    1
     9     9    10    1
    10    10    11    1
    11    11    12   ar
    12    12    13   ar
    13    13    14    1
    14    13    15   ar
    15    15    16   ar
    16    16    17   ar
    17    17    18    1
    18    10    19    2
    19    19    20    1
    20    20    21    1
    21    21    22   ar
    22    22    23   ar
    23    23    24   ar
    24    24    25   ar
    25    25    26    1
    26    25    27   ar
    27     7     5    1
    28    20     8    1
    29    27    21   ar
    30    17    11   ar
    31     3    28    1
    32     4    29    1
    33     5    30    1
    34     6    31    1
    35     6    32    1
    36     7    33    1
    37     7    34    1
    38     9    35    1
    39     9    36    1
    40    12    37    1
    41    15    38    1
    42    16    39    1
    43    19    40    1
    44    20    41    1
    45    22    42    1
    46    23    43    1
    47    24    44    1
    48    26    45    1
    49    27    46    1
