@<TRIPOS>MOLECULE
*****
 58 61 0 0 0
SMALL
GASTEIGER

@<TRIPOS>ATOM
      1 C          -7.8917    0.4120    2.0323 C.3     1  UNL1        0.0029
      2 N          -6.4897    0.0427    1.7960 N.am    1  UNL1       -0.3064
      3 C          -6.0680   -1.2979    2.1084 C.3     1  UNL1        0.0029
      4 C          -5.5803    0.9786    1.2722 C.2     1  UNL1        0.2319
      5 O          -5.9945    2.1506    1.0005 O.2     1  UNL1       -0.2741
      6 C          -4.1402    0.6225    1.0295 C.3     1  UNL1        0.1054
      7 C          -3.2614    1.6888    0.4427 C.3     1  UNL1       -0.0220
      8 C          -3.6619    0.4794   -0.3200 C.3     1  UNL1        0.0134
      9 C          -2.7069   -0.5719   -0.7137 C.3     1  UNL1        0.0935
     10 C          -3.3904   -1.5257   -1.7233 C.3     1  UNL1       -0.0351
     11 C          -1.5629    0.0027   -1.5285 C.ar    1  UNL1        0.0158
     12 C          -0.2738   -0.3323   -1.1968 C.ar    1  UNL1       -0.0463
     13 C           0.8363    0.1601   -1.8829 C.ar    1  UNL1       -0.0217
     14 C           2.1613   -0.2497   -1.4504 C.2     1  UNL1       -0.0171
     15 C           3.2134    0.5532   -1.3830 C.2     1  UNL1        0.1507
     16 F           3.0189    1.8366   -1.7471 F       1  UNL1       -0.2032
     17 C           4.5158    0.1059   -0.9306 C.ar    1  UNL1        0.1172
     18 C           5.5373    1.0370   -0.8641 C.ar    1  UNL1        0.0596
     19 N           6.7592    0.7378   -0.4566 N.ar    1  UNL1       -0.2178
     20 C           7.0582   -0.5167   -0.0818 C.ar    1  UNL1        0.2336
     21 O           8.2966   -0.9215    0.3500 O.3     1  UNL1       -0.4696
     22 C           9.3789   -0.0608    0.4738 C.3     1  UNL1        0.1514
     23 C           9.1320    0.9733    1.5283 C.3     1  UNL1        0.2727
     24 F           8.9315    0.2614    2.7221 F       1  UNL1       -0.2056
     25 F           8.0901    1.8203    1.3307 F       1  UNL1       -0.2056
     26 C           6.0147   -1.4609   -0.1512 C.ar    1  UNL1        0.0898
     27 N           4.7809   -1.1583   -0.5633 N.ar    1  UNL1       -0.2459
     28 C           0.5516    1.0096   -2.9222 C.ar    1  UNL1       -0.0518
     29 C          -0.7363    1.3576   -3.2715 C.ar    1  UNL1       -0.0255
     30 C          -1.8290    0.8540   -2.5716 C.ar    1  UNL1        0.1289
     31 F          -3.1015    1.2036   -2.9219 F       1  UNL1       -0.2051
     32 N          -2.1288   -1.3961    0.2645 N.2     1  UNL1       -0.2521
     33 C          -2.2663   -1.4923    1.5126 C.2     1  UNL1        0.1485
     34 N          -1.5704   -2.4121    2.3268 N.pl3   1  UNL1       -0.3380
     35 S          -3.4212   -0.3930    2.3097 S.3     1  UNL1       -0.0746
     36 H          -8.4867   -0.3478    1.4661 H       1  UNL1        0.0428
     37 H          -8.0705    1.4441    1.6920 H       1  UNL1        0.0428
     38 H          -8.1005    0.2483    3.0982 H       1  UNL1        0.0428
     39 H          -6.9697   -1.9515    2.1551 H       1  UNL1        0.0428
     40 H          -5.6359   -1.3437    3.1459 H       1  UNL1        0.0428
     41 H          -5.3593   -1.7231    1.3556 H       1  UNL1        0.0428
     42 H          -2.2812    1.8016    0.8992 H       1  UNL1        0.0287
     43 H          -3.7513    2.6719    0.2037 H       1  UNL1        0.0287
     44 H          -4.4301    0.7041   -1.1270 H       1  UNL1        0.0346
     45 H          -2.9434   -2.5160   -1.7225 H       1  UNL1        0.0256
     46 H          -4.4474   -1.6551   -1.3450 H       1  UNL1        0.0256
     47 H          -3.4514   -1.0830   -2.7148 H       1  UNL1        0.0256
     48 H          -0.0779   -1.0182   -0.3582 H       1  UNL1        0.0628
     49 H           2.3615   -1.2898   -1.1468 H       1  UNL1        0.0653
     50 H           5.3195    2.0771   -1.1650 H       1  UNL1        0.0853
     51 H           9.6448    0.4092   -0.5135 H       1  UNL1        0.0754
     52 H          10.3185   -0.5925    0.7759 H       1  UNL1        0.0754
     53 H          10.0465    1.6099    1.6372 H       1  UNL1        0.1054
     54 H           6.2949   -2.4749    0.1637 H       1  UNL1        0.0884
     55 H           1.4100    1.4126   -3.4811 H       1  UNL1        0.0624
     56 H          -0.9506    2.0318   -4.0981 H       1  UNL1        0.0646
     57 H          -0.5587   -2.5748    2.2016 H       1  UNL1        0.1442
     58 H          -2.0825   -2.9304    3.0583 H       1  UNL1        0.1442
@<TRIPOS>BOND
     1     1     2    1
     2     2     3    1
     3     2     4   am
     4     4     5    2
     5     6     4    1
     6     6     7    1
     7     7     8    1
     8     8     9    1
     9     9    10    1
    10     9    11    1
    11    11    12   ar
    12    12    13   ar
    13    13    14    1
    14    14    15    2
    15    15    16    1
    16    15    17    1
    17    17    18   ar
    18    18    19   ar
    19    19    20   ar
    20    20    21    1
    21    21    22    1
    22    22    23    1
    23    23    24    1
    24    23    25    1
    25    20    26   ar
    26    26    27   ar
    27    13    28   ar
    28    28    29   ar
    29    29    30   ar
    30    30    31    1
    31     9    32    1
    32    32    33    2
    33    33    34    1
    34    33    35    1
    35     8     6    1
    36    30    11   ar
    37    35     6    1
    38    27    17   ar
    39     1    36    1
    40     1    37    1
    41     1    38    1
    42     3    39    1
    43     3    40    1
    44     3    41    1
    45     7    42    1
    46     7    43    1
    47     8    44    1
    48    10    45    1
    49    10    46    1
    50    10    47    1
    51    12    48    1
    52    14    49    1
    53    18    50    1
    54    22    51    1
    55    22    52    1
    56    23    53    1
    57    26    54    1
    58    28    55    1
    59    29    56    1
    60    34    57    1
    61    34    58    1
