
     RDKit          3D

 56 58  0  0  0  0  0  0  0  0999 V2000
    4.0121    1.1695    1.3666 C   0  0  0  0  0  0  0  0  0  0  0  0
    5.0094    0.4681    0.5257 C   0  0  0  0  0  0  0  0  0  0  0  0
    6.2830    1.0625    0.4320 C   0  0  0  0  0  0  0  0  0  0  0  0
    7.2930    0.4702   -0.2706 C   0  0  0  0  0  0  0  0  0  0  0  0
    8.5618    1.0086   -0.3957 O   0  0  0  0  0  0  0  0  0  0  0  0
    9.0305    2.1954    0.1417 C   0  0  0  0  0  0  0  0  0  0  0  0
   10.0595    1.8869    1.0149 F   0  0  0  0  0  0  0  0  0  0  0  0
    9.4975    2.9760   -0.9131 F   0  0  0  0  0  0  0  0  0  0  0  0
    6.9783   -0.7411   -0.8762 C   0  0  0  0  0  0  0  0  0  0  0  0
    5.7736   -1.2918   -0.7821 N   0  0  0  0  0  0  0  0  0  0  0  0
    4.7327   -0.7126   -0.0780 C   0  0  0  0  0  0  0  0  0  0  0  0
    3.4344   -1.3697   -0.1007 C   0  0  0  0  0  0  0  0  0  0  0  0
    3.5183   -2.6490   -0.2484 O   0  0  0  0  0  0  0  0  0  0  0  0
    2.1859   -0.7810    0.0101 N   0  0  0  0  0  0  0  0  0  0  0  0
    0.9366   -1.4299    0.0010 C   0  0  0  0  0  0  0  0  0  0  0  0
    0.7750   -2.7762   -0.1222 C   0  0  0  0  0  0  0  0  0  0  0  0
   -0.4937   -3.3312   -0.1214 C   0  0  0  0  0  0  0  0  0  0  0  0
   -1.5839   -2.5298    0.0030 C   0  0  0  0  0  0  0  0  0  0  0  0
   -2.7944   -3.0879   -0.0026 F   0  0  0  0  0  0  0  0  0  0  0  0
   -1.4916   -1.1570    0.1320 C   0  0  0  0  0  0  0  0  0  0  0  0
   -2.6630   -0.3046    0.2693 C   0  0  2  0  0  0  0  0  0  0  0  0
   -2.2160    1.1457    0.2462 C   0  0  0  0  0  0  0  0  0  0  0  0
   -3.4855   -0.6074    1.4986 C   0  0  0  0  0  0  0  0  0  0  0  0
   -4.8977    0.4436    1.4976 S   0  0  0  0  0  6  0  0  0  0  0  0
   -4.6174    1.8052    2.0615 O   0  0  0  0  0  0  0  0  0  0  0  0
   -5.9017   -0.1858    2.4565 O   0  0  0  0  0  0  0  0  0  0  0  0
   -5.5197    0.5132   -0.1547 C   0  0  0  0  0  0  0  0  0  0  0  0
   -6.8983   -0.1708   -0.1299 C   0  0  0  0  0  0  0  0  0  0  0  0
   -5.8254    1.9491   -0.5850 C   0  0  0  0  0  0  0  0  0  0  0  0
   -4.6604   -0.1750   -1.1151 C   0  0  0  0  0  0  0  0  0  0  0  0
   -5.2044   -0.5101   -2.4034 N   0  0  0  0  0  0  0  0  0  0  0  0
   -3.4620   -0.5069   -0.9099 N   0  0  0  0  0  0  0  0  0  0  0  0
   -0.2207   -0.6435    0.1270 C   0  0  0  0  0  0  0  0  0  0  0  0
    3.3716    0.5285    1.9688 H   0  0  0  0  0  0  0  0  0  0  0  0
    4.6186    1.7489    2.1560 H   0  0  0  0  0  0  0  0  0  0  0  0
    3.5189    1.9767    0.7996 H   0  0  0  0  0  0  0  0  0  0  0  0
    6.4464    2.0053    0.9319 H   0  0  0  0  0  0  0  0  0  0  0  0
    8.2926    2.7633    0.7350 H   0  0  0  0  0  0  0  0  0  0  0  0
    7.7469   -1.2360   -1.4358 H   0  0  0  0  0  0  0  0  0  0  0  0
    2.1621    0.2870    0.0750 H   0  0  0  0  0  0  0  0  0  0  0  0
    1.6071   -3.4791   -0.2257 H   0  0  0  0  0  0  0  0  0  0  0  0
   -0.5958   -4.4236   -0.2226 H   0  0  0  0  0  0  0  0  0  0  0  0
   -1.5854    1.4034    1.1195 H   0  0  0  0  0  0  0  0  0  0  0  0
   -3.0809    1.8409    0.3103 H   0  0  0  0  0  0  0  0  0  0  0  0
   -1.6170    1.3556   -0.6605 H   0  0  0  0  0  0  0  0  0  0  0  0
   -2.9279   -0.4301    2.4298 H   0  0  0  0  0  0  0  0  0  0  0  0
   -3.8552   -1.6468    1.4008 H   0  0  0  0  0  0  0  0  0  0  0  0
   -6.7428   -1.2055    0.1841 H   0  0  0  0  0  0  0  0  0  0  0  0
   -7.4549    0.3527    0.6959 H   0  0  0  0  0  0  0  0  0  0  0  0
   -7.4276   -0.0430   -1.0784 H   0  0  0  0  0  0  0  0  0  0  0  0
   -6.7559    2.0284   -1.1427 H   0  0  0  0  0  0  0  0  0  0  0  0
   -5.9378    2.5521    0.3492 H   0  0  0  0  0  0  0  0  0  0  0  0
   -4.9985    2.3432   -1.2251 H   0  0  0  0  0  0  0  0  0  0  0  0
   -6.1182   -0.9961   -2.4113 H   0  0  0  0  0  0  0  0  0  0  0  0
   -4.7428   -0.2969   -3.3017 H   0  0  0  0  0  0  0  0  0  0  0  0
   -0.0693    0.4382    0.2268 H   0  0  0  0  0  0  0  0  0  0  0  0
  1  2  1  0
  2  3  2  0
  3  4  1  0
  4  5  1  0
  5  6  1  0
  6  7  1  0
  6  8  1  0
  4  9  2  0
  9 10  1  0
 10 11  2  0
 11 12  1  0
 12 13  2  0
 12 14  1  0
 14 15  1  0
 15 16  2  0
 16 17  1  0
 17 18  2  0
 18 19  1  0
 18 20  1  0
 20 21  1  0
 21 22  1  1
 21 23  1  0
 23 24  1  0
 24 25  2  0
 24 26  2  0
 24 27  1  0
 27 28  1  0
 27 29  1  0
 27 30  1  0
 30 31  1  0
 30 32  2  0
 20 33  2  0
 11  2  1  0
 33 15  1  0
 32 21  1  0
  1 34  1  0
  1 35  1  0
  1 36  1  0
  3 37  1  0
  6 38  1  0
  9 39  1  0
 14 40  1  0
 16 41  1  0
 17 42  1  0
 22 43  1  0
 22 44  1  0
 22 45  1  0
 23 46  1  0
 23 47  1  0
 28 48  1  0
 28 49  1  0
 28 50  1  0
 29 51  1  0
 29 52  1  0
 29 53  1  0
 31 54  1  0
 31 55  1  0
 33 56  1  0
M  END
$$$$
