@<TRIPOS>MOLECULE
*****
 56 58 0 0 0
SMALL
GASTEIGER

@<TRIPOS>ATOM
      1 C           4.0121    1.1695    1.3666 C.3     1  UNL1       -0.0374
      2 C           5.0094    0.4681    0.5257 C.ar    1  UNL1       -0.0165
      3 C           6.2830    1.0625    0.4320 C.ar    1  UNL1       -0.0131
      4 C           7.2930    0.4702   -0.2706 C.ar    1  UNL1        0.1452
      5 O           8.5618    1.0086   -0.3957 O.3     1  UNL1       -0.4327
      6 C           9.0305    2.1954    0.1417 C.3     1  UNL1        0.3893
      7 F          10.0595    1.8869    1.0149 F       1  UNL1       -0.1663
      8 F           9.4975    2.9760   -0.9131 F       1  UNL1       -0.1663
      9 C           6.9783   -0.7411   -0.8762 C.ar    1  UNL1        0.0703
     10 N           5.7736   -1.2918   -0.7821 N.ar    1  UNL1       -0.2465
     11 C           4.7327   -0.7126   -0.0780 C.ar    1  UNL1        0.1288
     12 C           3.4344   -1.3697   -0.1007 C.2     1  UNL1        0.2668
     13 O           3.5183   -2.6490   -0.2484 O.2     1  UNL1       -0.2682
     14 N           2.1859   -0.7810    0.0101 N.am    1  UNL1       -0.2802
     15 C           0.9366   -1.4299    0.0010 C.ar    1  UNL1        0.0343
     16 C           0.7750   -2.7762   -0.1222 C.ar    1  UNL1       -0.0377
     17 C          -0.4937   -3.3312   -0.1214 C.ar    1  UNL1       -0.0243
     18 C          -1.5839   -2.5298    0.0030 C.ar    1  UNL1        0.1311
     19 F          -2.7944   -3.0879   -0.0026 F       1  UNL1       -0.2050
     20 C          -1.4916   -1.1570    0.1320 C.ar    1  UNL1        0.0420
     21 C          -2.6630   -0.3046    0.2693 C.3     1  UNL1        0.1959
     22 C          -2.2160    1.1457    0.2462 C.3     1  UNL1       -0.0112
     23 C          -3.4855   -0.6074    1.4986 C.3     1  UNL1        0.1183
     24 S          -4.8977    0.4436    1.4976 S.O2    1  UNL1       -0.0101
     25 O          -4.6174    1.8052    2.0615 O.2     1  UNL1       -0.1731
     26 O          -5.9017   -0.1858    2.4565 O.2     1  UNL1       -0.1731
     27 C          -5.5197    0.5132   -0.1547 C.3     1  UNL1        0.1831
     28 C          -6.8983   -0.1708   -0.1299 C.3     1  UNL1       -0.0288
     29 C          -5.8254    1.9491   -0.5850 C.3     1  UNL1       -0.0288
     30 C          -4.6604   -0.1750   -1.1151 C.2     1  UNL1        0.3067
     31 N          -5.2044   -0.5101   -2.4034 N.pl3   1  UNL1       -0.2488
     32 N          -3.4620   -0.5069   -0.9099 N.2     1  UNL1       -0.0727
     33 C          -0.2207   -0.6435    0.1270 C.ar    1  UNL1       -0.0301
     34 H           3.3716    0.5285    1.9688 H       1  UNL1        0.0278
     35 H           4.6186    1.7489    2.1560 H       1  UNL1        0.0278
     36 H           3.5189    1.9767    0.7996 H       1  UNL1        0.0278
     37 H           6.4464    2.0053    0.9319 H       1  UNL1        0.0658
     38 H           8.2926    2.7633    0.7350 H       1  UNL1        0.1520
     39 H           7.7469   -1.2360   -1.4358 H       1  UNL1        0.0867
     40 H           2.1621    0.2870    0.0750 H       1  UNL1        0.1552
     41 H           1.6071   -3.4791   -0.2257 H       1  UNL1        0.0637
     42 H          -0.5958   -4.4236   -0.2226 H       1  UNL1        0.0647
     43 H          -1.5854    1.4034    1.1195 H       1  UNL1        0.0279
     44 H          -3.0809    1.8409    0.3103 H       1  UNL1        0.0279
     45 H          -1.6170    1.3556   -0.6605 H       1  UNL1        0.0279
     46 H          -2.9279   -0.4301    2.4298 H       1  UNL1        0.0550
     47 H          -3.8552   -1.6468    1.4008 H       1  UNL1        0.0550
     48 H          -6.7428   -1.2055    0.1841 H       1  UNL1        0.0256
     49 H          -7.4549    0.3527    0.6959 H       1  UNL1        0.0256
     50 H          -7.4276   -0.0430   -1.0784 H       1  UNL1        0.0256
     51 H          -6.7559    2.0284   -1.1427 H       1  UNL1        0.0256
     52 H          -5.9378    2.5521    0.3492 H       1  UNL1        0.0256
     53 H          -4.9985    2.3432   -1.2251 H       1  UNL1        0.0256
     54 H          -6.1182   -0.9961   -2.4113 H       1  UNL1        0.2881
     55 H          -4.7428   -0.2969   -3.3017 H       1  UNL1        0.2881
     56 H          -0.0693    0.4382    0.2268 H       1  UNL1        0.0641
@<TRIPOS>BOND
     1     1     2    1
     2     2     3   ar
     3     3     4   ar
     4     4     5    1
     5     5     6    1
     6     6     7    1
     7     6     8    1
     8     4     9   ar
     9     9    10   ar
    10    10    11   ar
    11    11    12    1
    12    12    13    2
    13    12    14   am
    14    14    15    1
    15    15    16   ar
    16    16    17   ar
    17    17    18   ar
    18    18    19    1
    19    18    20   ar
    20    20    21    1
    21    21    22    1
    22    21    23    1
    23    23    24    1
    24    24    25    2
    25    24    26    2
    26    24    27    1
    27    27    28    1
    28    27    29    1
    29    27    30    1
    30    30    31    1
    31    30    32    2
    32    20    33   ar
    33    11     2   ar
    34    33    15   ar
    35    32    21    1
    36     1    34    1
    37     1    35    1
    38     1    36    1
    39     3    37    1
    40     6    38    1
    41     9    39    1
    42    14    40    1
    43    16    41    1
    44    17    42    1
    45    22    43    1
    46    22    44    1
    47    22    45    1
    48    23    46    1
    49    23    47    1
    50    28    48    1
    51    28    49    1
    52    28    50    1
    53    29    51    1
    54    29    52    1
    55    29    53    1
    56    31    54    1
    57    31    55    1
    58    33    56    1
