@<TRIPOS>MOLECULE
*****
 66 69 0 0 0
SMALL
GASTEIGER

@<TRIPOS>ATOM
      1 C          -7.3666   -1.5690   -0.3851 C.3     1  UNL1       -0.0223
      2 C          -6.5673   -0.4860    0.2366 C.ar    1  UNL1        0.0393
      3 C          -5.4419   -0.7442    0.9872 C.ar    1  UNL1       -0.0337
      4 C          -4.6958    0.2577    1.5671 C.ar    1  UNL1        0.0004
      5 C          -3.4928    0.0275    2.4011 C.3     1  UNL1        0.1153
      6 O          -2.2904    0.3494    1.8441 O.3     1  UNL1       -0.4874
      7 C          -1.5877   -0.0550    0.7736 C.ar    1  UNL1        0.1211
      8 C          -0.3447    0.5400    0.5059 C.ar    1  UNL1       -0.0181
      9 C           0.4337    0.1785   -0.5717 C.ar    1  UNL1       -0.0334
     10 C           0.0014   -0.8015   -1.4364 C.ar    1  UNL1        0.0885
     11 S           0.9787   -1.2546   -2.8017 S.O2    1  UNL1       -0.0010
     12 O           1.7660   -0.0578   -3.2478 O.2     1  UNL1       -0.1693
     13 O           0.1282   -1.7341   -3.9535 O.2     1  UNL1       -0.1693
     14 C           2.0849   -2.5464   -2.2654 C.3     1  UNL1        0.0952
     15 C           2.9787   -2.0698   -1.1419 C.3     1  UNL1        0.0906
     16 C           3.7928   -0.9348   -1.6061 C.2     1  UNL1       -0.0607
     17 C           4.4226   -0.1245   -0.7917 C.2     1  UNL1       -0.0714
     18 C           5.2288    1.0078   -1.3702 C.3     1  UNL1       -0.0297
     19 C           6.1097    1.5788   -0.2684 C.3     1  UNL1       -0.0236
     20 C           5.2559    2.1040    0.8535 C.3     1  UNL1        0.0926
     21 N           6.1549    2.4188    1.9524 N.2     1  UNL1       -0.0657
     22 O           7.2014    2.9427    1.6762 O.2     1  UNL1       -0.1487
     23 C           4.2684    1.0964    1.3534 C.3     1  UNL1       -0.0236
     24 C           4.4121   -0.2383    0.6834 C.3     1  UNL1       -0.0297
     25 N           3.7580   -3.1735   -0.6608 N.am    1  UNL1       -0.1779
     26 O           3.5904   -3.6127    0.5960 O.3     1  UNL1       -0.2921
     27 C           4.7005   -3.8041   -1.4959 C.2     1  UNL1        0.2256
     28 O           4.8865   -3.4243   -2.6637 O.2     1  UNL1       -0.2772
     29 C          -1.2078   -1.4142   -1.2171 C.ar    1  UNL1       -0.0334
     30 C          -1.9799   -1.0273   -0.1133 C.ar    1  UNL1       -0.0181
     31 C          -5.1515    1.5625    1.3472 C.ar    1  UNL1        0.0068
     32 C          -4.4537    2.6194    1.8960 C.ar    1  UNL1       -0.0522
     33 C          -4.9424    3.8960    1.6499 C.ar    1  UNL1       -0.0611
     34 C          -6.0700    4.1423    0.8970 C.ar    1  UNL1       -0.0597
     35 C          -6.7582    3.0782    0.3543 C.ar    1  UNL1       -0.0357
     36 C          -6.2889    1.8038    0.5872 C.ar    1  UNL1        0.0716
     37 N          -6.9608    0.7869    0.0571 N.ar    1  UNL1       -0.2519
     38 H          -7.7989   -2.2283    0.3854 H       1  UNL1        0.0292
     39 H          -8.2133   -1.1414   -0.9531 H       1  UNL1        0.0292
     40 H          -6.7126   -2.1491   -1.0962 H       1  UNL1        0.0292
     41 H          -5.1467   -1.7872    1.1158 H       1  UNL1        0.0639
     42 H          -3.5536   -1.0238    2.7849 H       1  UNL1        0.0748
     43 H          -3.6315    0.6484    3.3414 H       1  UNL1        0.0748
     44 H           0.0224    1.3077    1.1609 H       1  UNL1        0.0655
     45 H           1.3923    0.6330   -0.7838 H       1  UNL1        0.0638
     46 H           1.5297   -3.4234   -1.8881 H       1  UNL1        0.0527
     47 H           2.6738   -2.9024   -3.1328 H       1  UNL1        0.0527
     48 H           2.2838   -1.6906   -0.3293 H       1  UNL1        0.0585
     49 H           3.8773   -0.7729   -2.6868 H       1  UNL1        0.0591
     50 H           4.5247    1.7490   -1.7547 H       1  UNL1        0.0311
     51 H           5.8655    0.6173   -2.1816 H       1  UNL1        0.0311
     52 H           6.7396    0.7658    0.1611 H       1  UNL1        0.0290
     53 H           6.7722    2.3569   -0.6467 H       1  UNL1        0.0290
     54 H           4.7241    3.0411    0.5697 H       1  UNL1        0.0579
     55 H           3.2388    1.5088    1.2291 H       1  UNL1        0.0290
     56 H           4.3883    0.9478    2.4573 H       1  UNL1        0.0290
     57 H           5.3411   -0.7201    1.0614 H       1  UNL1        0.0311
     58 H           3.5742   -0.8910    0.9881 H       1  UNL1        0.0311
     59 H           2.7058   -3.3962    0.9643 H       1  UNL1        0.2417
     60 H           5.2947   -4.6450   -1.1407 H       1  UNL1        0.1274
     61 H          -1.5480   -2.1861   -1.8984 H       1  UNL1        0.0638
     62 H          -2.9152   -1.5479    0.0094 H       1  UNL1        0.0655
     63 H          -3.5616    2.4809    2.4934 H       1  UNL1        0.0624
     64 H          -4.3634    4.7150    2.1015 H       1  UNL1        0.0618
     65 H          -6.3993    5.1765    0.7429 H       1  UNL1        0.0618
     66 H          -7.6575    3.2387   -0.2491 H       1  UNL1        0.0639
@<TRIPOS>BOND
     1     1     2    1
     2     2     3   ar
     3     3     4   ar
     4     4     5    1
     5     5     6    1
     6     6     7    1
     7     7     8   ar
     8     8     9   ar
     9     9    10   ar
    10    10    11    1
    11    11    12    2
    12    11    13    2
    13    11    14    1
    14    14    15    1
    15    15    16    1
    16    16    17    2
    17    17    18    1
    18    18    19    1
    19    19    20    1
    20    20    21    1
    21    21    22    2
    22    20    23    1
    23    23    24    1
    24    15    25    1
    25    25    26    1
    26    25    27   am
    27    27    28    2
    28    10    29   ar
    29    29    30   ar
    30     4    31   ar
    31    31    32   ar
    32    32    33   ar
    33    33    34   ar
    34    34    35   ar
    35    35    36   ar
    36    36    37   ar
    37    37     2   ar
    38    30     7   ar
    39    36    31   ar
    40    24    17    1
    41     1    38    1
    42     1    39    1
    43     1    40    1
    44     3    41    1
    45     5    42    1
    46     5    43    1
    47     8    44    1
    48     9    45    1
    49    14    46    1
    50    14    47    1
    51    15    48    1
    52    16    49    1
    53    18    50    1
    54    18    51    1
    55    19    52    1
    56    19    53    1
    57    20    54    1
    58    23    55    1
    59    23    56    1
    60    24    57    1
    61    24    58    1
    62    26    59    1
    63    27    60    1
    64    29    61    1
    65    30    62    1
    66    32    63    1
    67    33    64    1
    68    34    65    1
    69    35    66    1
