
     RDKit          3D

 66 69  0  0  0  0  0  0  0  0999 V2000
   -7.3666   -1.5690   -0.3851 C   0  0  0  0  0  0  0  0  0  0  0  0
   -6.5673   -0.4860    0.2366 C   0  0  0  0  0  0  0  0  0  0  0  0
   -5.4419   -0.7442    0.9872 C   0  0  0  0  0  0  0  0  0  0  0  0
   -4.6958    0.2577    1.5671 C   0  0  0  0  0  0  0  0  0  0  0  0
   -3.4928    0.0275    2.4011 C   0  0  0  0  0  0  0  0  0  0  0  0
   -2.2904    0.3494    1.8441 O   0  0  0  0  0  0  0  0  0  0  0  0
   -1.5877   -0.0550    0.7736 C   0  0  0  0  0  0  0  0  0  0  0  0
   -0.3447    0.5400    0.5059 C   0  0  0  0  0  0  0  0  0  0  0  0
    0.4337    0.1785   -0.5717 C   0  0  0  0  0  0  0  0  0  0  0  0
    0.0014   -0.8015   -1.4364 C   0  0  0  0  0  0  0  0  0  0  0  0
    0.9787   -1.2546   -2.8017 S   0  0  0  0  0  6  0  0  0  0  0  0
    1.7660   -0.0578   -3.2478 O   0  0  0  0  0  0  0  0  0  0  0  0
    0.1282   -1.7341   -3.9535 O   0  0  0  0  0  0  0  0  0  0  0  0
    2.0849   -2.5464   -2.2654 C   0  0  0  0  0  0  0  0  0  0  0  0
    2.9787   -2.0698   -1.1419 C   0  0  0  0  0  0  0  0  0  0  0  0
    3.7928   -0.9348   -1.6061 C   0  0  0  0  0  0  0  0  0  0  0  0
    4.4226   -0.1245   -0.7917 C   0  0  0  0  0  0  0  0  0  0  0  0
    5.2288    1.0078   -1.3702 C   0  0  0  0  0  0  0  0  0  0  0  0
    6.1097    1.5788   -0.2684 C   0  0  0  0  0  0  0  0  0  0  0  0
    5.2559    2.1040    0.8535 C   0  0  0  0  0  0  0  0  0  0  0  0
    6.1549    2.4188    1.9524 N   0  0  0  0  0  0  0  0  0  0  0  0
    7.2014    2.9427    1.6762 O   0  0  0  0  0  0  0  0  0  0  0  0
    4.2684    1.0964    1.3534 C   0  0  0  0  0  0  0  0  0  0  0  0
    4.4121   -0.2383    0.6834 C   0  0  0  0  0  0  0  0  0  0  0  0
    3.7580   -3.1735   -0.6608 N   0  0  0  0  0  0  0  0  0  0  0  0
    3.5904   -3.6127    0.5960 O   0  0  0  0  0  0  0  0  0  0  0  0
    4.7005   -3.8041   -1.4959 C   0  0  0  0  0  0  0  0  0  0  0  0
    4.8865   -3.4243   -2.6637 O   0  0  0  0  0  0  0  0  0  0  0  0
   -1.2078   -1.4142   -1.2171 C   0  0  0  0  0  0  0  0  0  0  0  0
   -1.9799   -1.0273   -0.1133 C   0  0  0  0  0  0  0  0  0  0  0  0
   -5.1515    1.5625    1.3472 C   0  0  0  0  0  0  0  0  0  0  0  0
   -4.4537    2.6194    1.8960 C   0  0  0  0  0  0  0  0  0  0  0  0
   -4.9424    3.8960    1.6499 C   0  0  0  0  0  0  0  0  0  0  0  0
   -6.0700    4.1423    0.8970 C   0  0  0  0  0  0  0  0  0  0  0  0
   -6.7582    3.0782    0.3543 C   0  0  0  0  0  0  0  0  0  0  0  0
   -6.2889    1.8038    0.5872 C   0  0  0  0  0  0  0  0  0  0  0  0
   -6.9608    0.7869    0.0571 N   0  0  0  0  0  0  0  0  0  0  0  0
   -7.7989   -2.2283    0.3854 H   0  0  0  0  0  0  0  0  0  0  0  0
   -8.2133   -1.1414   -0.9531 H   0  0  0  0  0  0  0  0  0  0  0  0
   -6.7126   -2.1491   -1.0962 H   0  0  0  0  0  0  0  0  0  0  0  0
   -5.1467   -1.7872    1.1158 H   0  0  0  0  0  0  0  0  0  0  0  0
   -3.5536   -1.0238    2.7849 H   0  0  0  0  0  0  0  0  0  0  0  0
   -3.6315    0.6484    3.3414 H   0  0  0  0  0  0  0  0  0  0  0  0
    0.0224    1.3077    1.1609 H   0  0  0  0  0  0  0  0  0  0  0  0
    1.3923    0.6330   -0.7838 H   0  0  0  0  0  0  0  0  0  0  0  0
    1.5297   -3.4234   -1.8881 H   0  0  0  0  0  0  0  0  0  0  0  0
    2.6738   -2.9024   -3.1328 H   0  0  0  0  0  0  0  0  0  0  0  0
    2.2838   -1.6906   -0.3293 H   0  0  0  0  0  0  0  0  0  0  0  0
    3.8773   -0.7729   -2.6868 H   0  0  0  0  0  0  0  0  0  0  0  0
    4.5247    1.7490   -1.7547 H   0  0  0  0  0  0  0  0  0  0  0  0
    5.8655    0.6173   -2.1816 H   0  0  0  0  0  0  0  0  0  0  0  0
    6.7396    0.7658    0.1611 H   0  0  0  0  0  0  0  0  0  0  0  0
    6.7722    2.3569   -0.6467 H   0  0  0  0  0  0  0  0  0  0  0  0
    4.7241    3.0411    0.5697 H   0  0  0  0  0  0  0  0  0  0  0  0
    3.2388    1.5088    1.2291 H   0  0  0  0  0  0  0  0  0  0  0  0
    4.3883    0.9478    2.4573 H   0  0  0  0  0  0  0  0  0  0  0  0
    5.3411   -0.7201    1.0614 H   0  0  0  0  0  0  0  0  0  0  0  0
    3.5742   -0.8910    0.9881 H   0  0  0  0  0  0  0  0  0  0  0  0
    2.7058   -3.3962    0.9643 H   0  0  0  0  0  0  0  0  0  0  0  0
    5.2947   -4.6450   -1.1407 H   0  0  0  0  0  0  0  0  0  0  0  0
   -1.5480   -2.1861   -1.8984 H   0  0  0  0  0  0  0  0  0  0  0  0
   -2.9152   -1.5479    0.0094 H   0  0  0  0  0  0  0  0  0  0  0  0
   -3.5616    2.4809    2.4934 H   0  0  0  0  0  0  0  0  0  0  0  0
   -4.3634    4.7150    2.1015 H   0  0  0  0  0  0  0  0  0  0  0  0
   -6.3993    5.1765    0.7429 H   0  0  0  0  0  0  0  0  0  0  0  0
   -7.6575    3.2387   -0.2491 H   0  0  0  0  0  0  0  0  0  0  0  0
  1  2  1  0
  2  3  2  0
  3  4  1  0
  4  5  1  0
  5  6  1  0
  6  7  1  0
  7  8  2  0
  8  9  1  0
  9 10  2  0
 10 11  1  0
 11 12  2  0
 11 13  2  0
 11 14  1  0
 14 15  1  0
 15 16  1  0
 16 17  2  3
 17 18  1  0
 18 19  1  0
 19 20  1  0
 20 21  1  0
 21 22  2  0
 20 23  1  0
 23 24  1  0
 15 25  1  0
 25 26  1  0
 25 27  1  0
 27 28  2  0
 10 29  1  0
 29 30  2  0
  4 31  2  0
 31 32  1  0
 32 33  2  0
 33 34  1  0
 34 35  2  0
 35 36  1  0
 36 37  2  0
 37  2  1  0
 30  7  1  0
 36 31  1  0
 24 17  1  0
  1 38  1  0
  1 39  1  0
  1 40  1  0
  3 41  1  0
  5 42  1  0
  5 43  1  0
  8 44  1  0
  9 45  1  0
 14 46  1  0
 14 47  1  0
 15 48  1  0
 16 49  1  0
 18 50  1  0
 18 51  1  0
 19 52  1  0
 19 53  1  0
 20 54  1  0
 23 55  1  0
 23 56  1  0
 24 57  1  0
 24 58  1  0
 26 59  1  0
 27 60  1  0
 29 61  1  0
 30 62  1  0
 32 63  1  0
 33 64  1  0
 34 65  1  0
 35 66  1  0
M  END
$$$$
