
     RDKit          3D

 53 58  0  0  0  0  0  0  0  0999 V2000
    4.0859   -3.0250    1.9219 C   0  0  0  0  0  0  0  0  0  0  0  0
    4.7027   -2.0118    1.1554 O   0  0  0  0  0  0  0  0  0  0  0  0
    3.9352   -1.0680    0.4972 C   0  0  0  0  0  0  0  0  0  0  0  0
    2.5419   -1.0981    0.5770 C   0  0  0  0  0  0  0  0  0  0  0  0
    1.7720   -0.1839   -0.0596 C   0  0  0  0  0  0  0  0  0  0  0  0
    0.3349   -0.2122   -0.0447 N   0  0  0  0  0  0  0  0  0  0  0  0
   -0.4688   -1.2853    0.4590 C   0  0  0  0  0  0  0  0  0  0  0  0
   -0.1629   -2.2250    1.1956 O   0  0  0  0  0  0  0  0  0  0  0  0
   -1.8439   -1.1176   -0.0584 C   0  0  0  0  0  0  0  0  0  0  0  0
   -3.0658   -1.7585   -0.1967 C   0  0  0  0  0  0  0  0  0  0  0  0
   -3.4501   -3.0135    0.4629 C   0  0  0  0  0  0  0  0  0  0  0  0
   -3.1760   -4.3144   -0.2108 C   0  0  0  0  0  0  0  0  0  0  0  0
   -4.6112   -3.8130   -0.0535 C   0  0  0  0  0  0  0  0  0  0  0  0
   -3.7964   -0.9865   -1.0503 N   0  0  0  0  0  0  0  0  0  0  0  0
   -3.0812    0.0768   -1.4237 N   0  0  0  0  0  0  0  0  0  0  0  0
   -3.5404    1.0964   -2.3444 C   0  0  0  0  0  0  0  0  0  0  0  0
   -1.8655    0.0216   -0.8145 C   0  0  0  0  0  0  0  0  0  0  0  0
   -0.5896    0.7684   -0.5415 C   0  0  0  0  0  0  0  0  0  0  0  0
   -0.9093    1.7803    0.5246 C   0  0  0  0  0  0  0  0  0  0  0  0
   -2.2302    1.9873    0.8527 C   0  0  0  0  0  0  0  0  0  0  0  0
   -2.6333    2.9100    1.8126 C   0  0  0  0  0  0  0  0  0  0  0  0
   -1.6993    3.6545    2.4727 C   0  0  0  0  0  0  0  0  0  0  0  0
   -2.2294    4.8094    3.6764 Cl  0  0  0  0  0  0  0  0  0  0  0  0
   -0.3831    3.4545    2.1530 C   0  0  0  0  0  0  0  0  0  0  0  0
    0.0292    2.5255    1.1854 C   0  0  0  0  0  0  0  0  0  0  0  0
    2.3788    0.8143   -0.8146 C   0  0  0  0  0  0  0  0  0  0  0  0
    3.7458    0.8808   -0.9199 C   0  0  0  0  0  0  0  0  0  0  0  0
    4.4970   -0.0676   -0.2576 C   0  0  0  0  0  0  0  0  0  0  0  0
    5.7895    0.2600   -0.5507 N   0  0  0  0  0  0  0  0  0  0  0  0
    5.7933    1.3248   -1.3294 N   0  0  0  0  0  0  0  0  0  0  0  0
    4.5767    1.7407   -1.5831 N   0  0  0  0  0  0  0  0  0  0  0  0
    4.1002    2.8507   -2.3749 C   0  0  0  0  0  0  0  0  0  0  0  0
    3.6115   -2.6562    2.8373 H   0  0  0  0  0  0  0  0  0  0  0  0
    4.8740   -3.7733    2.1591 H   0  0  0  0  0  0  0  0  0  0  0  0
    3.2992   -3.5294    1.2942 H   0  0  0  0  0  0  0  0  0  0  0  0
    2.0671   -1.8879    1.1768 H   0  0  0  0  0  0  0  0  0  0  0  0
   -3.3688   -3.0178    1.5779 H   0  0  0  0  0  0  0  0  0  0  0  0
   -2.8748   -5.1798    0.4346 H   0  0  0  0  0  0  0  0  0  0  0  0
   -2.8316   -4.3714   -1.2431 H   0  0  0  0  0  0  0  0  0  0  0  0
   -5.2573   -4.3634    0.6606 H   0  0  0  0  0  0  0  0  0  0  0  0
   -5.1326   -3.4512   -0.9598 H   0  0  0  0  0  0  0  0  0  0  0  0
   -4.1200    1.8876   -1.8195 H   0  0  0  0  0  0  0  0  0  0  0  0
   -4.2156    0.6671   -3.1096 H   0  0  0  0  0  0  0  0  0  0  0  0
   -2.6905    1.6208   -2.8368 H   0  0  0  0  0  0  0  0  0  0  0  0
   -0.2841    1.2428   -1.4772 H   0  0  0  0  0  0  0  0  0  0  0  0
   -3.0265    1.4420    0.3997 H   0  0  0  0  0  0  0  0  0  0  0  0
   -3.6691    3.0344    2.0312 H   0  0  0  0  0  0  0  0  0  0  0  0
    0.3737    4.0338    2.6641 H   0  0  0  0  0  0  0  0  0  0  0  0
    1.0567    2.4012    0.9686 H   0  0  0  0  0  0  0  0  0  0  0  0
    1.7669    1.5641   -1.3374 H   0  0  0  0  0  0  0  0  0  0  0  0
    4.8989    3.6168   -2.5180 H   0  0  0  0  0  0  0  0  0  0  0  0
    3.2614    3.3937   -1.8638 H   0  0  0  0  0  0  0  0  0  0  0  0
    3.7149    2.5503   -3.3571 H   0  0  0  0  0  0  0  0  0  0  0  0
  1  2  1  0
  2  3  1  0
  3  4  2  0
  4  5  1  0
  5  6  1  0
  6  7  1  0
  7  8  2  0
  7  9  1  0
  9 10  1  0
 10 11  1  0
 11 12  1  0
 12 13  1  0
 10 14  2  0
 14 15  1  0
 15 16  1  0
 15 17  1  0
 17 18  1  0
 18 19  1  0
 19 20  2  0
 20 21  1  0
 21 22  2  0
 22 23  1  0
 22 24  1  0
 24 25  2  0
  5 26  2  0
 26 27  1  0
 27 28  2  0
 28 29  1  0
 29 30  2  0
 30 31  1  0
 31 32  1  0
 28  3  1  0
 18  6  1  0
 25 19  1  0
 31 27  1  0
 17  9  2  0
 13 11  1  0
  1 33  1  0
  1 34  1  0
  1 35  1  0
  4 36  1  0
 11 37  1  0
 12 38  1  0
 12 39  1  0
 13 40  1  0
 13 41  1  0
 16 42  1  0
 16 43  1  0
 16 44  1  0
 18 45  1  0
 20 46  1  0
 21 47  1  0
 24 48  1  0
 25 49  1  0
 26 50  1  0
 32 51  1  0
 32 52  1  0
 32 53  1  0
M  END
$$$$
