@<TRIPOS>MOLECULE
*****
 53 58 0 0 0
SMALL
GASTEIGER

@<TRIPOS>ATOM
      1 C           4.0859   -3.0250    1.9219 C.3     1  UNL1        0.0789
      2 O           4.7027   -2.0118    1.1554 O.3     1  UNL1       -0.4928
      3 C           3.9352   -1.0680    0.4972 C.ar    1  UNL1        0.1510
      4 C           2.5419   -1.0981    0.5770 C.ar    1  UNL1        0.0038
      5 C           1.7720   -0.1839   -0.0596 C.ar    1  UNL1        0.0432
      6 N           0.3349   -0.2122   -0.0447 N.am    1  UNL1       -0.2541
      7 C          -0.4688   -1.2853    0.4590 C.2     1  UNL1        0.2553
      8 O          -0.1629   -2.2250    1.1956 O.2     1  UNL1       -0.2695
      9 C          -1.8439   -1.1176   -0.0584 C.ar    1  UNL1        0.0834
     10 C          -3.0658   -1.7585   -0.1967 C.ar    1  UNL1        0.0785
     11 C          -3.4501   -3.0135    0.4629 C.3     1  UNL1        0.0039
     12 C          -3.1760   -4.3144   -0.2108 C.3     1  UNL1       -0.0441
     13 C          -4.6112   -3.8130   -0.0535 C.3     1  UNL1       -0.0441
     14 N          -3.7964   -0.9865   -1.0503 N.ar    1  UNL1       -0.1751
     15 N          -3.0812    0.0768   -1.4237 N.ar    1  UNL1       -0.2682
     16 C          -3.5404    1.0964   -2.3444 C.3     1  UNL1        0.0306
     17 C          -1.8655    0.0216   -0.8145 C.ar    1  UNL1        0.0765
     18 C          -0.5896    0.7684   -0.5415 C.3     1  UNL1        0.0988
     19 C          -0.9093    1.7803    0.5246 C.ar    1  UNL1       -0.0207
     20 C          -2.2302    1.9873    0.8527 C.ar    1  UNL1       -0.0550
     21 C          -2.6333    2.9100    1.8126 C.ar    1  UNL1       -0.0431
     22 C          -1.6993    3.6545    2.4727 C.ar    1  UNL1        0.0410
     23 CL         -2.2294    4.8094    3.6764 Cl      1  UNL1       -0.0835
     24 C          -0.3831    3.4545    2.1530 C.ar    1  UNL1       -0.0431
     25 C           0.0292    2.5255    1.1854 C.ar    1  UNL1       -0.0550
     26 C           2.3788    0.8143   -0.8146 C.ar    1  UNL1       -0.0128
     27 C           3.7458    0.8808   -0.9199 C.ar    1  UNL1        0.0940
     28 C           4.4970   -0.0676   -0.2576 C.ar    1  UNL1        0.1542
     29 N           5.7895    0.2600   -0.5507 N.ar    1  UNL1       -0.1258
     30 N           5.7933    1.3248   -1.3294 N.ar    1  UNL1       -0.0647
     31 N           4.5767    1.7407   -1.5831 N.ar    1  UNL1       -0.2468
     32 C           4.1002    2.8507   -2.3749 C.3     1  UNL1        0.0325
     33 H           3.6115   -2.6562    2.8373 H       1  UNL1        0.0660
     34 H           4.8740   -3.7733    2.1591 H       1  UNL1        0.0660
     35 H           3.2992   -3.5294    1.2942 H       1  UNL1        0.0660
     36 H           2.0671   -1.8879    1.1768 H       1  UNL1        0.0673
     37 H          -3.3688   -3.0178    1.5779 H       1  UNL1        0.0365
     38 H          -2.8748   -5.1798    0.4346 H       1  UNL1        0.0272
     39 H          -2.8316   -4.3714   -1.2431 H       1  UNL1        0.0272
     40 H          -5.2573   -4.3634    0.6606 H       1  UNL1        0.0272
     41 H          -5.1326   -3.4512   -0.9598 H       1  UNL1        0.0272
     42 H          -4.1200    1.8876   -1.8195 H       1  UNL1        0.0473
     43 H          -4.2156    0.6671   -3.1096 H       1  UNL1        0.0473
     44 H          -2.6905    1.6208   -2.8368 H       1  UNL1        0.0473
     45 H          -0.2841    1.2428   -1.4772 H       1  UNL1        0.0620
     46 H          -3.0265    1.4420    0.3997 H       1  UNL1        0.0621
     47 H          -3.6691    3.0344    2.0312 H       1  UNL1        0.0632
     48 H           0.3737    4.0338    2.6641 H       1  UNL1        0.0632
     49 H           1.0567    2.4012    0.9686 H       1  UNL1        0.0621
     50 H           1.7669    1.5641   -1.3374 H       1  UNL1        0.0658
     51 H           4.8989    3.6168   -2.5180 H       1  UNL1        0.0473
     52 H           3.2614    3.3937   -1.8638 H       1  UNL1        0.0473
     53 H           3.7149    2.5503   -3.3571 H       1  UNL1        0.0473
@<TRIPOS>BOND
     1     1     2    1
     2     2     3    1
     3     3     4   ar
     4     4     5   ar
     5     5     6    1
     6     6     7   am
     7     7     8    2
     8     7     9    1
     9     9    10   ar
    10    10    11    1
    11    11    12    1
    12    12    13    1
    13    10    14   ar
    14    14    15   ar
    15    15    16    1
    16    15    17   ar
    17    17    18    1
    18    18    19    1
    19    19    20   ar
    20    20    21   ar
    21    21    22   ar
    22    22    23    1
    23    22    24   ar
    24    24    25   ar
    25     5    26   ar
    26    26    27   ar
    27    27    28   ar
    28    28    29   ar
    29    29    30   ar
    30    30    31   ar
    31    31    32    1
    32    28     3   ar
    33    18     6    1
    34    25    19   ar
    35    31    27   ar
    36    17     9   ar
    37    13    11    1
    38     1    33    1
    39     1    34    1
    40     1    35    1
    41     4    36    1
    42    11    37    1
    43    12    38    1
    44    12    39    1
    45    13    40    1
    46    13    41    1
    47    16    42    1
    48    16    43    1
    49    16    44    1
    50    18    45    1
    51    20    46    1
    52    21    47    1
    53    24    48    1
    54    25    49    1
    55    26    50    1
    56    32    51    1
    57    32    52    1
    58    32    53    1
