@<TRIPOS>MOLECULE
*****
 63 69 0 0 0
SMALL
GASTEIGER

@<TRIPOS>ATOM
      1 N          -1.6850   -0.5395   -2.6705 N.pl3   1  UNL1       -0.3414
      2 C          -0.3329   -0.8909   -2.4209 C.ar    1  UNL1        0.1424
      3 N           0.3196   -1.7103   -3.2898 N.ar    1  UNL1       -0.2371
      4 C           1.6081   -2.0250   -3.0717 C.ar    1  UNL1        0.0463
      5 C           2.2731   -1.5259   -1.9775 C.ar    1  UNL1        0.0297
      6 N           1.6175   -0.7227   -1.1337 N.ar    1  UNL1       -0.2982
      7 C           0.2957   -0.3776   -1.3228 C.ar    1  UNL1        0.1135
      8 C          -0.0798    0.4570   -0.3005 C.ar    1  UNL1        0.1002
      9 C          -1.4043    1.0701   -0.1362 C.ar    1  UNL1        0.0046
     10 C          -1.4787    2.4645   -0.0061 C.ar    1  UNL1       -0.0518
     11 C          -2.6742    3.1073    0.1942 C.ar    1  UNL1       -0.0519
     12 C          -3.8569    2.4084    0.2765 C.ar    1  UNL1        0.0005
     13 C          -5.0612    3.0497    0.4836 C.ar    1  UNL1       -0.0505
     14 C          -6.1902    2.2576    0.5576 C.ar    1  UNL1       -0.0351
     15 C          -6.1396    0.8874    0.4333 C.ar    1  UNL1        0.0717
     16 C          -7.3261    0.0311    0.5162 C.ar    1  UNL1        0.0004
     17 C          -7.1783   -1.3315    0.3856 C.ar    1  UNL1       -0.0526
     18 C          -8.2865   -2.1783    0.4641 C.ar    1  UNL1       -0.0611
     19 C          -9.5472   -1.6761    0.6731 C.ar    1  UNL1       -0.0617
     20 C          -9.6938   -0.3090    0.8041 C.ar    1  UNL1       -0.0611
     21 C          -8.5731    0.5223    0.7224 C.ar    1  UNL1       -0.0526
     22 N          -4.9185    0.3317    0.2312 N.ar    1  UNL1       -0.2467
     23 C          -3.7792    1.0380    0.1485 C.ar    1  UNL1        0.0723
     24 C          -2.5618    0.3755   -0.0560 C.ar    1  UNL1       -0.0265
     25 N           0.9945    0.6023    0.4707 N.ar    1  UNL1       -0.2309
     26 C           2.0496   -0.1156   -0.0237 C.ar    1  UNL1        0.1181
     27 C           3.3345   -0.1084    0.6570 C.3     1  UNL1        0.0182
     28 C           3.9641   -1.4288    1.0331 C.3     1  UNL1       -0.0393
     29 C           5.2947   -0.6604    0.9472 C.3     1  UNL1       -0.0270
     30 C           6.3571   -1.5491    0.4314 C.3     1  UNL1        0.0018
     31 N           7.6537   -0.9972    0.2892 N.3     1  UNL1       -0.3020
     32 C           7.8709    0.0018   -0.7196 C.3     1  UNL1        0.0001
     33 C           8.1604    1.0123    0.3570 C.3     1  UNL1       -0.0274
     34 C           8.1556   -0.1628    1.3424 C.3     1  UNL1        0.0001
     35 C           4.5811    0.2320   -0.0719 C.3     1  UNL1       -0.0393
     36 H          -2.0028    0.4125   -2.9004 H       1  UNL1        0.1438
     37 H          -2.3965   -1.3001   -2.6159 H       1  UNL1        0.1438
     38 H           2.1206   -2.6867   -3.7810 H       1  UNL1        0.0845
     39 H           3.2974   -1.8058   -1.8467 H       1  UNL1        0.0829
     40 H          -0.5510    3.0079   -0.0712 H       1  UNL1        0.0624
     41 H          -2.7510    4.1911    0.2975 H       1  UNL1        0.0624
     42 H          -5.1003    4.1272    0.5801 H       1  UNL1        0.0625
     43 H          -7.1488    2.7338    0.7200 H       1  UNL1        0.0639
     44 H          -6.1902   -1.7476    0.2200 H       1  UNL1        0.0624
     45 H          -8.1681   -3.2526    0.3599 H       1  UNL1        0.0618
     46 H         -10.4243   -2.3008    0.7399 H       1  UNL1        0.0618
     47 H         -10.6887    0.1289    0.9728 H       1  UNL1        0.0618
     48 H          -8.7687    1.5609    0.8333 H       1  UNL1        0.0624
     49 H          -2.5638   -0.7021   -0.1295 H       1  UNL1        0.0645
     50 H           3.3331    0.5129    1.6209 H       1  UNL1        0.0379
     51 H           3.7340   -1.7312    2.0850 H       1  UNL1        0.0275
     52 H           3.8899   -2.2602    0.3435 H       1  UNL1        0.0275
     53 H           5.4594   -0.1694    1.9181 H       1  UNL1        0.0313
     54 H           6.4279   -2.4974    1.0329 H       1  UNL1        0.0429
     55 H           6.0305   -1.8995   -0.5928 H       1  UNL1        0.0429
     56 H           7.0356    0.3025   -1.3477 H       1  UNL1        0.0427
     57 H           8.7723   -0.1512   -1.3518 H       1  UNL1        0.0427
     58 H           7.4010    1.7709    0.5381 H       1  UNL1        0.0290
     59 H           9.1725    1.4656    0.3279 H       1  UNL1        0.0290
     60 H           9.1547   -0.4239    1.7448 H       1  UNL1        0.0427
     61 H           7.4699    0.0801    2.1666 H       1  UNL1        0.0427
     62 H           4.9813    1.2627    0.1008 H       1  UNL1        0.0275
     63 H           4.7114   -0.1684   -1.0665 H       1  UNL1        0.0275
@<TRIPOS>BOND
     1     1     2    1
     2     2     3   ar
     3     3     4   ar
     4     4     5   ar
     5     5     6   ar
     6     6     7   ar
     7     7     8   ar
     8     8     9    1
     9     9    10   ar
    10    10    11   ar
    11    11    12   ar
    12    12    13   ar
    13    13    14   ar
    14    14    15   ar
    15    15    16    1
    16    16    17   ar
    17    17    18   ar
    18    18    19   ar
    19    19    20   ar
    20    20    21   ar
    21    15    22   ar
    22    22    23   ar
    23    23    24   ar
    24     8    25   ar
    25    25    26   ar
    26    26    27    1
    27    27    28    1
    28    28    29    1
    29    29    30    1
    30    30    31    1
    31    31    32    1
    32    32    33    1
    33    33    34    1
    34    29    35    1
    35     7     2   ar
    36    24     9   ar
    37    35    27    1
    38    26     6   ar
    39    34    31    1
    40    23    12   ar
    41    21    16   ar
    42     1    36    1
    43     1    37    1
    44     4    38    1
    45     5    39    1
    46    10    40    1
    47    11    41    1
    48    13    42    1
    49    14    43    1
    50    17    44    1
    51    18    45    1
    52    19    46    1
    53    20    47    1
    54    21    48    1
    55    24    49    1
    56    27    50    1
    57    28    51    1
    58    28    52    1
    59    29    53    1
    60    30    54    1
    61    30    55    1
    62    32    56    1
    63    32    57    1
    64    33    58    1
    65    33    59    1
    66    34    60    1
    67    34    61    1
    68    35    62    1
    69    35    63    1
