@<TRIPOS>MOLECULE
*****
 60 62 0 0 0
SMALL
GASTEIGER

@<TRIPOS>ATOM
      1 C          -6.4271   -4.4016    1.0672 C.3     1  UNL1       -0.0652
      2 C          -6.8792   -3.8101   -0.2493 C.3     1  UNL1       -0.0545
      3 C          -6.3700   -2.3840   -0.3082 C.3     1  UNL1       -0.0376
      4 C          -4.8583   -2.4507   -0.2158 C.3     1  UNL1        0.0118
      5 N          -4.3513   -1.0986   -0.2699 N.pl3   1  UNL1       -0.3134
      6 C          -2.9267   -0.8998   -0.1987 C.ar    1  UNL1        0.2169
      7 N          -2.1076   -1.9535   -0.0863 N.ar    1  UNL1       -0.2221
      8 C          -0.7812   -1.7892   -0.0201 C.ar    1  UNL1        0.0466
      9 C          -0.1721   -0.5137   -0.0632 C.ar    1  UNL1        0.0948
     10 C           1.2855   -0.4654   -0.1285 C.2     1  UNL1        0.2530
     11 O           1.9923    0.3601   -0.6978 O.2     1  UNL1       -0.2697
     12 N           2.0586   -1.4795    0.5450 N.am    1  UNL1       -0.2814
     13 C           3.4376   -1.5834    0.5871 C.ar    1  UNL1        0.0337
     14 C           4.3831   -0.8127   -0.0043 C.ar    1  UNL1       -0.0399
     15 C           5.7400   -1.0588    0.1582 C.ar    1  UNL1       -0.0484
     16 C           6.2007   -2.0968    0.9269 C.ar    1  UNL1        0.0549
     17 C           7.6556   -2.3461    1.0902 C.3     1  UNL1        0.4174
     18 F           7.8801   -2.9133    2.3493 F       1  UNL1       -0.1659
     19 F           8.3936   -1.1814    1.0644 F       1  UNL1       -0.1659
     20 F           8.1203   -3.2703    0.1714 F       1  UNL1       -0.1659
     21 C           5.2654   -2.9002    1.5424 C.ar    1  UNL1       -0.0484
     22 C           3.9340   -2.6513    1.3775 C.ar    1  UNL1       -0.0399
     23 C          -0.9944    0.5498   -0.1720 C.ar    1  UNL1        0.1363
     24 N          -0.6258    1.8915   -0.1049 N.pl3   1  UNL1       -0.3255
     25 C           0.5161    2.6921    0.1014 C.3     1  UNL1        0.0221
     26 C           1.2094    3.1642   -1.1274 C.3     1  UNL1       -0.0322
     27 C           0.9433    4.5408   -1.6057 C.3     1  UNL1       -0.0252
     28 C           0.5882    5.5786   -0.6181 C.3     1  UNL1        0.0554
     29 O           1.2908    6.7504   -0.8881 O.3     1  UNL1       -0.3918
     30 C           0.9591    5.0595    0.7764 C.3     1  UNL1       -0.0252
     31 C           0.0657    3.8807    0.9803 C.3     1  UNL1       -0.0322
     32 N          -2.3742    0.2948   -0.2384 N.ar    1  UNL1       -0.1990
     33 H          -7.1860   -5.1439    1.3899 H       1  UNL1        0.0230
     34 H          -5.4344   -4.8806    0.8815 H       1  UNL1        0.0230
     35 H          -6.3480   -3.5787    1.7961 H       1  UNL1        0.0230
     36 H          -6.5205   -4.3793   -1.1262 H       1  UNL1        0.0263
     37 H          -7.9937   -3.7836   -0.3062 H       1  UNL1        0.0263
     38 H          -6.7118   -1.9617   -1.2600 H       1  UNL1        0.0280
     39 H          -6.7392   -1.7680    0.5108 H       1  UNL1        0.0280
     40 H          -4.4394   -3.0684   -1.0647 H       1  UNL1        0.0462
     41 H          -4.5304   -2.9847    0.6977 H       1  UNL1        0.0462
     42 H          -5.0037   -0.2964   -0.3579 H       1  UNL1        0.1489
     43 H          -0.1114   -2.6293    0.0573 H       1  UNL1        0.0839
     44 H           1.4567   -2.1861    1.0557 H       1  UNL1        0.1551
     45 H           4.0884    0.0007   -0.6107 H       1  UNL1        0.0636
     46 H           6.4947   -0.4345   -0.3206 H       1  UNL1        0.0624
     47 H           5.6094   -3.7265    2.1547 H       1  UNL1        0.0624
     48 H           3.2564   -3.3302    1.8959 H       1  UNL1        0.0636
     49 H          -1.5195    2.5387   -0.2921 H       1  UNL1        0.1478
     50 H           1.2267    2.1832    0.7764 H       1  UNL1        0.0498
     51 H           0.8947    2.4762   -1.9667 H       1  UNL1        0.0284
     52 H           2.3090    3.0372   -1.0573 H       1  UNL1        0.0284
     53 H           1.8243    4.9157   -2.2011 H       1  UNL1        0.0291
     54 H           0.1140    4.5408   -2.3789 H       1  UNL1        0.0291
     55 H          -0.4859    5.8713   -0.6309 H       1  UNL1        0.0593
     56 H           0.8097    7.5538   -0.5898 H       1  UNL1        0.2098
     57 H           0.7575    5.8018    1.5485 H       1  UNL1        0.0291
     58 H           2.0335    4.7624    0.7029 H       1  UNL1        0.0291
     59 H          -0.9657    4.1624    0.6982 H       1  UNL1        0.0284
     60 H           0.0630    3.6057    2.0468 H       1  UNL1        0.0284
@<TRIPOS>BOND
     1     1     2    1
     2     2     3    1
     3     3     4    1
     4     4     5    1
     5     5     6    1
     6     6     7   ar
     7     7     8   ar
     8     8     9   ar
     9     9    10    1
    10    10    11    2
    11    10    12   am
    12    12    13    1
    13    13    14   ar
    14    14    15   ar
    15    15    16   ar
    16    16    17    1
    17    17    18    1
    18    17    19    1
    19    17    20    1
    20    16    21   ar
    21    21    22   ar
    22     9    23   ar
    23    23    24    1
    24    24    25    1
    25    25    26    1
    26    26    27    1
    27    27    28    1
    28    28    29    1
    29    28    30    1
    30    30    31    1
    31    23    32   ar
    32    32     6   ar
    33    22    13   ar
    34    31    25    1
    35     1    33    1
    36     1    34    1
    37     1    35    1
    38     2    36    1
    39     2    37    1
    40     3    38    1
    41     3    39    1
    42     4    40    1
    43     4    41    1
    44     5    42    1
    45     8    43    1
    46    12    44    1
    47    14    45    1
    48    15    46    1
    49    21    47    1
    50    22    48    1
    51    24    49    1
    52    25    50    1
    53    26    51    1
    54    26    52    1
    55    27    53    1
    56    27    54    1
    57    28    55    1
    58    29    56    1
    59    30    57    1
    60    30    58    1
    61    31    59    1
    62    31    60    1
