@<TRIPOS>MOLECULE
*****
 53 56 0 0 0
SMALL
GASTEIGER

@<TRIPOS>ATOM
      1 O           8.7415   -0.9410    0.5558 O.2     1  UNL1       -0.2687
      2 C           8.3141   -0.1206   -0.2949 C.2     1  UNL1        0.2593
      3 C           6.8509    0.0088   -0.4048 C.2     1  UNL1        0.0027
      4 C           6.0408   -0.6989    0.3503 C.2     1  UNL1       -0.0495
      5 C           4.5922   -0.6196    0.2918 C.ar    1  UNL1       -0.0221
      6 C           3.8233   -1.4262    1.1458 C.ar    1  UNL1       -0.0541
      7 C           2.4545   -1.3906    1.1152 C.ar    1  UNL1       -0.0541
      8 C           1.7679   -0.5598    0.2434 C.ar    1  UNL1        0.0016
      9 C           0.2823   -0.5300    0.1999 C.3     1  UNL1        0.0240
     10 N          -0.3229    0.5946    0.8203 N.3     1  UNL1       -0.3114
     11 C          -1.6053    0.4975    1.3380 C.3     1  UNL1        0.0019
     12 C          -2.8130    0.3172    0.4967 C.3     1  UNL1       -0.0160
     13 C          -3.9503    0.2732    1.5556 C.3     1  UNL1       -0.0433
     14 C          -5.2919    0.0798    0.9639 C.3     1  UNL1       -0.0400
     15 C          -5.6332    1.2287    0.0638 C.3     1  UNL1       -0.0473
     16 C          -4.5205    1.3042   -0.9807 C.3     1  UNL1       -0.0400
     17 C          -4.6076    0.0303   -1.7745 C.3     1  UNL1       -0.0473
     18 C          -4.2698   -1.1428   -0.8704 C.3     1  UNL1       -0.0400
     19 C          -5.2662   -1.2585    0.2330 C.3     1  UNL1       -0.0473
     20 C          -2.8786   -0.9258   -0.3194 C.3     1  UNL1       -0.0433
     21 C          -3.1674    1.5056   -0.3696 C.3     1  UNL1       -0.0433
     22 C           2.4928    0.2295   -0.5918 C.ar    1  UNL1        0.1283
     23 F           1.9056    1.0857   -1.4899 F       1  UNL1       -0.2051
     24 C           3.8913    0.1981   -0.5656 C.ar    1  UNL1       -0.0190
     25 N           9.1514    0.6621   -1.1268 N.am    1  UNL1       -0.1940
     26 O          10.4963    0.4666   -0.9501 O.3     1  UNL1       -0.2949
     27 H           6.4497    0.7044   -1.1261 H       1  UNL1        0.0670
     28 H           6.4924   -1.3772    1.0538 H       1  UNL1        0.0625
     29 H           4.3732   -2.0797    1.8302 H       1  UNL1        0.0624
     30 H           1.8724   -2.0059    1.7685 H       1  UNL1        0.0622
     31 H          -0.1144   -1.5124    0.4926 H       1  UNL1        0.0474
     32 H          -0.0009   -0.4410   -0.9084 H       1  UNL1        0.0474
     33 H          -0.0480    1.4717    0.3417 H       1  UNL1        0.1223
     34 H          -1.6190   -0.3423    2.0991 H       1  UNL1        0.0430
     35 H          -1.8064    1.4743    1.9057 H       1  UNL1        0.0430
     36 H          -3.7568   -0.5925    2.2499 H       1  UNL1        0.0274
     37 H          -3.8299    1.2119    2.1176 H       1  UNL1        0.0274
     38 H          -6.0116    0.0348    1.8155 H       1  UNL1        0.0301
     39 H          -6.5774    1.0328   -0.4947 H       1  UNL1        0.0271
     40 H          -5.6397    2.1378    0.6642 H       1  UNL1        0.0271
     41 H          -4.7078    2.1789   -1.6560 H       1  UNL1        0.0301
     42 H          -5.6957   -0.0993   -2.0468 H       1  UNL1        0.0271
     43 H          -4.0324    0.0479   -2.6996 H       1  UNL1        0.0271
     44 H          -4.2931   -2.0863   -1.4622 H       1  UNL1        0.0301
     45 H          -4.8721   -1.9938    0.9905 H       1  UNL1        0.0271
     46 H          -6.2706   -1.5475   -0.0714 H       1  UNL1        0.0271
     47 H          -2.5644   -1.8221    0.2117 H       1  UNL1        0.0274
     48 H          -2.2229   -0.8004   -1.2253 H       1  UNL1        0.0274
     49 H          -2.4558    1.6717   -1.1842 H       1  UNL1        0.0274
     50 H          -3.2474    2.3864    0.3315 H       1  UNL1        0.0274
     51 H           4.4543    0.8436   -1.2526 H       1  UNL1        0.0652
     52 H           8.7831    1.3499   -1.8339 H       1  UNL1        0.1825
     53 H          10.8630    1.2865   -0.5387 H       1  UNL1        0.2414
@<TRIPOS>BOND
     1     1     2    2
     2     2     3    1
     3     3     4    2
     4     4     5    1
     5     5     6   ar
     6     6     7   ar
     7     7     8   ar
     8     8     9    1
     9     9    10    1
    10    10    11    1
    11    11    12    1
    12    12    13    1
    13    13    14    1
    14    14    15    1
    15    15    16    1
    16    16    17    1
    17    17    18    1
    18    18    19    1
    19    18    20    1
    20    16    21    1
    21     8    22   ar
    22    22    23    1
    23    22    24   ar
    24     2    25   am
    25    25    26    1
    26    24     5   ar
    27    20    12    1
    28    21    12    1
    29    19    14    1
    30     3    27    1
    31     4    28    1
    32     6    29    1
    33     7    30    1
    34     9    31    1
    35     9    32    1
    36    10    33    1
    37    11    34    1
    38    11    35    1
    39    13    36    1
    40    13    37    1
    41    14    38    1
    42    15    39    1
    43    15    40    1
    44    16    41    1
    45    17    42    1
    46    17    43    1
    47    18    44    1
    48    19    45    1
    49    19    46    1
    50    20    47    1
    51    20    48    1
    52    21    49    1
    53    21    50    1
    54    24    51    1
    55    25    52    1
    56    26    53    1
