@<TRIPOS>MOLECULE
*****
 42 45 0 0 0
SMALL
GASTEIGER

@<TRIPOS>ATOM
      1 N           4.4696   -2.0279    2.7429 N.1     1  UNL1       -0.1892
      2 C           3.7062   -1.1835    2.9912 C.1     1  UNL1        0.1208
      3 C           2.7781   -0.1325    3.3151 C.ar    1  UNL1        0.1618
      4 C           2.6895    0.6124    4.4369 C.ar    1  UNL1        0.0659
      5 N           1.7273    1.5153    4.2213 N.ar    1  UNL1       -0.2333
      6 C           1.2262    1.3250    2.9690 C.ar    1  UNL1        0.1555
      7 C           0.2774    1.9899    2.2486 C.ar    1  UNL1       -0.0153
      8 C           0.0197    1.5520    0.9448 C.ar    1  UNL1       -0.0290
      9 C           0.6688    0.4986    0.3588 C.ar    1  UNL1        0.1103
     10 C           0.5000   -0.0016   -0.9869 C.ar    1  UNL1        0.0968
     11 C          -0.6562   -0.2556   -1.6553 C.ar    1  UNL1        0.0990
     12 C          -2.0351    0.0081   -1.2473 C.ar    1  UNL1        0.0146
     13 C          -2.5967    1.2617   -1.4093 C.ar    1  UNL1       -0.0518
     14 C          -3.9020    1.5532   -1.0097 C.ar    1  UNL1       -0.0611
     15 C          -4.6813    0.5727   -0.4320 C.ar    1  UNL1       -0.0610
     16 C          -4.1372   -0.6809   -0.2694 C.ar    1  UNL1       -0.0490
     17 C          -2.8391   -0.9536   -0.6697 C.ar    1  UNL1        0.0457
     18 C          -2.3040   -2.3160   -0.4824 C.2     1  UNL1        0.2422
     19 N          -3.1273   -3.3631   -0.0691 N.am    1  UNL1       -0.3253
     20 O          -1.0635   -2.4544   -0.7283 O.2     1  UNL1       -0.2704
     21 N          -0.2926   -0.8127   -2.8840 N.ar    1  UNL1       -0.2350
     22 C           1.0309   -0.8751   -2.9211 C.ar    1  UNL1        0.0973
     23 N           1.5297   -0.3976   -1.8056 N.ar    1  UNL1       -0.3229
     24 C           2.9134   -0.2533   -1.4824 C.3     1  UNL1        0.0852
     25 C           3.3977    1.0407   -2.1661 C.3     1  UNL1        0.2569
     26 F           3.2643    0.9763   -3.5270 F       1  UNL1       -0.2073
     27 F           4.6741    1.2684   -1.7562 F       1  UNL1       -0.2073
     28 N           1.6006   -0.0904    1.1712 N.ar    1  UNL1       -0.1623
     29 N           1.8653    0.2999    2.3871 N.ar    1  UNL1       -0.2023
     30 H           3.3038    0.5070    5.3611 H       1  UNL1        0.0859
     31 H          -0.2771    2.8179    2.6477 H       1  UNL1        0.0655
     32 H          -0.7230    2.1409    0.4257 H       1  UNL1        0.0641
     33 H          -2.0479    2.0843   -1.8619 H       1  UNL1        0.0624
     34 H          -4.3244    2.5467   -1.1419 H       1  UNL1        0.0618
     35 H          -5.7088    0.7854   -0.1065 H       1  UNL1        0.0618
     36 H          -4.7969   -1.4228    0.1906 H       1  UNL1        0.0625
     37 H          -3.2965   -3.6816    0.9113 H       1  UNL1        0.1453
     38 H          -3.6557   -3.9049   -0.8212 H       1  UNL1        0.1453
     39 H           1.5339   -1.2759   -3.8098 H       1  UNL1        0.1029
     40 H           3.4972   -1.0736   -1.8561 H       1  UNL1        0.0548
     41 H           3.0913   -0.0492   -0.3971 H       1  UNL1        0.0548
     42 H           2.7003    1.8498   -1.8272 H       1  UNL1        0.1037
@<TRIPOS>BOND
     1     1     2    3
     2     2     3    1
     3     3     4   ar
     4     4     5   ar
     5     5     6   ar
     6     6     7   ar
     7     7     8   ar
     8     8     9   ar
     9     9    10    1
    10    10    11   ar
    11    11    12    1
    12    12    13   ar
    13    13    14   ar
    14    14    15   ar
    15    15    16   ar
    16    16    17   ar
    17    17    18    1
    18    18    19   am
    19    18    20    2
    20    11    21   ar
    21    21    22   ar
    22    22    23   ar
    23    23    24    1
    24    24    25    1
    25    25    26    1
    26    25    27    1
    27     9    28   ar
    28    28    29   ar
    29    29     3   ar
    30    29     6   ar
    31    23    10   ar
    32    17    12   ar
    33     4    30    1
    34     7    31    1
    35     8    32    1
    36    13    33    1
    37    14    34    1
    38    15    35    1
    39    16    36    1
    40    19    37    1
    41    19    38    1
    42    22    39    1
    43    24    40    1
    44    24    41    1
    45    25    42    1
