
     RDKit          3D

 42 45  0  0  0  0  0  0  0  0999 V2000
    4.4696   -2.0279    2.7429 N   0  0  0  0  0  0  0  0  0  0  0  0
    3.7062   -1.1835    2.9912 C   0  0  0  0  0  0  0  0  0  0  0  0
    2.7781   -0.1325    3.3151 C   0  0  0  0  0  0  0  0  0  0  0  0
    2.6895    0.6124    4.4369 C   0  0  0  0  0  0  0  0  0  0  0  0
    1.7273    1.5153    4.2213 N   0  0  0  0  0  0  0  0  0  0  0  0
    1.2262    1.3250    2.9690 C   0  0  0  0  0  0  0  0  0  0  0  0
    0.2774    1.9899    2.2486 C   0  0  0  0  0  0  0  0  0  0  0  0
    0.0197    1.5520    0.9448 C   0  0  0  0  0  0  0  0  0  0  0  0
    0.6688    0.4986    0.3588 C   0  0  0  0  0  0  0  0  0  0  0  0
    0.5000   -0.0016   -0.9869 C   0  0  0  0  0  0  0  0  0  0  0  0
   -0.6562   -0.2556   -1.6553 C   0  0  0  0  0  0  0  0  0  0  0  0
   -2.0351    0.0081   -1.2473 C   0  0  0  0  0  0  0  0  0  0  0  0
   -2.5967    1.2617   -1.4093 C   0  0  0  0  0  0  0  0  0  0  0  0
   -3.9020    1.5532   -1.0097 C   0  0  0  0  0  0  0  0  0  0  0  0
   -4.6813    0.5727   -0.4320 C   0  0  0  0  0  0  0  0  0  0  0  0
   -4.1372   -0.6809   -0.2694 C   0  0  0  0  0  0  0  0  0  0  0  0
   -2.8391   -0.9536   -0.6697 C   0  0  0  0  0  0  0  0  0  0  0  0
   -2.3040   -2.3160   -0.4824 C   0  0  0  0  0  0  0  0  0  0  0  0
   -3.1273   -3.3631   -0.0691 N   0  0  0  0  0  0  0  0  0  0  0  0
   -1.0635   -2.4544   -0.7283 O   0  0  0  0  0  0  0  0  0  0  0  0
   -0.2926   -0.8127   -2.8840 N   0  0  0  0  0  0  0  0  0  0  0  0
    1.0309   -0.8751   -2.9211 C   0  0  0  0  0  0  0  0  0  0  0  0
    1.5297   -0.3976   -1.8056 N   0  0  0  0  0  0  0  0  0  0  0  0
    2.9134   -0.2533   -1.4824 C   0  0  0  0  0  0  0  0  0  0  0  0
    3.3977    1.0407   -2.1661 C   0  0  0  0  0  0  0  0  0  0  0  0
    3.2643    0.9763   -3.5270 F   0  0  0  0  0  0  0  0  0  0  0  0
    4.6741    1.2684   -1.7562 F   0  0  0  0  0  0  0  0  0  0  0  0
    1.6006   -0.0904    1.1712 N   0  0  0  0  0  0  0  0  0  0  0  0
    1.8653    0.2999    2.3871 N   0  0  0  0  0  0  0  0  0  0  0  0
    3.3038    0.5070    5.3611 H   0  0  0  0  0  0  0  0  0  0  0  0
   -0.2771    2.8179    2.6477 H   0  0  0  0  0  0  0  0  0  0  0  0
   -0.7230    2.1409    0.4257 H   0  0  0  0  0  0  0  0  0  0  0  0
   -2.0479    2.0843   -1.8619 H   0  0  0  0  0  0  0  0  0  0  0  0
   -4.3244    2.5467   -1.1419 H   0  0  0  0  0  0  0  0  0  0  0  0
   -5.7088    0.7854   -0.1065 H   0  0  0  0  0  0  0  0  0  0  0  0
   -4.7969   -1.4228    0.1906 H   0  0  0  0  0  0  0  0  0  0  0  0
   -3.2965   -3.6816    0.9113 H   0  0  0  0  0  0  0  0  0  0  0  0
   -3.6557   -3.9049   -0.8212 H   0  0  0  0  0  0  0  0  0  0  0  0
    1.5339   -1.2759   -3.8098 H   0  0  0  0  0  0  0  0  0  0  0  0
    3.4972   -1.0736   -1.8561 H   0  0  0  0  0  0  0  0  0  0  0  0
    3.0913   -0.0492   -0.3971 H   0  0  0  0  0  0  0  0  0  0  0  0
    2.7003    1.8498   -1.8272 H   0  0  0  0  0  0  0  0  0  0  0  0
  1  2  3  0
  2  3  1  0
  3  4  2  0
  4  5  1  0
  5  6  2  0
  6  7  1  0
  7  8  2  0
  8  9  1  0
  9 10  1  0
 10 11  2  0
 11 12  1  0
 12 13  2  0
 13 14  1  0
 14 15  2  0
 15 16  1  0
 16 17  2  0
 17 18  1  0
 18 19  1  0
 18 20  2  0
 11 21  1  0
 21 22  2  0
 22 23  1  0
 23 24  1  0
 24 25  1  0
 25 26  1  0
 25 27  1  0
  9 28  2  0
 28 29  1  0
 29  3  1  0
 29  6  1  0
 23 10  1  0
 17 12  1  0
  4 30  1  0
  7 31  1  0
  8 32  1  0
 13 33  1  0
 14 34  1  0
 15 35  1  0
 16 36  1  0
 19 37  1  0
 19 38  1  0
 22 39  1  0
 24 40  1  0
 24 41  1  0
 25 42  1  0
M  END
$$$$
