@<TRIPOS>MOLECULE
*****
 73 77 0 0 0
SMALL
GASTEIGER

@<TRIPOS>ATOM
      1 C           9.9298   -2.5800   -2.1151 C.3     1  UNL1        0.0805
      2 O           8.7929   -2.4315   -1.3135 O.3     1  UNL1       -0.4774
      3 C           8.2728   -1.1598   -1.0479 C.ar    1  UNL1        0.2552
      4 N           8.7690   -0.0015   -1.5004 N.ar    1  UNL1       -0.1317
      5 N           7.9841    0.9779   -1.0202 N.ar    1  UNL1       -0.2692
      6 C           8.2507    2.3587   -1.3321 C.3     1  UNL1        0.0304
      7 C           7.0104    0.4494   -0.2778 C.ar    1  UNL1        0.0503
      8 C           7.1466   -0.9176   -0.2615 C.ar    1  UNL1        0.1152
      9 N           6.3674   -1.9157    0.3636 N.pl3   1  UNL1       -0.2782
     10 C           5.2403   -1.6619    1.1667 C.ar    1  UNL1        0.2202
     11 N           5.3980   -1.6167    2.5018 N.ar    1  UNL1       -0.2224
     12 C           4.3708   -1.3978    3.3506 C.ar    1  UNL1        0.0361
     13 C           3.1191   -1.2168    2.7802 C.ar    1  UNL1       -0.0062
     14 C           1.9617   -0.9755    3.6717 C.3     1  UNL1       -0.0362
     15 C           2.9156   -1.2547    1.4235 C.ar    1  UNL1        0.0809
     16 C           1.6187   -1.0562    0.7937 C.ar    1  UNL1        0.0258
     17 C           0.4775   -1.8402    0.9747 C.ar    1  UNL1        0.0120
     18 N          -0.5135   -1.3627    0.1978 N.ar    1  UNL1       -0.3586
     19 C          -0.0853   -0.2944   -0.4935 C.ar    1  UNL1        0.0686
     20 C          -0.7308    0.5358   -1.4075 C.ar    1  UNL1        0.0576
     21 N          -2.0708    0.2541   -1.7477 N.am    1  UNL1       -0.2825
     22 C          -3.2268    0.7051   -1.0672 C.2     1  UNL1        0.2342
     23 O          -3.0700    1.4277   -0.0552 O.2     1  UNL1       -0.2738
     24 C          -4.5734    0.3377   -1.5290 C.3     1  UNL1        0.0848
     25 C          -4.6077   -1.1513   -1.8190 C.3     1  UNL1       -0.0409
     26 N          -5.6457    0.7006   -0.7227 N.3     1  UNL1       -0.2890
     27 C          -5.8956    2.0465   -0.4071 C.3     1  UNL1        0.0124
     28 C          -6.6176    2.2055    0.9103 C.3     1  UNL1        0.0117
     29 N          -7.6930    1.2984    1.1259 N.3     1  UNL1       -0.3002
     30 C          -7.8561    1.0617    2.5691 C.3     1  UNL1       -0.0124
     31 C          -7.5016   -0.0189    0.5507 C.3     1  UNL1        0.0201
     32 C          -8.1920   -0.0190   -0.8006 C.3     1  UNL1       -0.0483
     33 C          -6.0118   -0.1976    0.3297 C.3     1  UNL1        0.0150
     34 C           0.0218    1.5672   -1.9280 C.ar    1  UNL1       -0.0384
     35 C           1.3357    1.8063   -1.5994 C.ar    1  UNL1       -0.0593
     36 C           1.9493    0.9509   -0.6797 C.ar    1  UNL1       -0.0518
     37 C           1.2275   -0.0969   -0.1335 C.ar    1  UNL1        0.0107
     38 N           4.0016   -1.4790    0.6614 N.ar    1  UNL1       -0.2139
     39 H           9.8215   -3.4290   -2.8312 H       1  UNL1        0.0660
     40 H          10.1566   -1.6845   -2.7330 H       1  UNL1        0.0660
     41 H          10.8450   -2.8095   -1.5173 H       1  UNL1        0.0660
     42 H           7.6837    3.0085   -0.6584 H       1  UNL1        0.0473
     43 H           7.9876    2.5734   -2.3939 H       1  UNL1        0.0473
     44 H           9.3306    2.5691   -1.2086 H       1  UNL1        0.0473
     45 H           6.2370    1.0290    0.2279 H       1  UNL1        0.0846
     46 H           6.6281   -2.9295    0.2348 H       1  UNL1        0.1552
     47 H           4.4509   -1.3551    4.4123 H       1  UNL1        0.0834
     48 H           1.1026   -0.6065    3.0899 H       1  UNL1        0.0279
     49 H           2.1842   -0.1817    4.4300 H       1  UNL1        0.0279
     50 H           1.6731   -1.9268    4.1552 H       1  UNL1        0.0279
     51 H           0.4202   -2.7054    1.6500 H       1  UNL1        0.0814
     52 H          -1.4790   -1.7493    0.1280 H       1  UNL1        0.1654
     53 H          -2.2501   -0.3583   -2.5989 H       1  UNL1        0.1549
     54 H          -4.6989    0.8292   -2.5311 H       1  UNL1        0.0556
     55 H          -5.6438   -1.4745   -1.9355 H       1  UNL1        0.0249
     56 H          -4.0624   -1.3180   -2.7820 H       1  UNL1        0.0249
     57 H          -4.0591   -1.7340   -1.0544 H       1  UNL1        0.0249
     58 H          -6.5359    2.5033   -1.2120 H       1  UNL1        0.0439
     59 H          -5.0011    2.7066   -0.3584 H       1  UNL1        0.0439
     60 H          -7.0619    3.2446    0.9001 H       1  UNL1        0.0439
     61 H          -5.8921    2.2370    1.7648 H       1  UNL1        0.0439
     62 H          -7.7724    1.9801    3.1558 H       1  UNL1        0.0391
     63 H          -8.8324    0.5459    2.6783 H       1  UNL1        0.0391
     64 H          -7.0929    0.2819    2.8279 H       1  UNL1        0.0391
     65 H          -7.9130   -0.8307    1.1952 H       1  UNL1        0.0472
     66 H          -9.0586    0.6760   -0.8239 H       1  UNL1        0.0245
     67 H          -8.6118   -1.0206   -1.0522 H       1  UNL1        0.0245
     68 H          -7.5070    0.3203   -1.6212 H       1  UNL1        0.0245
     69 H          -5.7601   -1.2451    0.1372 H       1  UNL1        0.0442
     70 H          -5.5134    0.1526    1.2807 H       1  UNL1        0.0442
     71 H          -0.4992    2.2180   -2.6487 H       1  UNL1        0.0637
     72 H           1.8866    2.6262   -2.0313 H       1  UNL1        0.0618
     73 H           2.9679    1.0909   -0.3890 H       1  UNL1        0.0624
@<TRIPOS>BOND
     1     1     2    1
     2     2     3    1
     3     3     4   ar
     4     4     5   ar
     5     5     6    1
     6     5     7   ar
     7     7     8   ar
     8     8     9    1
     9     9    10    1
    10    10    11   ar
    11    11    12   ar
    12    12    13   ar
    13    13    14    1
    14    13    15   ar
    15    15    16    1
    16    16    17   ar
    17    17    18   ar
    18    18    19   ar
    19    19    20   ar
    20    20    21    1
    21    21    22   am
    22    22    23    2
    23    22    24    1
    24    24    25    1
    25    24    26    1
    26    26    27    1
    27    27    28    1
    28    28    29    1
    29    29    30    1
    30    29    31    1
    31    31    32    1
    32    31    33    1
    33    20    34   ar
    34    34    35   ar
    35    35    36   ar
    36    36    37   ar
    37    15    38   ar
    38     8     3   ar
    39    38    10   ar
    40    37    16   ar
    41    37    19   ar
    42    33    26    1
    43     1    39    1
    44     1    40    1
    45     1    41    1
    46     6    42    1
    47     6    43    1
    48     6    44    1
    49     7    45    1
    50     9    46    1
    51    12    47    1
    52    14    48    1
    53    14    49    1
    54    14    50    1
    55    17    51    1
    56    18    52    1
    57    21    53    1
    58    24    54    1
    59    25    55    1
    60    25    56    1
    61    25    57    1
    62    27    58    1
    63    27    59    1
    64    28    60    1
    65    28    61    1
    66    30    62    1
    67    30    63    1
    68    30    64    1
    69    31    65    1
    70    32    66    1
    71    32    67    1
    72    32    68    1
    73    33    69    1
    74    33    70    1
    75    34    71    1
    76    35    72    1
    77    36    73    1
