
     RDKit          3D

 73 77  0  0  0  0  0  0  0  0999 V2000
    9.9298   -2.5800   -2.1151 C   0  0  0  0  0  0  0  0  0  0  0  0
    8.7929   -2.4315   -1.3135 O   0  0  0  0  0  0  0  0  0  0  0  0
    8.2728   -1.1598   -1.0479 C   0  0  0  0  0  0  0  0  0  0  0  0
    8.7690   -0.0015   -1.5004 N   0  0  0  0  0  0  0  0  0  0  0  0
    7.9841    0.9779   -1.0202 N   0  0  0  0  0  0  0  0  0  0  0  0
    8.2507    2.3587   -1.3321 C   0  0  0  0  0  0  0  0  0  0  0  0
    7.0104    0.4494   -0.2778 C   0  0  0  0  0  0  0  0  0  0  0  0
    7.1466   -0.9176   -0.2615 C   0  0  0  0  0  0  0  0  0  0  0  0
    6.3674   -1.9157    0.3636 N   0  0  0  0  0  0  0  0  0  0  0  0
    5.2403   -1.6619    1.1667 C   0  0  0  0  0  0  0  0  0  0  0  0
    5.3980   -1.6167    2.5018 N   0  0  0  0  0  0  0  0  0  0  0  0
    4.3708   -1.3978    3.3506 C   0  0  0  0  0  0  0  0  0  0  0  0
    3.1191   -1.2168    2.7802 C   0  0  0  0  0  0  0  0  0  0  0  0
    1.9617   -0.9755    3.6717 C   0  0  0  0  0  0  0  0  0  0  0  0
    2.9156   -1.2547    1.4235 C   0  0  0  0  0  0  0  0  0  0  0  0
    1.6187   -1.0562    0.7937 C   0  0  0  0  0  0  0  0  0  0  0  0
    0.4775   -1.8402    0.9747 C   0  0  0  0  0  0  0  0  0  0  0  0
   -0.5135   -1.3627    0.1978 N   0  0  0  0  0  0  0  0  0  0  0  0
   -0.0853   -0.2944   -0.4935 C   0  0  0  0  0  0  0  0  0  0  0  0
   -0.7308    0.5358   -1.4075 C   0  0  0  0  0  0  0  0  0  0  0  0
   -2.0708    0.2541   -1.7477 N   0  0  0  0  0  0  0  0  0  0  0  0
   -3.2268    0.7051   -1.0672 C   0  0  0  0  0  0  0  0  0  0  0  0
   -3.0700    1.4277   -0.0552 O   0  0  0  0  0  0  0  0  0  0  0  0
   -4.5734    0.3377   -1.5290 C   0  0  1  0  0  0  0  0  0  0  0  0
   -4.6077   -1.1513   -1.8190 C   0  0  0  0  0  0  0  0  0  0  0  0
   -5.6457    0.7006   -0.7227 N   0  0  0  0  0  0  0  0  0  0  0  0
   -5.8956    2.0465   -0.4071 C   0  0  0  0  0  0  0  0  0  0  0  0
   -6.6176    2.2055    0.9103 C   0  0  0  0  0  0  0  0  0  0  0  0
   -7.6930    1.2984    1.1259 N   0  0  0  0  0  0  0  0  0  0  0  0
   -7.8561    1.0617    2.5691 C   0  0  0  0  0  0  0  0  0  0  0  0
   -7.5016   -0.0189    0.5507 C   0  0  1  0  0  0  0  0  0  0  0  0
   -8.1920   -0.0190   -0.8006 C   0  0  0  0  0  0  0  0  0  0  0  0
   -6.0118   -0.1976    0.3297 C   0  0  0  0  0  0  0  0  0  0  0  0
    0.0218    1.5672   -1.9280 C   0  0  0  0  0  0  0  0  0  0  0  0
    1.3357    1.8063   -1.5994 C   0  0  0  0  0  0  0  0  0  0  0  0
    1.9493    0.9509   -0.6797 C   0  0  0  0  0  0  0  0  0  0  0  0
    1.2275   -0.0969   -0.1335 C   0  0  0  0  0  0  0  0  0  0  0  0
    4.0016   -1.4790    0.6614 N   0  0  0  0  0  0  0  0  0  0  0  0
    9.8215   -3.4290   -2.8312 H   0  0  0  0  0  0  0  0  0  0  0  0
   10.1566   -1.6845   -2.7330 H   0  0  0  0  0  0  0  0  0  0  0  0
   10.8450   -2.8095   -1.5173 H   0  0  0  0  0  0  0  0  0  0  0  0
    7.6837    3.0085   -0.6584 H   0  0  0  0  0  0  0  0  0  0  0  0
    7.9876    2.5734   -2.3939 H   0  0  0  0  0  0  0  0  0  0  0  0
    9.3306    2.5691   -1.2086 H   0  0  0  0  0  0  0  0  0  0  0  0
    6.2370    1.0290    0.2279 H   0  0  0  0  0  0  0  0  0  0  0  0
    6.6281   -2.9295    0.2348 H   0  0  0  0  0  0  0  0  0  0  0  0
    4.4509   -1.3551    4.4123 H   0  0  0  0  0  0  0  0  0  0  0  0
    1.1026   -0.6065    3.0899 H   0  0  0  0  0  0  0  0  0  0  0  0
    2.1842   -0.1817    4.4300 H   0  0  0  0  0  0  0  0  0  0  0  0
    1.6731   -1.9268    4.1552 H   0  0  0  0  0  0  0  0  0  0  0  0
    0.4202   -2.7054    1.6500 H   0  0  0  0  0  0  0  0  0  0  0  0
   -1.4790   -1.7493    0.1280 H   0  0  0  0  0  0  0  0  0  0  0  0
   -2.2501   -0.3583   -2.5989 H   0  0  0  0  0  0  0  0  0  0  0  0
   -4.6989    0.8292   -2.5311 H   0  0  0  0  0  0  0  0  0  0  0  0
   -5.6438   -1.4745   -1.9355 H   0  0  0  0  0  0  0  0  0  0  0  0
   -4.0624   -1.3180   -2.7820 H   0  0  0  0  0  0  0  0  0  0  0  0
   -4.0591   -1.7340   -1.0544 H   0  0  0  0  0  0  0  0  0  0  0  0
   -6.5359    2.5033   -1.2120 H   0  0  0  0  0  0  0  0  0  0  0  0
   -5.0011    2.7066   -0.3584 H   0  0  0  0  0  0  0  0  0  0  0  0
   -7.0619    3.2446    0.9001 H   0  0  0  0  0  0  0  0  0  0  0  0
   -5.8921    2.2370    1.7648 H   0  0  0  0  0  0  0  0  0  0  0  0
   -7.7724    1.9801    3.1558 H   0  0  0  0  0  0  0  0  0  0  0  0
   -8.8324    0.5459    2.6783 H   0  0  0  0  0  0  0  0  0  0  0  0
   -7.0929    0.2819    2.8279 H   0  0  0  0  0  0  0  0  0  0  0  0
   -7.9130   -0.8307    1.1952 H   0  0  0  0  0  0  0  0  0  0  0  0
   -9.0586    0.6760   -0.8239 H   0  0  0  0  0  0  0  0  0  0  0  0
   -8.6118   -1.0206   -1.0522 H   0  0  0  0  0  0  0  0  0  0  0  0
   -7.5070    0.3203   -1.6212 H   0  0  0  0  0  0  0  0  0  0  0  0
   -5.7601   -1.2451    0.1372 H   0  0  0  0  0  0  0  0  0  0  0  0
   -5.5134    0.1526    1.2807 H   0  0  0  0  0  0  0  0  0  0  0  0
   -0.4992    2.2180   -2.6487 H   0  0  0  0  0  0  0  0  0  0  0  0
    1.8866    2.6262   -2.0313 H   0  0  0  0  0  0  0  0  0  0  0  0
    2.9679    1.0909   -0.3890 H   0  0  0  0  0  0  0  0  0  0  0  0
  1  2  1  0
  2  3  1  0
  3  4  2  0
  4  5  1  0
  5  6  1  0
  5  7  1  0
  7  8  2  0
  8  9  1  0
  9 10  1  0
 10 11  2  0
 11 12  1  0
 12 13  2  0
 13 14  1  0
 13 15  1  0
 15 16  1  0
 16 17  2  0
 17 18  1  0
 18 19  1  0
 19 20  2  0
 20 21  1  0
 21 22  1  0
 22 23  2  0
 22 24  1  0
 24 25  1  0
 24 26  1  0
 26 27  1  0
 27 28  1  0
 28 29  1  0
 29 30  1  0
 29 31  1  0
 31 32  1  0
 31 33  1  0
 20 34  1  0
 34 35  2  0
 35 36  1  0
 36 37  2  0
 15 38  2  0
  8  3  1  0
 38 10  1  0
 37 16  1  0
 37 19  1  0
 33 26  1  0
  1 39  1  0
  1 40  1  0
  1 41  1  0
  6 42  1  0
  6 43  1  0
  6 44  1  0
  7 45  1  0
  9 46  1  0
 12 47  1  0
 14 48  1  0
 14 49  1  0
 14 50  1  0
 17 51  1  0
 18 52  1  0
 21 53  1  0
 24 54  1  6
 25 55  1  0
 25 56  1  0
 25 57  1  0
 27 58  1  0
 27 59  1  0
 28 60  1  0
 28 61  1  0
 30 62  1  0
 30 63  1  0
 30 64  1  0
 31 65  1  1
 32 66  1  0
 32 67  1  0
 32 68  1  0
 33 69  1  0
 33 70  1  0
 34 71  1  0
 35 72  1  0
 36 73  1  0
M  END
$$$$
