
     RDKit          3D

 23 23  0  0  0  0  0  0  0  0999 V2000
   -3.7550    0.5156   -1.0611 N   0  0  0  0  0  0  0  0  0  0  0  0
   -2.6925    0.4500   -0.0905 C   0  0  0  0  0  0  0  0  0  0  0  0
   -2.7765    1.4374    0.9546 N   0  0  0  0  0  0  0  0  0  0  0  0
   -2.1961   -0.5526   -0.7473 N   0  0  0  0  0  0  0  0  0  0  0  0
   -1.0090   -1.2324   -0.3556 C   0  0  0  0  0  0  0  0  0  0  0  0
   -1.0636   -2.4664   -0.1132 O   0  0  0  0  0  0  0  0  0  0  0  0
    0.2816   -0.5657   -0.2191 C   0  0  0  0  0  0  0  0  0  0  0  0
    1.3522   -1.3456    0.1684 C   0  0  0  0  0  0  0  0  0  0  0  0
    1.2801   -2.7528    0.4428 N   0  0  0  0  0  0  0  0  0  0  0  0
    2.5816   -0.7692    0.3105 N   0  0  0  0  0  0  0  0  0  0  0  0
    2.7312    0.5653    0.0676 C   0  0  0  0  0  0  0  0  0  0  0  0
    4.0430    1.1195    0.2317 N   0  0  0  0  0  0  0  0  0  0  0  0
    1.6353    1.3282   -0.3218 C   0  0  0  0  0  0  0  0  0  0  0  0
    1.9307    3.0239   -0.6082 Cl  0  0  0  0  0  0  0  0  0  0  0  0
    0.4293    0.7503   -0.4587 N   0  0  0  0  0  0  0  0  0  0  0  0
   -4.1352    0.8123   -2.0074 H   0  0  0  0  0  0  0  0  0  0  0  0
   -4.7308    0.1269   -0.9681 H   0  0  0  0  0  0  0  0  0  0  0  0
   -3.4729    0.9548    1.5812 H   0  0  0  0  0  0  0  0  0  0  0  0
   -2.0895    1.9996    0.4163 H   0  0  0  0  0  0  0  0  0  0  0  0
    1.1883   -2.9310    1.4662 H   0  0  0  0  0  0  0  0  0  0  0  0
    1.3505   -3.1168   -0.5522 H   0  0  0  0  0  0  0  0  0  0  0  0
    4.7447    0.9479   -0.4942 H   0  0  0  0  0  0  0  0  0  0  0  0
    4.3728    1.7007    1.0413 H   0  0  0  0  0  0  0  0  0  0  0  0
  1  2  1  0
  2  3  1  0
  2  4  2  3
  4  5  1  0
  5  6  2  0
  5  7  1  0
  7  8  2  0
  8  9  1  0
  8 10  1  0
 10 11  2  0
 11 12  1  0
 11 13  1  0
 13 14  1  0
 13 15  2  0
 15  7  1  0
  1 16  1  0
  1 17  1  0
  3 18  1  0
  3 19  1  0
  9 20  1  0
  9 21  1  0
 12 22  1  0
 12 23  1  0
M  END
$$$$
