
     RDKit          3D

 57 60  0  0  0  0  0  0  0  0999 V2000
   -4.6189   -1.0848    3.4274 C   0  0  0  0  0  0  0  0  0  0  0  0
   -5.6270   -0.5078    2.6282 O   0  0  0  0  0  0  0  0  0  0  0  0
   -5.4542   -0.3241    1.2721 C   0  0  0  0  0  0  0  0  0  0  0  0
   -4.3026   -0.6770    0.5939 C   0  0  0  0  0  0  0  0  0  0  0  0
   -4.1905   -0.4670   -0.7639 C   0  0  0  0  0  0  0  0  0  0  0  0
   -3.0243   -0.7963   -1.5064 N   0  0  0  0  0  0  0  0  0  0  0  0
   -1.7670   -1.2087   -0.9700 C   0  0  0  0  0  0  0  0  0  0  0  0
   -1.5673   -2.2669   -0.1674 N   0  0  0  0  0  0  0  0  0  0  0  0
   -0.3266   -2.5823    0.2936 C   0  0  0  0  0  0  0  0  0  0  0  0
    0.6697   -1.7357   -0.1313 C   0  0  0  0  0  0  0  0  0  0  0  0
    1.9033   -2.0495    0.3201 F   0  0  0  0  0  0  0  0  0  0  0  0
    0.5444   -0.6372   -0.9486 C   0  0  0  0  0  0  0  0  0  0  0  0
    1.5306    0.2538   -1.3936 N   0  0  0  0  0  0  0  0  0  0  0  0
    2.9124    0.3774   -1.1223 C   0  0  0  0  0  0  0  0  0  0  0  0
    3.6699    1.3475   -1.7565 C   0  0  0  0  0  0  0  0  0  0  0  0
    5.0105    1.5326   -1.5346 C   0  0  0  0  0  0  0  0  0  0  0  0
    5.6786    0.7300   -0.6382 C   0  0  0  0  0  0  0  0  0  0  0  0
    7.0316    0.9150   -0.4120 O   0  0  0  0  0  0  0  0  0  0  0  0
    7.8004    0.1533    0.4793 C   0  0  0  0  0  0  0  0  0  0  0  0
    8.2935    1.0609    1.5813 C   0  0  0  0  0  0  0  0  0  0  0  0
    8.9333   -0.4969   -0.2804 C   0  0  0  0  0  0  0  0  0  0  0  0
    6.9432   -0.8634    1.1378 C   0  0  0  0  0  0  0  0  0  0  0  0
    7.5537   -1.5873    1.9674 O   0  0  0  0  0  0  0  0  0  0  0  0
    5.5552   -1.0993    0.9389 N   0  0  0  0  0  0  0  0  0  0  0  0
    4.9348   -0.2353   -0.0044 C   0  0  0  0  0  0  0  0  0  0  0  0
    3.6557   -0.3432   -0.2769 N   0  0  0  0  0  0  0  0  0  0  0  0
   -0.7277   -0.4474   -1.3250 N   0  0  0  0  0  0  0  0  0  0  0  0
   -5.2482    0.1027   -1.4378 C   0  0  0  0  0  0  0  0  0  0  0  0
   -6.4174    0.4716   -0.8036 C   0  0  0  0  0  0  0  0  0  0  0  0
   -7.4604    1.0439   -1.5102 O   0  0  0  0  0  0  0  0  0  0  0  0
   -7.3304    1.2499   -2.8862 C   0  0  0  0  0  0  0  0  0  0  0  0
   -6.5225    0.2542    0.5757 C   0  0  0  0  0  0  0  0  0  0  0  0
   -7.6922    0.6105    1.2748 O   0  0  0  0  0  0  0  0  0  0  0  0
   -7.7302    1.9282    1.8111 C   0  0  0  0  0  0  0  0  0  0  0  0
   -3.5999   -0.7826    3.0921 H   0  0  0  0  0  0  0  0  0  0  0  0
   -4.7618   -2.1975    3.3950 H   0  0  0  0  0  0  0  0  0  0  0  0
   -4.7718   -0.8337    4.5109 H   0  0  0  0  0  0  0  0  0  0  0  0
   -3.4691   -1.1241    1.1083 H   0  0  0  0  0  0  0  0  0  0  0  0
   -3.0202   -0.7576   -2.5336 H   0  0  0  0  0  0  0  0  0  0  0  0
   -0.1485   -3.4202    0.9348 H   0  0  0  0  0  0  0  0  0  0  0  0
    1.1774    0.9897   -2.0779 H   0  0  0  0  0  0  0  0  0  0  0  0
    3.2223    2.0334   -2.4879 H   0  0  0  0  0  0  0  0  0  0  0  0
    5.5514    2.3206   -2.0710 H   0  0  0  0  0  0  0  0  0  0  0  0
    9.0092    1.8146    1.2490 H   0  0  0  0  0  0  0  0  0  0  0  0
    8.6622    0.4168    2.3995 H   0  0  0  0  0  0  0  0  0  0  0  0
    7.3611    1.5681    1.9660 H   0  0  0  0  0  0  0  0  0  0  0  0
    8.4678   -1.0003   -1.1502 H   0  0  0  0  0  0  0  0  0  0  0  0
    9.4477   -1.2811    0.3048 H   0  0  0  0  0  0  0  0  0  0  0  0
    9.5833    0.2983   -0.6473 H   0  0  0  0  0  0  0  0  0  0  0  0
    5.0584   -1.8537    1.4583 H   0  0  0  0  0  0  0  0  0  0  0  0
   -5.1545    0.2667   -2.5131 H   0  0  0  0  0  0  0  0  0  0  0  0
   -8.3586    1.4712   -3.2914 H   0  0  0  0  0  0  0  0  0  0  0  0
   -6.9714    0.3700   -3.4466 H   0  0  0  0  0  0  0  0  0  0  0  0
   -6.7092    2.1586   -3.1036 H   0  0  0  0  0  0  0  0  0  0  0  0
   -8.6867    2.1355    2.3171 H   0  0  0  0  0  0  0  0  0  0  0  0
   -7.6076    2.7055    1.0258 H   0  0  0  0  0  0  0  0  0  0  0  0
   -6.8950    2.0803    2.5496 H   0  0  0  0  0  0  0  0  0  0  0  0
  1  2  1  0
  2  3  1  0
  3  4  2  0
  4  5  1  0
  5  6  1  0
  6  7  1  0
  7  8  2  0
  8  9  1  0
  9 10  2  0
 10 11  1  0
 10 12  1  0
 12 13  1  0
 13 14  1  0
 14 15  2  0
 15 16  1  0
 16 17  2  0
 17 18  1  0
 18 19  1  0
 19 20  1  0
 19 21  1  0
 19 22  1  0
 22 23  2  0
 22 24  1  0
 24 25  1  0
 25 26  2  0
 12 27  2  0
  5 28  2  0
 28 29  1  0
 29 30  1  0
 30 31  1  0
 29 32  2  0
 32 33  1  0
 33 34  1  0
 32  3  1  0
 27  7  1  0
 26 14  1  0
 25 17  1  0
  1 35  1  0
  1 36  1  0
  1 37  1  0
  4 38  1  0
  6 39  1  0
  9 40  1  0
 13 41  1  0
 15 42  1  0
 16 43  1  0
 20 44  1  0
 20 45  1  0
 20 46  1  0
 21 47  1  0
 21 48  1  0
 21 49  1  0
 24 50  1  0
 28 51  1  0
 31 52  1  0
 31 53  1  0
 31 54  1  0
 34 55  1  0
 34 56  1  0
 34 57  1  0
M  END
$$$$
