@<TRIPOS>MOLECULE
*****
 57 60 0 0 0
SMALL
GASTEIGER

@<TRIPOS>ATOM
      1 C          -4.6189   -1.0848    3.4274 C.3     1  UNL1        0.0790
      2 O          -5.6270   -0.5078    2.6282 O.3     1  UNL1       -0.4913
      3 C          -5.4542   -0.3241    1.2721 C.ar    1  UNL1        0.1669
      4 C          -4.3026   -0.6770    0.5939 C.ar    1  UNL1        0.0052
      5 C          -4.1905   -0.4670   -0.7639 C.ar    1  UNL1        0.0407
      6 N          -3.0243   -0.7963   -1.5064 N.pl3   1  UNL1       -0.2833
      7 C          -1.7670   -1.2087   -0.9700 C.ar    1  UNL1        0.2213
      8 N          -1.5673   -2.2669   -0.1674 N.ar    1  UNL1       -0.2197
      9 C          -0.3266   -2.5823    0.2936 C.ar    1  UNL1        0.0698
     10 C           0.6697   -1.7357   -0.1313 C.ar    1  UNL1        0.1813
     11 F           1.9033   -2.0495    0.3201 F       1  UNL1       -0.2003
     12 C           0.5444   -0.6372   -0.9486 C.ar    1  UNL1        0.1647
     13 N           1.5306    0.2538   -1.3936 N.pl3   1  UNL1       -0.2819
     14 C           2.9124    0.3774   -1.1223 C.ar    1  UNL1        0.1264
     15 C           3.6699    1.3475   -1.7565 C.ar    1  UNL1       -0.0179
     16 C           5.0105    1.5326   -1.5346 C.ar    1  UNL1       -0.0132
     17 C           5.6786    0.7300   -0.6382 C.ar    1  UNL1        0.1620
     18 O           7.0316    0.9150   -0.4120 O.3     1  UNL1       -0.4736
     19 C           7.8004    0.1533    0.4793 C.3     1  UNL1        0.1805
     20 C           8.2935    1.0609    1.5813 C.3     1  UNL1       -0.0164
     21 C           8.9333   -0.4969   -0.2804 C.3     1  UNL1       -0.0164
     22 C           6.9432   -0.8634    1.1378 C.2     1  UNL1        0.2617
     23 O           7.5537   -1.5873    1.9674 O.2     1  UNL1       -0.2711
     24 N           5.5552   -1.0993    0.9389 N.am    1  UNL1       -0.2641
     25 C           4.9348   -0.2353   -0.0044 C.ar    1  UNL1        0.1692
     26 N           3.6557   -0.3432   -0.2769 N.ar    1  UNL1       -0.2133
     27 N          -0.7277   -0.4474   -1.3250 N.ar    1  UNL1       -0.1962
     28 C          -5.2482    0.1027   -1.4378 C.ar    1  UNL1        0.0052
     29 C          -6.4174    0.4716   -0.8036 C.ar    1  UNL1        0.1669
     30 O          -7.4604    1.0439   -1.5102 O.3     1  UNL1       -0.4913
     31 C          -7.3304    1.2499   -2.8862 C.3     1  UNL1        0.0790
     32 C          -6.5225    0.2542    0.5757 C.ar    1  UNL1        0.2036
     33 O          -7.6922    0.6105    1.2748 O.3     1  UNL1       -0.4885
     34 C          -7.7302    1.9282    1.8111 C.3     1  UNL1        0.0791
     35 H          -3.5999   -0.7826    3.0921 H       1  UNL1        0.0660
     36 H          -4.7618   -2.1975    3.3950 H       1  UNL1        0.0660
     37 H          -4.7718   -0.8337    4.5109 H       1  UNL1        0.0660
     38 H          -3.4691   -1.1241    1.1083 H       1  UNL1        0.0674
     39 H          -3.0202   -0.7576   -2.5336 H       1  UNL1        0.1550
     40 H          -0.1485   -3.4202    0.9348 H       1  UNL1        0.0861
     41 H           1.1774    0.9897   -2.0779 H       1  UNL1        0.1551
     42 H           3.2223    2.0334   -2.4879 H       1  UNL1        0.0653
     43 H           5.5514    2.3206   -2.0710 H       1  UNL1        0.0656
     44 H           9.0092    1.8146    1.2490 H       1  UNL1        0.0273
     45 H           8.6622    0.4168    2.3995 H       1  UNL1        0.0273
     46 H           7.3611    1.5681    1.9660 H       1  UNL1        0.0273
     47 H           8.4678   -1.0003   -1.1502 H       1  UNL1        0.0273
     48 H           9.4477   -1.2811    0.3048 H       1  UNL1        0.0273
     49 H           9.5833    0.2983   -0.6473 H       1  UNL1        0.0273
     50 H           5.0584   -1.8537    1.4583 H       1  UNL1        0.1565
     51 H          -5.1545    0.2667   -2.5131 H       1  UNL1        0.0674
     52 H          -8.3586    1.4712   -3.2914 H       1  UNL1        0.0660
     53 H          -6.9714    0.3700   -3.4466 H       1  UNL1        0.0660
     54 H          -6.7092    2.1586   -3.1036 H       1  UNL1        0.0660
     55 H          -8.6867    2.1355    2.3171 H       1  UNL1        0.0660
     56 H          -7.6076    2.7055    1.0258 H       1  UNL1        0.0660
     57 H          -6.8950    2.0803    2.5496 H       1  UNL1        0.0660
@<TRIPOS>BOND
     1     1     2    1
     2     2     3    1
     3     3     4   ar
     4     4     5   ar
     5     5     6    1
     6     6     7    1
     7     7     8   ar
     8     8     9   ar
     9     9    10   ar
    10    10    11    1
    11    10    12   ar
    12    12    13    1
    13    13    14    1
    14    14    15   ar
    15    15    16   ar
    16    16    17   ar
    17    17    18    1
    18    18    19    1
    19    19    20    1
    20    19    21    1
    21    19    22    1
    22    22    23    2
    23    22    24   am
    24    24    25    1
    25    25    26   ar
    26    12    27   ar
    27     5    28   ar
    28    28    29   ar
    29    29    30    1
    30    30    31    1
    31    29    32   ar
    32    32    33    1
    33    33    34    1
    34    32     3   ar
    35    27     7   ar
    36    26    14   ar
    37    25    17   ar
    38     1    35    1
    39     1    36    1
    40     1    37    1
    41     4    38    1
    42     6    39    1
    43     9    40    1
    44    13    41    1
    45    15    42    1
    46    16    43    1
    47    20    44    1
    48    20    45    1
    49    20    46    1
    50    21    47    1
    51    21    48    1
    52    21    49    1
    53    24    50    1
    54    28    51    1
    55    31    52    1
    56    31    53    1
    57    31    54    1
    58    34    55    1
    59    34    56    1
    60    34    57    1
