@<TRIPOS>MOLECULE
*****
 55 60 0 0 0
SMALL
GASTEIGER

@<TRIPOS>ATOM
      1 O           5.8772    2.1039   -0.3322 O.2     1  UNL1       -0.2700
      2 C           5.0296    1.1758   -0.1818 C.2     1  UNL1        0.2468
      3 C           3.6178    1.4648   -0.3576 C.ar    1  UNL1        0.0397
      4 C           2.9850    2.3542    0.4950 C.ar    1  UNL1       -0.0477
      5 C           1.6367    2.6482    0.3310 C.ar    1  UNL1       -0.0370
      6 C           0.8971    2.0673   -0.6746 C.ar    1  UNL1        0.0682
      7 N          -0.4543    2.3948   -0.8210 N.pl3   1  UNL1       -0.2943
      8 C          -1.5420    1.4934   -0.6989 C.ar    1  UNL1        0.1666
      9 N          -1.8215    0.6419   -1.6893 N.ar    1  UNL1       -0.2314
     10 C          -2.8574   -0.2324   -1.6060 C.ar    1  UNL1        0.0631
     11 C          -3.1415   -1.1912   -2.6921 C.3     1  UNL1        0.0029
     12 C          -4.3823   -2.0060   -2.7314 C.3     1  UNL1       -0.0441
     13 C          -4.3012   -0.7884   -3.6163 C.3     1  UNL1       -0.0441
     14 C          -3.6486   -0.2557   -0.4825 C.ar    1  UNL1        0.0335
     15 N          -3.4081    0.5766    0.5343 N.ar    1  UNL1       -0.2948
     16 C          -4.0198    0.7431    1.7181 C.ar    1  UNL1        0.0762
     17 C          -5.1551    0.0761    2.3425 C.ar    1  UNL1        0.0375
     18 C          -5.6342    0.3831    3.6319 C.ar    1  UNL1        0.0583
     19 N          -6.6743   -0.4088    3.8982 N.ar    1  UNL1       -0.1817
     20 N          -6.9177   -1.2116    2.8889 N.ar    1  UNL1       -0.2841
     21 C          -5.9949   -0.9192    1.9404 C.ar    1  UNL1        0.0315
     22 C          -3.2917    1.7707    2.3432 C.ar    1  UNL1        0.0545
     23 N          -2.3088    2.1554    1.5252 N.ar    1  UNL1       -0.2323
     24 C          -2.3581    1.4400    0.4124 C.ar    1  UNL1        0.1788
     25 C           1.5402    1.1885   -1.5098 C.ar    1  UNL1        0.1452
     26 F           0.8929    0.5727   -2.5217 F       1  UNL1       -0.2035
     27 C           2.8942    0.8844   -1.3582 C.ar    1  UNL1       -0.0125
     28 N           5.4521   -0.1154    0.1507 N.am    1  UNL1       -0.2932
     29 C           4.6175   -1.2630    0.3556 C.3     1  UNL1        0.0385
     30 C           5.2413   -2.5102   -0.2484 C.3     1  UNL1        0.0635
     31 O           6.5131   -2.7383    0.2693 O.3     1  UNL1       -0.3767
     32 C           6.9685   -1.6947    1.0695 C.3     1  UNL1        0.0635
     33 C           6.9015   -0.3651    0.3164 C.3     1  UNL1        0.0385
     34 H           3.5444    2.8083    1.2771 H       1  UNL1        0.0626
     35 H           1.2230    3.3568    1.0462 H       1  UNL1        0.0637
     36 H          -0.7039    3.4080   -1.0450 H       1  UNL1        0.1537
     37 H          -2.2547   -1.6227   -3.2470 H       1  UNL1        0.0364
     38 H          -5.1380   -2.0150   -1.9263 H       1  UNL1        0.0272
     39 H          -4.3691   -2.9948   -3.2700 H       1  UNL1        0.0272
     40 H          -4.8509    0.1262   -3.3425 H       1  UNL1        0.0272
     41 H          -4.0983   -0.9155   -4.6843 H       1  UNL1        0.0272
     42 H          -4.4770   -0.9405   -0.3908 H       1  UNL1        0.0832
     43 H          -5.2105    1.1437    4.2909 H       1  UNL1        0.0854
     44 H          -7.6813   -1.9487    2.8141 H       1  UNL1        0.1882
     45 H          -5.9846   -1.4428    1.0116 H       1  UNL1        0.0830
     46 H          -3.5305    2.1590    3.3386 H       1  UNL1        0.0852
     47 H           3.3849    0.1836   -2.0482 H       1  UNL1        0.0654
     48 H           3.6281   -1.1313   -0.1087 H       1  UNL1        0.0487
     49 H           4.4190   -1.4208    1.4572 H       1  UNL1        0.0487
     50 H           4.5378   -3.3515   -0.0695 H       1  UNL1        0.0575
     51 H           5.3161   -2.3514   -1.3424 H       1  UNL1        0.0575
     52 H           8.0203   -1.8803    1.3008 H       1  UNL1        0.0575
     53 H           6.3912   -1.5517    1.9983 H       1  UNL1        0.0575
     54 H           7.3847    0.3895    0.9382 H       1  UNL1        0.0487
     55 H           7.2962   -0.4427   -0.6990 H       1  UNL1        0.0487
@<TRIPOS>BOND
     1     1     2    2
     2     2     3    1
     3     3     4   ar
     4     4     5   ar
     5     5     6   ar
     6     6     7    1
     7     7     8    1
     8     8     9   ar
     9     9    10   ar
    10    10    11    1
    11    11    12    1
    12    12    13    1
    13    10    14   ar
    14    14    15   ar
    15    15    16   ar
    16    16    17    1
    17    17    18   ar
    18    18    19   ar
    19    19    20   ar
    20    20    21   ar
    21    16    22   ar
    22    22    23   ar
    23    23    24   ar
    24     6    25   ar
    25    25    26    1
    26    25    27   ar
    27     2    28   am
    28    28    29    1
    29    29    30    1
    30    30    31    1
    31    31    32    1
    32    32    33    1
    33    27     3   ar
    34    33    28    1
    35    24     8   ar
    36    13    11    1
    37    24    15   ar
    38    21    17   ar
    39     4    34    1
    40     5    35    1
    41     7    36    1
    42    11    37    1
    43    12    38    1
    44    12    39    1
    45    13    40    1
    46    13    41    1
    47    14    42    1
    48    18    43    1
    49    20    44    1
    50    21    45    1
    51    22    46    1
    52    27    47    1
    53    29    48    1
    54    29    49    1
    55    30    50    1
    56    30    51    1
    57    32    52    1
    58    32    53    1
    59    33    54    1
    60    33    55    1
