
     RDKit          3D

 55 60  0  0  0  0  0  0  0  0999 V2000
    5.8772    2.1039   -0.3322 O   0  0  0  0  0  0  0  0  0  0  0  0
    5.0296    1.1758   -0.1818 C   0  0  0  0  0  0  0  0  0  0  0  0
    3.6178    1.4648   -0.3576 C   0  0  0  0  0  0  0  0  0  0  0  0
    2.9850    2.3542    0.4950 C   0  0  0  0  0  0  0  0  0  0  0  0
    1.6367    2.6482    0.3310 C   0  0  0  0  0  0  0  0  0  0  0  0
    0.8971    2.0673   -0.6746 C   0  0  0  0  0  0  0  0  0  0  0  0
   -0.4543    2.3948   -0.8210 N   0  0  0  0  0  0  0  0  0  0  0  0
   -1.5420    1.4934   -0.6989 C   0  0  0  0  0  0  0  0  0  0  0  0
   -1.8215    0.6419   -1.6893 N   0  0  0  0  0  0  0  0  0  0  0  0
   -2.8574   -0.2324   -1.6060 C   0  0  0  0  0  0  0  0  0  0  0  0
   -3.1415   -1.1912   -2.6921 C   0  0  0  0  0  0  0  0  0  0  0  0
   -4.3823   -2.0060   -2.7314 C   0  0  0  0  0  0  0  0  0  0  0  0
   -4.3012   -0.7884   -3.6163 C   0  0  0  0  0  0  0  0  0  0  0  0
   -3.6486   -0.2557   -0.4825 C   0  0  0  0  0  0  0  0  0  0  0  0
   -3.4081    0.5766    0.5343 N   0  0  0  0  0  0  0  0  0  0  0  0
   -4.0198    0.7431    1.7181 C   0  0  0  0  0  0  0  0  0  0  0  0
   -5.1551    0.0761    2.3425 C   0  0  0  0  0  0  0  0  0  0  0  0
   -5.6342    0.3831    3.6319 C   0  0  0  0  0  0  0  0  0  0  0  0
   -6.6743   -0.4088    3.8982 N   0  0  0  0  0  0  0  0  0  0  0  0
   -6.9177   -1.2116    2.8889 N   0  0  0  0  0  0  0  0  0  0  0  0
   -5.9949   -0.9192    1.9404 C   0  0  0  0  0  0  0  0  0  0  0  0
   -3.2917    1.7707    2.3432 C   0  0  0  0  0  0  0  0  0  0  0  0
   -2.3088    2.1554    1.5252 N   0  0  0  0  0  0  0  0  0  0  0  0
   -2.3581    1.4400    0.4124 C   0  0  0  0  0  0  0  0  0  0  0  0
    1.5402    1.1885   -1.5098 C   0  0  0  0  0  0  0  0  0  0  0  0
    0.8929    0.5727   -2.5217 F   0  0  0  0  0  0  0  0  0  0  0  0
    2.8942    0.8844   -1.3582 C   0  0  0  0  0  0  0  0  0  0  0  0
    5.4521   -0.1154    0.1507 N   0  0  0  0  0  0  0  0  0  0  0  0
    4.6175   -1.2630    0.3556 C   0  0  0  0  0  0  0  0  0  0  0  0
    5.2413   -2.5102   -0.2484 C   0  0  0  0  0  0  0  0  0  0  0  0
    6.5131   -2.7383    0.2693 O   0  0  0  0  0  0  0  0  0  0  0  0
    6.9685   -1.6947    1.0695 C   0  0  0  0  0  0  0  0  0  0  0  0
    6.9015   -0.3651    0.3164 C   0  0  0  0  0  0  0  0  0  0  0  0
    3.5444    2.8083    1.2771 H   0  0  0  0  0  0  0  0  0  0  0  0
    1.2230    3.3568    1.0462 H   0  0  0  0  0  0  0  0  0  0  0  0
   -0.7039    3.4080   -1.0450 H   0  0  0  0  0  0  0  0  0  0  0  0
   -2.2547   -1.6227   -3.2470 H   0  0  0  0  0  0  0  0  0  0  0  0
   -5.1380   -2.0150   -1.9263 H   0  0  0  0  0  0  0  0  0  0  0  0
   -4.3691   -2.9948   -3.2700 H   0  0  0  0  0  0  0  0  0  0  0  0
   -4.8509    0.1262   -3.3425 H   0  0  0  0  0  0  0  0  0  0  0  0
   -4.0983   -0.9155   -4.6843 H   0  0  0  0  0  0  0  0  0  0  0  0
   -4.4770   -0.9405   -0.3908 H   0  0  0  0  0  0  0  0  0  0  0  0
   -5.2105    1.1437    4.2909 H   0  0  0  0  0  0  0  0  0  0  0  0
   -7.6813   -1.9487    2.8141 H   0  0  0  0  0  0  0  0  0  0  0  0
   -5.9846   -1.4428    1.0116 H   0  0  0  0  0  0  0  0  0  0  0  0
   -3.5305    2.1590    3.3386 H   0  0  0  0  0  0  0  0  0  0  0  0
    3.3849    0.1836   -2.0482 H   0  0  0  0  0  0  0  0  0  0  0  0
    3.6281   -1.1313   -0.1087 H   0  0  0  0  0  0  0  0  0  0  0  0
    4.4190   -1.4208    1.4572 H   0  0  0  0  0  0  0  0  0  0  0  0
    4.5378   -3.3515   -0.0695 H   0  0  0  0  0  0  0  0  0  0  0  0
    5.3161   -2.3514   -1.3424 H   0  0  0  0  0  0  0  0  0  0  0  0
    8.0203   -1.8803    1.3008 H   0  0  0  0  0  0  0  0  0  0  0  0
    6.3912   -1.5517    1.9983 H   0  0  0  0  0  0  0  0  0  0  0  0
    7.3847    0.3895    0.9382 H   0  0  0  0  0  0  0  0  0  0  0  0
    7.2962   -0.4427   -0.6990 H   0  0  0  0  0  0  0  0  0  0  0  0
  1  2  2  0
  2  3  1  0
  3  4  2  0
  4  5  1  0
  5  6  2  0
  6  7  1  0
  7  8  1  0
  8  9  2  0
  9 10  1  0
 10 11  1  0
 11 12  1  0
 12 13  1  0
 10 14  2  0
 14 15  1  0
 15 16  1  0
 16 17  1  0
 17 18  1  0
 18 19  2  0
 19 20  1  0
 20 21  1  0
 16 22  2  0
 22 23  1  0
 23 24  2  0
  6 25  1  0
 25 26  1  0
 25 27  2  0
  2 28  1  0
 28 29  1  0
 29 30  1  0
 30 31  1  0
 31 32  1  0
 32 33  1  0
 27  3  1  0
 33 28  1  0
 24  8  1  0
 13 11  1  0
 24 15  1  0
 21 17  2  0
  4 34  1  0
  5 35  1  0
  7 36  1  0
 11 37  1  0
 12 38  1  0
 12 39  1  0
 13 40  1  0
 13 41  1  0
 14 42  1  0
 18 43  1  0
 20 44  1  0
 21 45  1  0
 22 46  1  0
 27 47  1  0
 29 48  1  0
 29 49  1  0
 30 50  1  0
 30 51  1  0
 32 52  1  0
 32 53  1  0
 33 54  1  0
 33 55  1  0
M  END
$$$$
