@<TRIPOS>MOLECULE
*****
 53 54 0 0 0
SMALL
GASTEIGER

@<TRIPOS>ATOM
      1 C           7.4903    0.0067   -1.9497 C.3     1  UNL1        0.0705
      2 S           6.4110    1.2945   -1.4108 S.O2    1  UNL1        0.0266
      3 O           6.2753    2.3334   -2.4930 O.2     1  UNL1       -0.1585
      4 O           6.9806    1.9073   -0.1614 O.2     1  UNL1       -0.1585
      5 N           4.8527    0.6571   -1.0422 N.3     1  UNL1       -0.1932
      6 C           5.0113   -0.3009    0.0418 C.3     1  UNL1        0.0379
      7 C           3.6476   -0.8970    0.4064 C.3     1  UNL1        0.0958
      8 S           2.9508   -1.7222   -1.0044 S.O2    1  UNL1        0.0309
      9 O           2.7215   -0.7985   -2.1396 O.2     1  UNL1       -0.1582
     10 O           3.8149   -2.8890   -1.3864 O.2     1  UNL1       -0.1582
     11 N           1.4168   -2.3663   -0.5139 N.3     1  UNL1       -0.1914
     12 C           0.5114   -1.3247   -0.1047 C.3     1  UNL1        0.0288
     13 C           0.0709   -1.6023    1.3101 C.3     1  UNL1       -0.0356
     14 C          -1.2990   -2.2002    1.1319 C.3     1  UNL1       -0.0468
     15 C          -1.8984   -1.3532    0.0263 C.3     1  UNL1       -0.0158
     16 C          -2.2612   -0.0169    0.6356 C.3     1  UNL1        0.0854
     17 N          -3.2140   -0.3048    1.6903 N.3     1  UNL1       -0.3197
     18 C          -2.8206    0.9491   -0.2897 C.2     1  UNL1        0.2327
     19 O          -2.1722    1.2825   -1.3082 O.2     1  UNL1       -0.2739
     20 N          -4.1018    1.5391   -0.0746 N.am    1  UNL1       -0.3002
     21 C          -4.6945    2.5068   -1.0193 C.3     1  UNL1        0.0148
     22 C          -6.1732    2.4970   -0.6801 C.3     1  UNL1       -0.0357
     23 C          -6.1283    2.3239    0.8183 C.3     1  UNL1       -0.0357
     24 C          -5.0116    1.3432    1.0145 C.3     1  UNL1        0.0148
     25 C          -0.7657   -1.3043   -0.9489 C.3     1  UNL1       -0.0313
     26 H           6.9329   -0.6508   -2.6728 H       1  UNL1        0.0479
     27 H           8.3654    0.4890   -2.4415 H       1  UNL1        0.0479
     28 H           7.7980   -0.6401   -1.1167 H       1  UNL1        0.0479
     29 H           4.2732    1.4679   -0.7060 H       1  UNL1        0.1476
     30 H           5.6949   -1.1006   -0.3067 H       1  UNL1        0.0458
     31 H           5.3881    0.2580    0.9159 H       1  UNL1        0.0458
     32 H           3.8047   -1.6264    1.2140 H       1  UNL1        0.0529
     33 H           2.9634   -0.1166    0.7670 H       1  UNL1        0.0529
     34 H           1.6157   -3.0143    0.2776 H       1  UNL1        0.1479
     35 H           0.9693   -0.3122   -0.1818 H       1  UNL1        0.0477
     36 H           0.0835   -0.7072    1.9637 H       1  UNL1        0.0281
     37 H           0.7797   -2.3350    1.7887 H       1  UNL1        0.0281
     38 H          -1.8840   -2.0804    2.0509 H       1  UNL1        0.0269
     39 H          -1.1819   -3.2583    0.8211 H       1  UNL1        0.0269
     40 H          -2.7969   -1.8665   -0.3638 H       1  UNL1        0.0321
     41 H          -1.3377    0.4309    1.0772 H       1  UNL1        0.0557
     42 H          -3.6671   -1.2480    1.5732 H       1  UNL1        0.1189
     43 H          -2.7428   -0.2536    2.6351 H       1  UNL1        0.1189
     44 H          -4.5846    2.1659   -2.0568 H       1  UNL1        0.0464
     45 H          -4.3250    3.5305   -0.8292 H       1  UNL1        0.0464
     46 H          -6.6893    3.4008   -1.0023 H       1  UNL1        0.0281
     47 H          -6.6954    1.6172   -1.1153 H       1  UNL1        0.0281
     48 H          -7.0940    1.9001    1.2188 H       1  UNL1        0.0281
     49 H          -5.8709    3.2702    1.3407 H       1  UNL1        0.0281
     50 H          -5.4045    0.2953    1.0470 H       1  UNL1        0.0464
     51 H          -4.4698    1.6084    1.9605 H       1  UNL1        0.0464
     52 H          -0.7822   -0.5027   -1.6793 H       1  UNL1        0.0284
     53 H          -0.7572   -2.2818   -1.4964 H       1  UNL1        0.0284
@<TRIPOS>BOND
     1     1     2    1
     2     2     3    2
     3     2     4    2
     4     2     5    1
     5     5     6    1
     6     6     7    1
     7     7     8    1
     8     8     9    2
     9     8    10    2
    10     8    11    1
    11    11    12    1
    12    12    13    1
    13    13    14    1
    14    14    15    1
    15    15    16    1
    16    16    17    1
    17    16    18    1
    18    18    19    2
    19    18    20   am
    20    20    21    1
    21    21    22    1
    22    22    23    1
    23    23    24    1
    24    15    25    1
    25    25    12    1
    26    24    20    1
    27     1    26    1
    28     1    27    1
    29     1    28    1
    30     5    29    1
    31     6    30    1
    32     6    31    1
    33     7    32    1
    34     7    33    1
    35    11    34    1
    36    12    35    1
    37    13    36    1
    38    13    37    1
    39    14    38    1
    40    14    39    1
    41    15    40    1
    42    16    41    1
    43    17    42    1
    44    17    43    1
    45    21    44    1
    46    21    45    1
    47    22    46    1
    48    22    47    1
    49    23    48    1
    50    23    49    1
    51    24    50    1
    52    24    51    1
    53    25    52    1
    54    25    53    1
