
     RDKit          3D

 58 60  0  0  0  0  0  0  0  0999 V2000
    5.7377    1.3851    1.0802 C   0  0  0  0  0  0  0  0  0  0  0  0
    5.6155    0.1491    0.2091 C   0  0  0  0  0  0  0  0  0  0  0  0
    4.2601   -0.0767   -0.2457 N   0  0  0  0  0  0  0  0  0  0  0  0
    4.2692   -1.2671   -1.0619 C   0  0  0  0  0  0  0  0  0  0  0  0
    4.5508   -2.5331   -0.2857 C   0  0  0  0  0  0  0  0  0  0  0  0
    3.3747   -0.1625    0.8756 C   0  0  0  0  0  0  0  0  0  0  0  0
    1.9324   -0.3869    0.4324 C   0  0  0  0  0  0  0  0  0  0  0  0
    1.5545    0.7744   -0.4193 C   0  0  0  0  0  0  0  0  0  0  0  0
    0.1439    0.7413   -0.9543 C   0  0  0  0  0  0  0  0  0  0  0  0
   -0.0406   -0.4827   -1.7905 C   0  0  0  0  0  0  0  0  0  0  0  0
   -0.8312    0.8784    0.1054 N   0  0  0  0  0  0  0  0  0  0  0  0
   -2.2455    0.9199    0.2055 C   0  0  0  0  0  0  0  0  0  0  0  0
   -3.1369   -0.1150    0.3945 C   0  0  0  0  0  0  0  0  0  0  0  0
   -2.5569   -1.3478    0.5137 C   0  0  0  0  0  0  0  0  0  0  0  0
   -3.4114   -2.4317    0.7090 C   0  0  0  0  0  0  0  0  0  0  0  0
   -2.9713   -3.7252    0.8453 O   0  0  0  0  0  0  0  0  0  0  0  0
   -3.8657   -4.8061    1.0427 C   0  0  0  0  0  0  0  0  0  0  0  0
   -4.7867   -2.1892    0.7693 C   0  0  0  0  0  0  0  0  0  0  0  0
   -5.3192   -0.9316    0.6441 C   0  0  0  0  0  0  0  0  0  0  0  0
   -4.4838    0.1749    0.4472 C   0  0  0  0  0  0  0  0  0  0  0  0
   -4.9635    1.4242    0.3223 N   0  0  0  0  0  0  0  0  0  0  0  0
   -4.1040    2.4300    0.1394 C   0  0  0  0  0  0  0  0  0  0  0  0
   -2.7428    2.2175    0.0759 C   0  0  0  0  0  0  0  0  0  0  0  0
   -1.9851    3.3310   -0.1132 C   0  0  0  0  0  0  0  0  0  0  0  0
   -2.4924    4.5996   -0.2382 C   0  0  0  0  0  0  0  0  0  0  0  0
   -3.8508    4.7889   -0.1721 C   0  0  0  0  0  0  0  0  0  0  0  0
   -4.4400    6.4361   -0.3391 Cl  0  0  0  0  0  0  0  0  0  0  0  0
   -4.6740    3.6890    0.0198 C   0  0  0  0  0  0  0  0  0  0  0  0
    5.6256    1.1781    2.1600 H   0  0  0  0  0  0  0  0  0  0  0  0
    6.7831    1.7625    0.9489 H   0  0  0  0  0  0  0  0  0  0  0  0
    5.0503    2.1602    0.7125 H   0  0  0  0  0  0  0  0  0  0  0  0
    6.2252    0.3310   -0.6995 H   0  0  0  0  0  0  0  0  0  0  0  0
    6.0667   -0.7292    0.7205 H   0  0  0  0  0  0  0  0  0  0  0  0
    3.3883   -1.3820   -1.7113 H   0  0  0  0  0  0  0  0  0  0  0  0
    5.1433   -1.1401   -1.7535 H   0  0  0  0  0  0  0  0  0  0  0  0
    5.6134   -2.5823    0.0038 H   0  0  0  0  0  0  0  0  0  0  0  0
    4.3795   -3.3861   -0.9761 H   0  0  0  0  0  0  0  0  0  0  0  0
    3.8780   -2.6778    0.5704 H   0  0  0  0  0  0  0  0  0  0  0  0
    3.6517   -0.9404    1.6224 H   0  0  0  0  0  0  0  0  0  0  0  0
    3.4612    0.8137    1.4161 H   0  0  0  0  0  0  0  0  0  0  0  0
    1.2788   -0.4471    1.3253 H   0  0  0  0  0  0  0  0  0  0  0  0
    1.9222   -1.3134   -0.1824 H   0  0  0  0  0  0  0  0  0  0  0  0
    2.2983    0.9842   -1.2006 H   0  0  0  0  0  0  0  0  0  0  0  0
    1.5780    1.6814    0.2553 H   0  0  0  0  0  0  0  0  0  0  0  0
    0.0451    1.6207   -1.6641 H   0  0  0  0  0  0  0  0  0  0  0  0
   -1.0848   -0.5748   -2.1676 H   0  0  0  0  0  0  0  0  0  0  0  0
    0.5876   -0.3808   -2.6936 H   0  0  0  0  0  0  0  0  0  0  0  0
    0.1817   -1.4020   -1.2159 H   0  0  0  0  0  0  0  0  0  0  0  0
   -0.4979    0.9800    1.0990 H   0  0  0  0  0  0  0  0  0  0  0  0
   -1.5098   -1.5118    0.4687 H   0  0  0  0  0  0  0  0  0  0  0  0
   -4.6457   -4.7600    0.2538 H   0  0  0  0  0  0  0  0  0  0  0  0
   -4.3370   -4.7912    2.0531 H   0  0  0  0  0  0  0  0  0  0  0  0
   -3.2851   -5.7486    0.9568 H   0  0  0  0  0  0  0  0  0  0  0  0
   -5.4850   -3.0251    0.9228 H   0  0  0  0  0  0  0  0  0  0  0  0
   -6.4002   -0.7789    0.6968 H   0  0  0  0  0  0  0  0  0  0  0  0
   -0.9116    3.2244   -0.1699 H   0  0  0  0  0  0  0  0  0  0  0  0
   -1.8135    5.4384   -0.3880 H   0  0  0  0  0  0  0  0  0  0  0  0
   -5.7244    3.9131    0.0613 H   0  0  0  0  0  0  0  0  0  0  0  0
  1  2  1  0
  2  3  1  0
  3  4  1  0
  4  5  1  0
  3  6  1  0
  6  7  1  0
  7  8  1  0
  8  9  1  0
  9 10  1  0
  9 11  1  0
 11 12  1  0
 12 13  2  0
 13 14  1  0
 14 15  2  0
 15 16  1  0
 16 17  1  0
 15 18  1  0
 18 19  2  0
 19 20  1  0
 20 21  2  0
 21 22  1  0
 22 23  2  0
 23 24  1  0
 24 25  2  0
 25 26  1  0
 26 27  1  0
 26 28  2  0
 23 12  1  0
 20 13  1  0
 28 22  1  0
  1 29  1  0
  1 30  1  0
  1 31  1  0
  2 32  1  0
  2 33  1  0
  4 34  1  0
  4 35  1  0
  5 36  1  0
  5 37  1  0
  5 38  1  0
  6 39  1  0
  6 40  1  0
  7 41  1  0
  7 42  1  0
  8 43  1  0
  8 44  1  0
  9 45  1  0
 10 46  1  0
 10 47  1  0
 10 48  1  0
 11 49  1  0
 14 50  1  0
 17 51  1  0
 17 52  1  0
 17 53  1  0
 18 54  1  0
 19 55  1  0
 24 56  1  0
 25 57  1  0
 28 58  1  0
M  END
$$$$
