@<TRIPOS>MOLECULE
*****
 33 35 0 0 0
SMALL
GASTEIGER

@<TRIPOS>ATOM
      1 C           5.6550    0.0100    1.2100 C.3     1  UNL1        0.0788
      2 O           5.0929   -0.4293    0.0039 O.3     1  UNL1       -0.4951
      3 C           3.7179   -0.3796   -0.2417 C.ar    1  UNL1        0.1207
      4 C           3.2342   -0.8266   -1.4453 C.ar    1  UNL1       -0.0194
      5 C           1.8747   -0.7722   -1.6757 C.ar    1  UNL1       -0.0506
      6 C           0.9839   -0.2848   -0.7398 C.ar    1  UNL1       -0.0171
      7 C          -0.3776   -0.2367   -0.9858 C.ar    1  UNL1       -0.0462
      8 C          -1.2770    0.2522   -0.0487 C.ar    1  UNL1       -0.0141
      9 C          -2.7067    0.2904   -0.3365 C.ar    1  UNL1        0.0209
     10 C          -3.1966    0.7467   -1.5522 C.ar    1  UNL1        0.0370
     11 N          -4.4870    0.7973   -1.8525 N.ar    1  UNL1       -0.2625
     12 C          -5.4109    0.3941   -0.9604 C.ar    1  UNL1        0.0293
     13 C          -4.9573   -0.0634    0.2535 C.ar    1  UNL1       -0.0223
     14 C          -3.6245   -0.1292    0.5979 C.ar    1  UNL1        0.0353
     15 N          -3.1563   -0.5969    1.8394 N.pl3   1  UNL1       -0.3574
     16 C          -0.7639    0.6943    1.1509 C.ar    1  UNL1       -0.0533
     17 C           0.5988    0.6566    1.4221 C.ar    1  UNL1       -0.0533
     18 C           1.4812    0.1643    0.4724 C.ar    1  UNL1       -0.0144
     19 C           2.8466    0.1095    0.7035 C.ar    1  UNL1       -0.0122
     20 H           5.5738   -0.7709    2.0090 H       1  UNL1        0.0660
     21 H           5.2330    0.9741    1.5309 H       1  UNL1        0.0660
     22 H           6.7538    0.1484    1.0173 H       1  UNL1        0.0660
     23 H           3.9001   -1.2161   -2.2054 H       1  UNL1        0.0654
     24 H           1.5382   -1.1352   -2.6380 H       1  UNL1        0.0625
     25 H          -0.7430   -0.5922   -1.9380 H       1  UNL1        0.0630
     26 H          -2.4490    1.0715   -2.2706 H       1  UNL1        0.0836
     27 H          -6.4654    0.4439   -1.2271 H       1  UNL1        0.0830
     28 H          -5.6833   -0.3916    0.9832 H       1  UNL1        0.0651
     29 H          -2.5137   -1.3822    1.9994 H       1  UNL1        0.1423
     30 H          -3.4989   -0.0902    2.7028 H       1  UNL1        0.1423
     31 H          -1.4019    1.0866    1.9251 H       1  UNL1        0.0624
     32 H           1.0091    1.0002    2.3578 H       1  UNL1        0.0624
     33 H           3.2196    0.4571    1.6384 H       1  UNL1        0.0660
@<TRIPOS>BOND
     1     1     2    1
     2     2     3    1
     3     3     4   ar
     4     4     5   ar
     5     5     6   ar
     6     6     7   ar
     7     7     8   ar
     8     8     9    1
     9     9    10   ar
    10    10    11   ar
    11    11    12   ar
    12    12    13   ar
    13    13    14   ar
    14    14    15    1
    15     8    16   ar
    16    16    17   ar
    17    17    18   ar
    18    18    19   ar
    19    19     3   ar
    20    18     6   ar
    21    14     9   ar
    22     1    20    1
    23     1    21    1
    24     1    22    1
    25     4    23    1
    26     5    24    1
    27     7    25    1
    28    10    26    1
    29    12    27    1
    30    13    28    1
    31    15    29    1
    32    15    30    1
    33    16    31    1
    34    17    32    1
    35    19    33    1
