
     RDKit          3D

117121  0  0  0  0  0  0  0  0999 V2000
   -5.6241    5.1565   -0.3914 C   0  0  0  0  0  0  0  0  0  0  0  0
   -4.9099    4.4131    0.5378 O   0  0  0  0  0  0  0  0  0  0  0  0
   -3.9724    3.6407   -0.1060 C   0  0  1  0  0  0  0  0  0  0  0  0
   -2.5888    4.2235    0.2023 C   0  0  0  0  0  0  0  0  0  0  0  0
   -1.5661    4.8748    0.8365 C   0  0  0  0  0  0  0  0  0  0  0  0
   -0.1608    5.1211    0.5223 O   0  0  0  0  0  0  0  0  0  0  0  0
    0.3981    4.0189   -0.0882 C   0  0  1  0  0  0  0  0  0  0  0  0
   -0.2600    2.7201    0.3629 C   0  0  0  0  0  0  0  0  0  0  0  0
    0.3156    4.1526   -1.5541 O   0  0  0  0  0  0  0  0  0  0  0  0
    0.6793    2.8291   -1.9225 C   0  0  0  0  0  0  0  0  0  0  0  0
    1.6493    2.5565   -0.9455 C   0  0  0  0  0  0  0  0  0  0  0  0
    1.8350    3.7321   -0.0394 C   0  0  0  0  0  0  0  0  0  0  0  0
    2.5195    4.4986    0.6542 O   0  0  0  0  0  0  0  0  0  0  0  0
    2.2178    1.2763   -0.9767 C   0  0  0  0  0  0  0  0  0  0  0  0
    2.9940    1.0576    0.0957 C   0  0  0  0  0  0  0  0  0  0  0  0
    3.3635    2.0415    0.9577 O   0  0  0  0  0  0  0  0  0  0  0  0
    3.0376   -0.2281   -0.2565 C   0  0  0  0  0  0  0  0  0  0  0  0
    3.9874   -0.4703    0.8780 C   0  0  0  0  0  0  0  0  0  0  0  0
    5.1373   -0.8718    0.3923 N   0  0  0  0  0  0  0  0  0  0  0  0
    6.2038   -1.1470    1.2978 N   0  0  0  0  0  0  0  0  0  0  0  0
    6.5552    0.1132    1.9260 C   0  0  0  0  0  0  0  0  0  0  0  0
    7.7383   -0.0676    2.8243 C   0  0  0  0  0  0  0  0  0  0  0  0
    8.8333   -0.6917    2.1546 N   0  0  0  0  0  0  0  0  0  0  0  0
    9.4856    0.2900    1.3072 C   0  0  0  0  0  0  0  0  0  0  0  0
    8.4600   -1.8255    1.3533 C   0  0  0  0  0  0  0  0  0  0  0  0
    7.0403   -2.2496    1.7682 C   0  0  0  0  0  0  0  0  0  0  0  0
    2.7797   -1.2791   -0.9813 C   0  0  0  0  0  0  0  0  0  0  0  0
    3.0392   -2.6141   -0.7862 N   0  0  0  0  0  0  0  0  0  0  0  0
    3.3077   -3.9491   -0.5921 C   0  0  0  0  0  0  0  0  0  0  0  0
    4.5280   -3.8036   -0.7230 O   0  0  0  0  0  0  0  0  0  0  0  0
    2.6480   -5.2125   -0.3369 C   0  0  0  0  0  0  0  0  0  0  0  0
    3.5316   -6.3551   -0.1197 C   0  0  0  0  0  0  0  0  0  0  0  0
    1.3466   -5.3897   -0.2892 C   0  0  0  0  0  0  0  0  0  0  0  0
    0.3297   -4.3685   -0.4913 C   0  0  0  0  0  0  0  0  0  0  0  0
   -0.9891   -4.4924   -0.4531 C   0  0  0  0  0  0  0  0  0  0  0  0
   -2.0040   -3.3720   -0.6807 C   0  0  2  0  0  0  0  0  0  0  0  0
   -1.4338   -2.2344   -1.4342 C   0  0  0  0  0  0  0  0  0  0  0  0
   -2.8691   -3.1570    0.4663 C   0  0  2  0  0  0  0  0  0  0  0  0
   -3.7552   -4.2021    0.7322 O   0  0  0  0  0  0  0  0  0  0  0  0
   -3.3939   -1.8146    0.8521 C   0  0  1  0  0  0  0  0  0  0  0  0
   -2.2613   -0.9207    1.2375 C   0  0  0  0  0  0  0  0  0  0  0  0
   -4.4947   -1.2435    0.0248 C   0  0  1  0  0  0  0  0  0  0  0  0
   -5.4405   -2.3612    0.0809 O   0  0  0  0  0  0  0  0  0  0  0  0
   -5.2370   -0.0626    0.5093 C   0  0  1  0  0  0  0  0  0  0  0  0
   -5.8046   -0.1848    1.9115 C   0  0  0  0  0  0  0  0  0  0  0  0
   -5.0451    1.3331    0.0679 C   0  0  2  0  0  0  0  0  0  0  0  0
   -5.2582    1.4273   -1.3728 O   0  0  0  0  0  0  0  0  0  0  0  0
   -6.4251    1.8993   -1.8908 C   0  0  0  0  0  0  0  0  0  0  0  0
   -6.4830    1.9402   -3.3907 C   0  0  0  0  0  0  0  0  0  0  0  0
   -7.4870    2.3153   -1.3227 O   0  0  0  0  0  0  0  0  0  0  0  0
   -3.9346    2.1813    0.3913 C   0  0  2  0  0  0  0  0  0  0  0  0
   -3.7597    2.3972    1.9187 C   0  0  0  0  0  0  0  0  0  0  0  0
    1.9667   -0.8085   -2.0448 C   0  0  0  0  0  0  0  0  0  0  0  0
    1.6762   -1.8658   -2.8446 O   0  0  0  0  0  0  0  0  0  0  0  0
    1.6927    0.5331   -2.0003 C   0  0  0  0  0  0  0  0  0  0  0  0
    0.7805    0.7669   -2.9601 C   0  0  0  0  0  0  0  0  0  0  0  0
    0.2850    0.0082   -3.9796 O   0  0  0  0  0  0  0  0  0  0  0  0
    0.1917    2.0447   -2.9466 C   0  0  0  0  0  0  0  0  0  0  0  0
   -0.8372    2.5405   -3.9080 C   0  0  0  0  0  0  0  0  0  0  0  0
   -6.3871    5.7824    0.1518 H   0  0  0  0  0  0  0  0  0  0  0  0
   -4.8976    5.8955   -0.8540 H   0  0  0  0  0  0  0  0  0  0  0  0
   -6.0247    4.6023   -1.2352 H   0  0  0  0  0  0  0  0  0  0  0  0
   -4.1181    3.7597   -1.1663 H   0  0  0  0  0  0  0  0  0  0  0  0
   -1.9930    3.9637   -0.6969 H   0  0  0  0  0  0  0  0  0  0  0  0
   -1.6926    5.3709    1.8188 H   0  0  0  0  0  0  0  0  0  0  0  0
   -1.0021    2.8669    1.1693 H   0  0  0  0  0  0  0  0  0  0  0  0
   -0.6033    2.1090   -0.4879 H   0  0  0  0  0  0  0  0  0  0  0  0
    0.4954    2.0304    0.8710 H   0  0  0  0  0  0  0  0  0  0  0  0
    4.3203    2.3487    1.1400 H   0  0  0  0  0  0  0  0  0  0  0  0
    3.9785   -0.4195    1.9638 H   0  0  0  0  0  0  0  0  0  0  0  0
    5.6777    0.5159    2.4772 H   0  0  0  0  0  0  0  0  0  0  0  0
    6.7712    0.8659    1.1163 H   0  0  0  0  0  0  0  0  0  0  0  0
    8.0342    0.9570    3.2091 H   0  0  0  0  0  0  0  0  0  0  0  0
    7.4259   -0.6735    3.7015 H   0  0  0  0  0  0  0  0  0  0  0  0
    9.4506    1.2789    1.7939 H   0  0  0  0  0  0  0  0  0  0  0  0
   10.5193   -0.0771    1.1328 H   0  0  0  0  0  0  0  0  0  0  0  0
    8.9119    0.3457    0.3452 H   0  0  0  0  0  0  0  0  0  0  0  0
    8.4534   -1.6151    0.2557 H   0  0  0  0  0  0  0  0  0  0  0  0
    9.1415   -2.6578    1.5821 H   0  0  0  0  0  0  0  0  0  0  0  0
    6.7972   -3.1778    1.2210 H   0  0  0  0  0  0  0  0  0  0  0  0
    6.9659   -2.4000    2.8399 H   0  0  0  0  0  0  0  0  0  0  0  0
    2.0830   -2.6649   -0.4895 H   0  0  0  0  0  0  0  0  0  0  0  0
    3.7993   -6.5461    0.9317 H   0  0  0  0  0  0  0  0  0  0  0  0
    4.4829   -6.2352   -0.6802 H   0  0  0  0  0  0  0  0  0  0  0  0
    3.0523   -7.2610   -0.5795 H   0  0  0  0  0  0  0  0  0  0  0  0
    0.9108   -6.3524   -0.0888 H   0  0  0  0  0  0  0  0  0  0  0  0
    0.2975   -3.3174   -0.7290 H   0  0  0  0  0  0  0  0  0  0  0  0
   -1.4295   -5.4972   -0.2389 H   0  0  0  0  0  0  0  0  0  0  0  0
   -2.6658   -3.8897   -1.4643 H   0  0  0  0  0  0  0  0  0  0  0  0
   -0.8346   -2.7085   -2.2757 H   0  0  0  0  0  0  0  0  0  0  0  0
   -2.2380   -1.7106   -1.9940 H   0  0  0  0  0  0  0  0  0  0  0  0
   -0.7305   -1.5785   -0.9244 H   0  0  0  0  0  0  0  0  0  0  0  0
   -2.1202   -3.3484    1.3653 H   0  0  0  0  0  0  0  0  0  0  0  0
   -4.2430   -4.4060   -0.1202 H   0  0  0  0  0  0  0  0  0  0  0  0
   -3.9055   -2.0512    1.8462 H   0  0  0  0  0  0  0  0  0  0  0  0
   -2.3660   -0.4805    2.2480 H   0  0  0  0  0  0  0  0  0  0  0  0
   -1.3118   -1.5587    1.3735 H   0  0  0  0  0  0  0  0  0  0  0  0
   -1.9484   -0.1582    0.5513 H   0  0  0  0  0  0  0  0  0  0  0  0
   -4.3231   -1.2331   -1.0667 H   0  0  0  0  0  0  0  0  0  0  0  0
   -6.2196   -2.0624   -0.4603 H   0  0  0  0  0  0  0  0  0  0  0  0
   -6.3015   -0.2499   -0.0500 H   0  0  0  0  0  0  0  0  0  0  0  0
   -5.0481   -0.0892    2.7137 H   0  0  0  0  0  0  0  0  0  0  0  0
   -6.4830    0.6823    2.0179 H   0  0  0  0  0  0  0  0  0  0  0  0
   -6.4437   -1.0803    2.0226 H   0  0  0  0  0  0  0  0  0  0  0  0
   -5.9969    1.8512    0.4145 H   0  0  0  0  0  0  0  0  0  0  0  0
   -7.5214    1.7477   -3.7329 H   0  0  0  0  0  0  0  0  0  0  0  0
   -5.7441    1.2899   -3.8657 H   0  0  0  0  0  0  0  0  0  0  0  0
   -6.3146    3.0290   -3.6514 H   0  0  0  0  0  0  0  0  0  0  0  0
   -2.9256    1.8480    0.0774 H   0  0  0  0  0  0  0  0  0  0  0  0
   -3.0211    1.7167    2.3395 H   0  0  0  0  0  0  0  0  0  0  0  0
   -3.4279    3.4197    2.1568 H   0  0  0  0  0  0  0  0  0  0  0  0
   -4.7434    2.2610    2.4307 H   0  0  0  0  0  0  0  0  0  0  0  0
    1.4359   -1.9001   -3.7979 H   0  0  0  0  0  0  0  0  0  0  0  0
    0.7188    0.0989   -4.9077 H   0  0  0  0  0  0  0  0  0  0  0  0
   -0.6579    2.0325   -4.8585 H   0  0  0  0  0  0  0  0  0  0  0  0
   -1.8334    2.2153   -3.5257 H   0  0  0  0  0  0  0  0  0  0  0  0
   -0.7653    3.6547   -3.9488 H   0  0  0  0  0  0  0  0  0  0  0  0
  1  2  1  0
  2  3  1  0
  3  4  1  0
  4  5  2  0
  5  6  1  0
  6  7  1  0
  7  8  1  1
  7  9  1  0
  9 10  1  0
 10 11  2  0
 11 12  1  0
 12 13  2  0
 11 14  1  0
 14 15  2  0
 15 16  1  0
 15 17  1  0
 17 18  1  0
 18 19  2  0
 19 20  1  0
 20 21  1  0
 21 22  1  0
 22 23  1  0
 23 24  1  0
 23 25  1  0
 25 26  1  0
 17 27  2  0
 27 28  1  0
 28 29  1  0
 29 30  2  0
 29 31  1  0
 31 32  1  0
 31 33  2  0
 33 34  1  0
 34 35  2  0
 35 36  1  0
 36 37  1  0
 36 38  1  0
 38 39  1  0
 38 40  1  0
 40 41  1  0
 40 42  1  0
 42 43  1  0
 42 44  1  0
 44 45  1  0
 44 46  1  0
 46 47  1  0
 47 48  1  0
 48 49  1  0
 48 50  2  0
 46 51  1  0
 51 52  1  0
 27 53  1  0
 53 54  1  0
 53 55  2  0
 55 56  1  0
 56 57  1  0
 56 58  2  0
 58 59  1  0
 51  3  1  0
 12  7  1  0
 55 14  1  0
 58 10  1  0
 26 20  1  0
  1 60  1  0
  1 61  1  0
  1 62  1  0
  3 63  1  6
  4 64  1  0
  5 65  1  0
  8 66  1  0
  8 67  1  0
  8 68  1  0
 16 69  1  0
 18 70  1  0
 21 71  1  0
 21 72  1  0
 22 73  1  0
 22 74  1  0
 24 75  1  0
 24 76  1  0
 24 77  1  0
 25 78  1  0
 25 79  1  0
 26 80  1  0
 26 81  1  0
 28 82  1  0
 32 83  1  0
 32 84  1  0
 32 85  1  0
 33 86  1  0
 34 87  1  0
 35 88  1  0
 36 89  1  6
 37 90  1  0
 37 91  1  0
 37 92  1  0
 38 93  1  1
 39 94  1  0
 40 95  1  1
 41 96  1  0
 41 97  1  0
 41 98  1  0
 42 99  1  6
 43100  1  0
 44101  1  6
 45102  1  0
 45103  1  0
 45104  1  0
 46105  1  1
 49106  1  0
 49107  1  0
 49108  1  0
 51109  1  6
 52110  1  0
 52111  1  0
 52112  1  0
 54113  1  0
 57114  1  0
 59115  1  0
 59116  1  0
 59117  1  0
M  END
$$$$
