@<TRIPOS>MOLECULE
*****
 63 65 0 0 0
SMALL
GASTEIGER

@<TRIPOS>ATOM
      1 O          -3.5208    1.6111   -3.1529 O.3     1  UNL1       -0.3934
      2 C          -3.2210    0.6650   -2.1612 C.3     1  UNL1        0.0622
      3 C          -3.5900    1.2839   -0.8429 C.3     1  UNL1        0.0623
      4 C          -5.0379    1.7256   -0.7870 C.3     1  UNL1        0.1011
      5 O          -5.2991    2.8431   -1.5517 O.3     1  UNL1       -0.3875
      6 C          -5.8511    0.5184   -1.1943 C.3     1  UNL1        0.1095
      7 O          -7.1908    0.9214   -1.1926 O.3     1  UNL1       -0.3866
      8 C          -5.5648   -0.5702   -0.2128 C.3     1  UNL1        0.0962
      9 O          -5.4532   -1.8014   -0.9014 O.3     1  UNL1       -0.3879
     10 C          -4.4551   -0.3430    0.7199 C.3     1  UNL1        0.0281
     11 N          -3.3413    0.4292    0.2887 N.3     1  UNL1       -0.2866
     12 C          -2.7403    1.2260    1.3116 C.3     1  UNL1        0.0629
     13 C          -2.0349    0.5275    2.4010 C.3     1  UNL1        0.2614
     14 F          -1.5488    1.5200    3.2783 F       1  UNL1       -0.2043
     15 F          -2.7772   -0.3333    3.1354 F       1  UNL1       -0.2043
     16 C          -0.8069   -0.1993    1.9125 C.3     1  UNL1        0.0141
     17 C          -1.0673   -1.2508    0.8810 C.3     1  UNL1       -0.0240
     18 C           0.2855   -1.8931    0.5166 C.3     1  UNL1        0.0483
     19 O           0.7723   -2.4270    1.6892 O.3     1  UNL1       -0.3752
     20 C           2.0018   -3.0491    1.5297 C.3     1  UNL1        0.0727
     21 C           3.0644   -2.1541    1.0431 C.ar    1  UNL1       -0.0219
     22 C           3.8756   -1.4313    1.9134 C.ar    1  UNL1       -0.0558
     23 C           4.8628   -0.6016    1.4226 C.ar    1  UNL1       -0.0537
     24 C           5.0786   -0.4609    0.0482 C.ar    1  UNL1       -0.0179
     25 C           6.1251    0.4201   -0.4431 C.ar    1  UNL1       -0.0179
     26 C           7.2910    0.6190    0.2786 C.ar    1  UNL1       -0.0540
     27 C           8.2951    1.4502   -0.1703 C.ar    1  UNL1       -0.0612
     28 C           8.1688    2.1225   -1.3742 C.ar    1  UNL1       -0.0617
     29 C           7.0195    1.9368   -2.1023 C.ar    1  UNL1       -0.0612
     30 C           6.0159    1.0970   -1.6387 C.ar    1  UNL1       -0.0540
     31 C           4.2493   -1.1975   -0.7704 C.ar    1  UNL1       -0.0537
     32 C           3.2538   -2.0355   -0.3158 C.ar    1  UNL1       -0.0558
     33 H          -3.5708    1.1515   -4.0491 H       1  UNL1        0.2095
     34 H          -2.1114    0.5496   -2.1630 H       1  UNL1        0.0573
     35 H          -3.6463   -0.3176   -2.3480 H       1  UNL1        0.0573
     36 H          -2.9873    2.2373   -0.7699 H       1  UNL1        0.0511
     37 H          -5.2637    1.9027    0.3044 H       1  UNL1        0.0636
     38 H          -5.9693    3.3938   -1.0387 H       1  UNL1        0.2100
     39 H          -5.6094    0.2261   -2.2388 H       1  UNL1        0.0646
     40 H          -7.2425    1.7071   -1.8063 H       1  UNL1        0.2100
     41 H          -6.5107   -0.7010    0.3965 H       1  UNL1        0.0633
     42 H          -4.9066   -2.4421   -0.3837 H       1  UNL1        0.2099
     43 H          -4.0643   -1.3493    1.0398 H       1  UNL1        0.0453
     44 H          -4.8272    0.1216    1.6809 H       1  UNL1        0.0453
     45 H          -2.0296    1.9283    0.7853 H       1  UNL1        0.0485
     46 H          -3.5427    1.9162    1.6965 H       1  UNL1        0.0485
     47 H          -0.0969    0.5394    1.4735 H       1  UNL1        0.0324
     48 H          -0.2704   -0.6106    2.8035 H       1  UNL1        0.0324
     49 H          -1.7192   -2.0729    1.2212 H       1  UNL1        0.0289
     50 H          -1.4001   -0.8049   -0.0962 H       1  UNL1        0.0289
     51 H           0.0536   -2.6422   -0.2652 H       1  UNL1        0.0560
     52 H           0.9689   -1.0811    0.1387 H       1  UNL1        0.0560
     53 H           1.8357   -3.8704    0.7765 H       1  UNL1        0.0610
     54 H           2.3239   -3.5568    2.4535 H       1  UNL1        0.0610
     55 H           3.6939   -1.5536    2.9747 H       1  UNL1        0.0621
     56 H           5.4582   -0.0677    2.1509 H       1  UNL1        0.0624
     57 H           7.3798    0.0876    1.2168 H       1  UNL1        0.0624
     58 H           9.2084    1.6075    0.3942 H       1  UNL1        0.0618
     59 H           8.9390    2.7871   -1.7630 H       1  UNL1        0.0618
     60 H           6.8960    2.4496   -3.0451 H       1  UNL1        0.0618
     61 H           5.1319    0.9810   -2.2446 H       1  UNL1        0.0624
     62 H           4.4011   -1.1018   -1.8356 H       1  UNL1        0.0624
     63 H           2.6187   -2.6013   -1.0176 H       1  UNL1        0.0621
@<TRIPOS>BOND
     1     1     2    1
     2     2     3    1
     3     3     4    1
     4     4     5    1
     5     4     6    1
     6     6     7    1
     7     6     8    1
     8     8     9    1
     9     8    10    1
    10    10    11    1
    11    11    12    1
    12    12    13    1
    13    13    14    1
    14    13    15    1
    15    13    16    1
    16    16    17    1
    17    17    18    1
    18    18    19    1
    19    19    20    1
    20    20    21    1
    21    21    22   ar
    22    22    23   ar
    23    23    24   ar
    24    24    25    1
    25    25    26   ar
    26    26    27   ar
    27    27    28   ar
    28    28    29   ar
    29    29    30   ar
    30    24    31   ar
    31    31    32   ar
    32    11     3    1
    33    32    21   ar
    34    30    25   ar
    35     1    33    1
    36     2    34    1
    37     2    35    1
    38     3    36    1
    39     4    37    1
    40     5    38    1
    41     6    39    1
    42     7    40    1
    43     8    41    1
    44     9    42    1
    45    10    43    1
    46    10    44    1
    47    12    45    1
    48    12    46    1
    49    16    47    1
    50    16    48    1
    51    17    49    1
    52    17    50    1
    53    18    51    1
    54    18    52    1
    55    20    53    1
    56    20    54    1
    57    22    55    1
    58    23    56    1
    59    26    57    1
    60    27    58    1
    61    28    59    1
    62    29    60    1
    63    30    61    1
    64    31    62    1
    65    32    63    1
