
     RDKit          3D

 67 68  0  0  0  0  0  0  0  0999 V2000
   -5.0156   -2.8899   -1.1772 C   0  0  0  0  0  0  0  0  0  0  0  0
   -3.9550   -2.2625   -0.5707 O   0  0  0  0  0  0  0  0  0  0  0  0
   -3.9114   -0.8905   -0.7713 C   0  0  0  0  0  0  0  0  0  0  0  0
   -2.7160   -0.3276   -0.0624 C   0  0  0  0  0  0  0  0  0  0  0  0
   -1.4132   -0.4278   -0.5064 C   0  0  0  0  0  0  0  0  0  0  0  0
   -1.3203   -1.1416   -1.7466 C   0  0  0  0  0  0  0  0  0  0  0  0
   -1.4265   -0.2993   -2.8638 C   0  0  0  0  0  0  0  0  0  0  0  0
   -1.3815   -0.8514   -4.1446 C   0  0  0  0  0  0  0  0  0  0  0  0
   -1.2319   -2.2240   -4.2503 C   0  0  0  0  0  0  0  0  0  0  0  0
   -1.1911   -2.7330   -5.5167 F   0  0  0  0  0  0  0  0  0  0  0  0
   -1.1268   -3.0564   -3.1313 C   0  0  0  0  0  0  0  0  0  0  0  0
   -1.1717   -2.5059   -1.8520 C   0  0  0  0  0  0  0  0  0  0  0  0
   -0.3956    0.1259    0.2264 C   0  0  0  0  0  0  0  0  0  0  0  0
    0.9870    0.0484   -0.1874 C   0  0  0  0  0  0  0  0  0  0  0  0
    1.7377   -0.4198   -1.1519 C   0  0  0  0  0  0  0  0  0  0  0  0
    3.1688   -0.4127   -1.4285 C   0  0  1  0  0  0  0  0  0  0  0  0
    3.3542    0.0804   -2.7270 O   0  0  0  0  0  0  0  0  0  0  0  0
    3.9534    0.5096   -0.5246 C   0  0  0  0  0  0  0  0  0  0  0  0
    5.4190    0.3917   -0.9518 C   0  0  1  0  0  0  0  0  0  0  0  0
    5.5816    0.7654   -2.2759 O   0  0  0  0  0  0  0  0  0  0  0  0
    6.2926    1.2298   -0.0335 C   0  0  0  0  0  0  0  0  0  0  0  0
    7.7200    1.1018   -0.4673 C   0  0  0  0  0  0  0  0  0  0  0  0
    8.6034    1.8450    0.3282 O   0  0  0  0  0  0  0  0  0  0  0  0
    8.1681    0.4258   -1.4256 O   0  0  0  0  0  0  0  0  0  0  0  0
   -0.6727    0.7837    1.4068 C   0  0  0  0  0  0  0  0  0  0  0  0
    0.3325    1.4303    2.2888 C   0  0  0  0  0  0  0  0  0  0  0  0
    0.8270    0.3351    3.2387 C   0  0  0  0  0  0  0  0  0  0  0  0
   -0.3931    2.4206    3.1849 C   0  0  0  0  0  0  0  0  0  0  0  0
   -1.9491    0.8426    1.7747 N   0  0  0  0  0  0  0  0  0  0  0  0
   -2.9911    0.3233    1.1065 C   0  0  0  0  0  0  0  0  0  0  0  0
   -4.3444    0.4882    1.6719 C   0  0  0  0  0  0  0  0  0  0  0  0
   -5.0458    1.7287    1.2177 C   0  0  0  0  0  0  0  0  0  0  0  0
   -4.2139    0.6032    3.1954 C   0  0  0  0  0  0  0  0  0  0  0  0
   -4.9094   -3.9842   -0.9219 H   0  0  0  0  0  0  0  0  0  0  0  0
   -4.9903   -2.8422   -2.2869 H   0  0  0  0  0  0  0  0  0  0  0  0
   -5.9842   -2.5371   -0.7520 H   0  0  0  0  0  0  0  0  0  0  0  0
   -3.7817   -0.7785   -1.8866 H   0  0  0  0  0  0  0  0  0  0  0  0
   -4.8234   -0.3483   -0.5366 H   0  0  0  0  0  0  0  0  0  0  0  0
   -1.5431    0.7737   -2.8152 H   0  0  0  0  0  0  0  0  0  0  0  0
   -1.4595   -0.2454   -5.0308 H   0  0  0  0  0  0  0  0  0  0  0  0
   -1.0091   -4.1404   -3.2695 H   0  0  0  0  0  0  0  0  0  0  0  0
   -1.0959   -3.0982   -0.9749 H   0  0  0  0  0  0  0  0  0  0  0  0
    1.7503    0.5039    0.4607 H   0  0  0  0  0  0  0  0  0  0  0  0
    1.1249   -0.9133   -1.8860 H   0  0  0  0  0  0  0  0  0  0  0  0
    3.6492   -1.4071   -1.4057 H   0  0  0  0  0  0  0  0  0  0  0  0
    2.8373   -0.3896   -3.4023 H   0  0  0  0  0  0  0  0  0  0  0  0
    3.8479    0.2962    0.5390 H   0  0  0  0  0  0  0  0  0  0  0  0
    3.6568    1.5476   -0.7991 H   0  0  0  0  0  0  0  0  0  0  0  0
    5.7588   -0.6590   -0.8508 H   0  0  0  0  0  0  0  0  0  0  0  0
    6.0291    0.1010   -2.8473 H   0  0  0  0  0  0  0  0  0  0  0  0
    5.9434    2.2729   -0.0722 H   0  0  0  0  0  0  0  0  0  0  0  0
    6.2546    0.8594    1.0090 H   0  0  0  0  0  0  0  0  0  0  0  0
    9.5111    2.1565   -0.0361 H   0  0  0  0  0  0  0  0  0  0  0  0
    1.1691    1.8897    1.7617 H   0  0  0  0  0  0  0  0  0  0  0  0
    1.2189   -0.5192    2.6490 H   0  0  0  0  0  0  0  0  0  0  0  0
   -0.1148   -0.0465    3.7301 H   0  0  0  0  0  0  0  0  0  0  0  0
    1.5160    0.7224    3.9921 H   0  0  0  0  0  0  0  0  0  0  0  0
   -0.9622    1.9055    3.9856 H   0  0  0  0  0  0  0  0  0  0  0  0
    0.2902    3.1784    3.5824 H   0  0  0  0  0  0  0  0  0  0  0  0
   -1.1513    2.9744    2.5680 H   0  0  0  0  0  0  0  0  0  0  0  0
   -4.9130   -0.4358    1.5098 H   0  0  0  0  0  0  0  0  0  0  0  0
   -4.4398    2.2272    0.4335 H   0  0  0  0  0  0  0  0  0  0  0  0
   -6.0830    1.5089    0.8484 H   0  0  0  0  0  0  0  0  0  0  0  0
   -5.1933    2.4843    2.0215 H   0  0  0  0  0  0  0  0  0  0  0  0
   -5.1285    0.2875    3.7096 H   0  0  0  0  0  0  0  0  0  0  0  0
   -3.3541   -0.0314    3.5456 H   0  0  0  0  0  0  0  0  0  0  0  0
   -3.9002    1.6495    3.4044 H   0  0  0  0  0  0  0  0  0  0  0  0
  1  2  1  0
  2  3  1  0
  3  4  1  0
  4  5  2  0
  5  6  1  0
  6  7  2  0
  7  8  1  0
  8  9  2  0
  9 10  1  0
  9 11  1  0
 11 12  2  0
  5 13  1  0
 13 14  1  0
 14 15  2  0
 15 16  1  0
 16 17  1  0
 16 18  1  0
 18 19  1  0
 19 20  1  0
 19 21  1  0
 21 22  1  0
 22 23  1  0
 22 24  2  0
 13 25  2  0
 25 26  1  0
 26 27  1  0
 26 28  1  0
 25 29  1  0
 29 30  2  0
 30 31  1  0
 31 32  1  0
 31 33  1  0
 30  4  1  0
 12  6  1  0
  1 34  1  0
  1 35  1  0
  1 36  1  0
  3 37  1  0
  3 38  1  0
  7 39  1  0
  8 40  1  0
 11 41  1  0
 12 42  1  0
 14 43  1  0
 15 44  1  0
 16 45  1  6
 17 46  1  0
 18 47  1  0
 18 48  1  0
 19 49  1  6
 20 50  1  0
 21 51  1  0
 21 52  1  0
 23 53  1  0
 26 54  1  0
 27 55  1  0
 27 56  1  0
 27 57  1  0
 28 58  1  0
 28 59  1  0
 28 60  1  0
 31 61  1  0
 32 62  1  0
 32 63  1  0
 32 64  1  0
 33 65  1  0
 33 66  1  0
 33 67  1  0
M  END
$$$$
