
     RDKit          3D

 34 36  0  0  0  0  0  0  0  0999 V2000
   -2.7869   -1.6679    1.4408 C   0  0  0  0  0  0  0  0  0  0  0  0
   -3.3178   -0.7602    0.3981 C   0  0  0  0  0  0  0  0  0  0  0  0
   -2.4878    0.0435   -0.3313 C   0  0  0  0  0  0  0  0  0  0  0  0
   -3.1363    0.8391   -1.2477 C   0  0  0  0  0  0  0  0  0  0  0  0
   -4.4940    0.8475   -1.4368 C   0  0  0  0  0  0  0  0  0  0  0  0
   -5.3071    0.0304   -0.6919 C   0  0  0  0  0  0  0  0  0  0  0  0
   -4.6864   -0.7713    0.2276 C   0  0  0  0  0  0  0  0  0  0  0  0
   -1.0478    0.0909   -0.2249 C   0  0  0  0  0  0  0  0  0  0  0  0
   -0.0718   -0.5808    0.4557 C   0  0  0  0  0  0  0  0  0  0  0  0
    1.1916   -0.1274    0.1699 C   0  0  0  0  0  0  0  0  0  0  0  0
    0.9953    0.8852   -0.7416 C   0  0  0  0  0  0  0  0  0  0  0  0
   -0.3177    0.9686   -0.9339 N   0  0  0  0  0  0  0  0  0  0  0  0
    2.1317    1.5179   -1.1970 C   0  0  0  0  0  0  0  0  0  0  0  0
    3.3868    1.1464   -0.7554 C   0  0  0  0  0  0  0  0  0  0  0  0
    3.5713    0.1342    0.1546 C   0  0  0  0  0  0  0  0  0  0  0  0
    2.4422   -0.4999    0.6120 C   0  0  0  0  0  0  0  0  0  0  0  0
    4.8959   -0.2563    0.6193 C   0  0  0  0  0  0  0  0  0  0  0  0
    5.9415    0.7194    0.6838 N   0  0  0  0  0  0  0  0  0  0  0  0
    5.2383   -1.4422    0.9949 N   0  0  0  0  0  0  0  0  0  0  0  0
   -2.2248   -2.5253    1.0481 H   0  0  0  0  0  0  0  0  0  0  0  0
   -3.6499   -2.0553    2.0817 H   0  0  0  0  0  0  0  0  0  0  0  0
   -2.2344   -1.0422    2.1716 H   0  0  0  0  0  0  0  0  0  0  0  0
   -2.6138    1.5293   -1.8992 H   0  0  0  0  0  0  0  0  0  0  0  0
   -4.9688    1.4828   -2.1633 H   0  0  0  0  0  0  0  0  0  0  0  0
   -6.3761   -0.0014   -0.8012 H   0  0  0  0  0  0  0  0  0  0  0  0
   -5.3174   -1.4192    0.8196 H   0  0  0  0  0  0  0  0  0  0  0  0
   -0.2485   -1.3797    1.1359 H   0  0  0  0  0  0  0  0  0  0  0  0
   -0.6331    1.7166   -1.6220 H   0  0  0  0  0  0  0  0  0  0  0  0
    2.0114    2.3160   -1.9121 H   0  0  0  0  0  0  0  0  0  0  0  0
    4.2506    1.6824   -1.1502 H   0  0  0  0  0  0  0  0  0  0  0  0
    2.5301   -1.2959    1.3225 H   0  0  0  0  0  0  0  0  0  0  0  0
    5.9226    1.6708    1.1470 H   0  0  0  0  0  0  0  0  0  0  0  0
    6.8444    0.4519    0.2076 H   0  0  0  0  0  0  0  0  0  0  0  0
    4.5665   -2.2478    0.9955 H   0  0  0  0  0  0  0  0  0  0  0  0
  1  2  1  0
  2  3  2  0
  3  4  1  0
  4  5  2  0
  5  6  1  0
  6  7  2  0
  3  8  1  0
  8  9  2  0
  9 10  1  0
 10 11  2  0
 11 12  1  0
 11 13  1  0
 13 14  2  0
 14 15  1  0
 15 16  2  0
 15 17  1  0
 17 18  1  0
 17 19  2  3
  7  2  1  0
 12  8  1  0
 16 10  1  0
  1 20  1  0
  1 21  1  0
  1 22  1  0
  4 23  1  0
  5 24  1  0
  6 25  1  0
  7 26  1  0
  9 27  1  0
 12 28  1  0
 13 29  1  0
 14 30  1  0
 16 31  1  0
 18 32  1  0
 18 33  1  0
 19 34  1  0
M  END
$$$$
