@<TRIPOS>MOLECULE
*****
 38 39 0 0 0
SMALL
GASTEIGER

@<TRIPOS>ATOM
      1 C           2.0722    0.5538    3.0363 C.3     1  UNL1       -0.0212
      2 C           1.3741    0.5721    1.6783 C.ar    1  UNL1        0.0552
      3 N           0.1149    0.7993    1.5942 N.ar    1  UNL1       -0.2292
      4 C          -0.5228    0.8180    0.3899 C.ar    1  UNL1        0.1651
      5 N          -1.8832    1.0486    0.1207 N.am    1  UNL1       -0.2645
      6 C          -2.8544   -0.0061    0.0700 C.2     1  UNL1        0.2217
      7 O          -2.3815   -1.1734    0.2897 O.2     1  UNL1       -0.2751
      8 C          -4.2774    0.2386   -0.2119 C.3     1  UNL1        0.0412
      9 C          -4.4988    0.8764   -1.5507 C.3     1  UNL1       -0.0538
     10 C          -5.0146   -1.0773   -0.0763 C.3     1  UNL1        0.0536
     11 C          -6.4945   -0.9188   -0.3509 C.3     1  UNL1        0.3909
     12 F          -6.7456   -0.4545   -1.6118 F       1  UNL1       -0.1707
     13 F          -7.0432   -2.2014   -0.2494 F       1  UNL1       -0.1707
     14 F          -7.1116   -0.1642    0.6344 F       1  UNL1       -0.1707
     15 S           0.8023    0.4822   -0.6865 S.2     1  UNL1       -0.0517
     16 C           2.0949    0.3411    0.5095 C.ar    1  UNL1        0.0450
     17 C           3.4590    0.0590    0.1759 C.ar    1  UNL1        0.0087
     18 C           4.4557   -0.0469    1.0648 C.ar    1  UNL1       -0.0488
     19 C           5.7808   -0.3287    0.6670 C.ar    1  UNL1       -0.0215
     20 C           6.0907   -0.5044   -0.6545 C.ar    1  UNL1        0.1161
     21 N           7.4243   -0.7921   -1.0996 N.pl3   1  UNL1       -0.3431
     22 N           5.0789   -0.3942   -1.5263 N.ar    1  UNL1       -0.2401
     23 C           3.8206   -0.1292   -1.1777 C.ar    1  UNL1        0.0379
     24 H           1.2868    0.7388    3.8245 H       1  UNL1        0.0293
     25 H           2.4306   -0.4613    3.2651 H       1  UNL1        0.0293
     26 H           2.7695    1.3812    3.1436 H       1  UNL1        0.0293
     27 H          -2.1856    2.0245   -0.0464 H       1  UNL1        0.1567
     28 H          -4.7450    0.9260    0.5494 H       1  UNL1        0.0394
     29 H          -3.6439    1.5909   -1.7101 H       1  UNL1        0.0237
     30 H          -5.4102    1.4876   -1.5748 H       1  UNL1        0.0237
     31 H          -4.4318    0.1549   -2.3884 H       1  UNL1        0.0237
     32 H          -4.9192   -1.4467    0.9611 H       1  UNL1        0.0359
     33 H          -4.6271   -1.8477   -0.7488 H       1  UNL1        0.0359
     34 H           4.2972    0.0782    2.1262 H       1  UNL1        0.0625
     35 H           6.5564   -0.4050    1.4273 H       1  UNL1        0.0652
     36 H           7.8671   -1.7230   -0.9839 H       1  UNL1        0.1437
     37 H           7.9942   -0.0504   -1.5625 H       1  UNL1        0.1437
     38 H           3.0201   -0.0458   -1.9100 H       1  UNL1        0.0836
@<TRIPOS>BOND
     1     1     2    1
     2     2     3   ar
     3     3     4   ar
     4     4     5    1
     5     5     6   am
     6     6     7    2
     7     6     8    1
     8     8     9    1
     9     8    10    1
    10    10    11    1
    11    11    12    1
    12    11    13    1
    13    11    14    1
    14     4    15   ar
    15    15    16   ar
    16    16    17    1
    17    17    18   ar
    18    18    19   ar
    19    19    20   ar
    20    20    21    1
    21    20    22   ar
    22    22    23   ar
    23    16     2   ar
    24    23    17   ar
    25     1    24    1
    26     1    25    1
    27     1    26    1
    28     5    27    1
    29     8    28    1
    30     9    29    1
    31     9    30    1
    32     9    31    1
    33    10    32    1
    34    10    33    1
    35    18    34    1
    36    19    35    1
    37    21    36    1
    38    21    37    1
    39    23    38    1
