@<TRIPOS>MOLECULE
*****
 57 60 0 0 0
SMALL
GASTEIGER

@<TRIPOS>ATOM
      1 C           0.7419   -2.9655    2.5713 C.3     1  UNL1       -0.0421
      2 C           0.4807   -1.5719    2.1125 C.3     1  UNL1        0.0515
      3 C           1.4935   -1.1361    1.1147 C.ar    1  UNL1       -0.0271
      4 C           2.6032   -0.4569    1.6323 C.ar    1  UNL1       -0.0562
      5 C           3.6082   -0.0056    0.8091 C.ar    1  UNL1       -0.0537
      6 C           3.5590   -0.2044   -0.5441 C.ar    1  UNL1       -0.0179
      7 C           4.6249    0.2761   -1.4085 C.ar    1  UNL1       -0.0177
      8 C           5.3241    1.4173   -1.1005 C.ar    1  UNL1       -0.0513
      9 C           6.3282    1.8591   -1.9274 C.ar    1  UNL1       -0.0259
     10 C           6.6327    1.1427   -3.0797 C.ar    1  UNL1        0.1234
     11 F           7.6311    1.6231   -3.8588 F       1  UNL1       -0.2055
     12 C           5.9285   -0.0090   -3.3923 C.ar    1  UNL1       -0.0259
     13 C           4.9221   -0.4453   -2.5564 C.ar    1  UNL1       -0.0513
     14 C           2.4769   -0.8688   -1.0640 C.ar    1  UNL1       -0.0537
     15 C           1.4434   -1.3343   -0.2295 C.ar    1  UNL1       -0.0562
     16 N          -0.8317   -1.3008    1.6475 N.am    1  UNL1       -0.2605
     17 C          -1.6158   -0.2393    2.2812 C.3     1  UNL1        0.0224
     18 C          -2.9404   -0.0501    1.5827 C.3     1  UNL1        0.0075
     19 C          -2.7110    0.0914    0.0980 C.3     1  UNL1        0.1435
     20 C          -1.6300    1.0087   -0.3049 C.3     1  UNL1        0.0148
     21 C          -1.7168    2.4347    0.0886 C.3     1  UNL1        0.0482
     22 O          -0.5424    3.0946   -0.3877 O.3     1  UNL1       -0.3949
     23 C          -3.9975    0.2158   -0.6292 C.ar    1  UNL1       -0.0039
     24 C          -4.8180    1.3093   -0.4534 C.ar    1  UNL1       -0.0521
     25 C          -6.0178    1.4742   -1.1338 C.ar    1  UNL1       -0.0261
     26 C          -6.4037    0.5048   -2.0199 C.ar    1  UNL1        0.1234
     27 F          -7.5733    0.6402   -2.6998 F       1  UNL1       -0.2055
     28 C          -5.6119   -0.6130   -2.2294 C.ar    1  UNL1       -0.0261
     29 C          -4.4283   -0.7536   -1.5442 C.ar    1  UNL1       -0.0521
     30 O          -2.2273   -1.2364   -0.2959 O.3     1  UNL1       -0.4388
     31 C          -1.4798   -1.9888    0.5588 C.2     1  UNL1        0.4042
     32 O          -1.3083   -3.2328    0.4798 O.2     1  UNL1       -0.2262
     33 H           0.5253   -3.7381    1.8352 H       1  UNL1        0.0251
     34 H           1.8492   -3.0328    2.7765 H       1  UNL1        0.0251
     35 H           0.2719   -3.1644    3.5712 H       1  UNL1        0.0251
     36 H           0.6137   -0.9015    3.0375 H       1  UNL1        0.0549
     37 H           2.6840   -0.2786    2.6903 H       1  UNL1        0.0621
     38 H           4.4441    0.5176    1.2911 H       1  UNL1        0.0624
     39 H           5.0768    1.9733   -0.1916 H       1  UNL1        0.0624
     40 H           6.8680    2.7689   -1.6593 H       1  UNL1        0.0646
     41 H           6.2153   -0.5191   -4.3030 H       1  UNL1        0.0646
     42 H           4.3792   -1.3576   -2.8228 H       1  UNL1        0.0624
     43 H           2.3658   -1.0662   -2.1361 H       1  UNL1        0.0624
     44 H           0.6064   -1.8501   -0.6574 H       1  UNL1        0.0621
     45 H          -0.9944    0.6551    2.3188 H       1  UNL1        0.0467
     46 H          -1.8404   -0.5548    3.3220 H       1  UNL1        0.0467
     47 H          -3.5323   -0.9645    1.7377 H       1  UNL1        0.0322
     48 H          -3.4529    0.7986    2.0343 H       1  UNL1        0.0322
     49 H          -1.5633    0.9613   -1.4295 H       1  UNL1        0.0329
     50 H          -0.6626    0.6123    0.0853 H       1  UNL1        0.0329
     51 H          -2.5316    3.0205   -0.3890 H       1  UNL1        0.0558
     52 H          -1.7486    2.6389    1.1677 H       1  UNL1        0.0558
     53 H          -0.6823    3.3861   -1.3078 H       1  UNL1        0.2094
     54 H          -4.5038    2.0637    0.2729 H       1  UNL1        0.0622
     55 H          -6.6081    2.3703   -0.9368 H       1  UNL1        0.0646
     56 H          -5.9258   -1.3799   -2.9356 H       1  UNL1        0.0646
     57 H          -3.7981   -1.6385   -1.7082 H       1  UNL1        0.0622
@<TRIPOS>BOND
     1     1     2    1
     2     2     3    1
     3     3     4   ar
     4     4     5   ar
     5     5     6   ar
     6     6     7    1
     7     7     8   ar
     8     8     9   ar
     9     9    10   ar
    10    10    11    1
    11    10    12   ar
    12    12    13   ar
    13     6    14   ar
    14    14    15   ar
    15     2    16    1
    16    16    17    1
    17    17    18    1
    18    18    19    1
    19    19    20    1
    20    20    21    1
    21    21    22    1
    22    19    23    1
    23    23    24   ar
    24    24    25   ar
    25    25    26   ar
    26    26    27    1
    27    26    28   ar
    28    28    29   ar
    29    19    30    1
    30    30    31    1
    31    31    32    2
    32    15     3   ar
    33    31    16   am
    34    13     7   ar
    35    29    23   ar
    36     1    33    1
    37     1    34    1
    38     1    35    1
    39     2    36    1
    40     4    37    1
    41     5    38    1
    42     8    39    1
    43     9    40    1
    44    12    41    1
    45    13    42    1
    46    14    43    1
    47    15    44    1
    48    17    45    1
    49    17    46    1
    50    18    47    1
    51    18    48    1
    52    20    49    1
    53    20    50    1
    54    21    51    1
    55    21    52    1
    56    22    53    1
    57    24    54    1
    58    25    55    1
    59    28    56    1
    60    29    57    1
