
     RDKit          3D

 57 60  0  0  0  0  0  0  0  0999 V2000
    0.7419   -2.9655    2.5713 C   0  0  0  0  0  0  0  0  0  0  0  0
    0.4807   -1.5719    2.1125 C   0  0  1  0  0  0  0  0  0  0  0  0
    1.4935   -1.1361    1.1147 C   0  0  0  0  0  0  0  0  0  0  0  0
    2.6032   -0.4569    1.6323 C   0  0  0  0  0  0  0  0  0  0  0  0
    3.6082   -0.0056    0.8091 C   0  0  0  0  0  0  0  0  0  0  0  0
    3.5590   -0.2044   -0.5441 C   0  0  0  0  0  0  0  0  0  0  0  0
    4.6249    0.2761   -1.4085 C   0  0  0  0  0  0  0  0  0  0  0  0
    5.3241    1.4173   -1.1005 C   0  0  0  0  0  0  0  0  0  0  0  0
    6.3282    1.8591   -1.9274 C   0  0  0  0  0  0  0  0  0  0  0  0
    6.6327    1.1427   -3.0797 C   0  0  0  0  0  0  0  0  0  0  0  0
    7.6311    1.6231   -3.8588 F   0  0  0  0  0  0  0  0  0  0  0  0
    5.9285   -0.0090   -3.3923 C   0  0  0  0  0  0  0  0  0  0  0  0
    4.9221   -0.4453   -2.5564 C   0  0  0  0  0  0  0  0  0  0  0  0
    2.4769   -0.8688   -1.0640 C   0  0  0  0  0  0  0  0  0  0  0  0
    1.4434   -1.3343   -0.2295 C   0  0  0  0  0  0  0  0  0  0  0  0
   -0.8317   -1.3008    1.6475 N   0  0  0  0  0  0  0  0  0  0  0  0
   -1.6158   -0.2393    2.2812 C   0  0  0  0  0  0  0  0  0  0  0  0
   -2.9404   -0.0501    1.5827 C   0  0  0  0  0  0  0  0  0  0  0  0
   -2.7110    0.0914    0.0980 C   0  0  2  0  0  0  0  0  0  0  0  0
   -1.6300    1.0087   -0.3049 C   0  0  0  0  0  0  0  0  0  0  0  0
   -1.7168    2.4347    0.0886 C   0  0  0  0  0  0  0  0  0  0  0  0
   -0.5424    3.0946   -0.3877 O   0  0  0  0  0  0  0  0  0  0  0  0
   -3.9975    0.2158   -0.6292 C   0  0  0  0  0  0  0  0  0  0  0  0
   -4.8180    1.3093   -0.4534 C   0  0  0  0  0  0  0  0  0  0  0  0
   -6.0178    1.4742   -1.1338 C   0  0  0  0  0  0  0  0  0  0  0  0
   -6.4037    0.5048   -2.0199 C   0  0  0  0  0  0  0  0  0  0  0  0
   -7.5733    0.6402   -2.6998 F   0  0  0  0  0  0  0  0  0  0  0  0
   -5.6119   -0.6130   -2.2294 C   0  0  0  0  0  0  0  0  0  0  0  0
   -4.4283   -0.7536   -1.5442 C   0  0  0  0  0  0  0  0  0  0  0  0
   -2.2273   -1.2364   -0.2959 O   0  0  0  0  0  0  0  0  0  0  0  0
   -1.4798   -1.9888    0.5588 C   0  0  0  0  0  0  0  0  0  0  0  0
   -1.3083   -3.2328    0.4798 O   0  0  0  0  0  0  0  0  0  0  0  0
    0.5253   -3.7381    1.8352 H   0  0  0  0  0  0  0  0  0  0  0  0
    1.8492   -3.0328    2.7765 H   0  0  0  0  0  0  0  0  0  0  0  0
    0.2719   -3.1644    3.5712 H   0  0  0  0  0  0  0  0  0  0  0  0
    0.6137   -0.9015    3.0375 H   0  0  0  0  0  0  0  0  0  0  0  0
    2.6840   -0.2786    2.6903 H   0  0  0  0  0  0  0  0  0  0  0  0
    4.4441    0.5176    1.2911 H   0  0  0  0  0  0  0  0  0  0  0  0
    5.0768    1.9733   -0.1916 H   0  0  0  0  0  0  0  0  0  0  0  0
    6.8680    2.7689   -1.6593 H   0  0  0  0  0  0  0  0  0  0  0  0
    6.2153   -0.5191   -4.3030 H   0  0  0  0  0  0  0  0  0  0  0  0
    4.3792   -1.3576   -2.8228 H   0  0  0  0  0  0  0  0  0  0  0  0
    2.3658   -1.0662   -2.1361 H   0  0  0  0  0  0  0  0  0  0  0  0
    0.6064   -1.8501   -0.6574 H   0  0  0  0  0  0  0  0  0  0  0  0
   -0.9944    0.6551    2.3188 H   0  0  0  0  0  0  0  0  0  0  0  0
   -1.8404   -0.5548    3.3220 H   0  0  0  0  0  0  0  0  0  0  0  0
   -3.5323   -0.9645    1.7377 H   0  0  0  0  0  0  0  0  0  0  0  0
   -3.4529    0.7986    2.0343 H   0  0  0  0  0  0  0  0  0  0  0  0
   -1.5633    0.9613   -1.4295 H   0  0  0  0  0  0  0  0  0  0  0  0
   -0.6626    0.6123    0.0853 H   0  0  0  0  0  0  0  0  0  0  0  0
   -2.5316    3.0205   -0.3890 H   0  0  0  0  0  0  0  0  0  0  0  0
   -1.7486    2.6389    1.1677 H   0  0  0  0  0  0  0  0  0  0  0  0
   -0.6823    3.3861   -1.3078 H   0  0  0  0  0  0  0  0  0  0  0  0
   -4.5038    2.0637    0.2729 H   0  0  0  0  0  0  0  0  0  0  0  0
   -6.6081    2.3703   -0.9368 H   0  0  0  0  0  0  0  0  0  0  0  0
   -5.9258   -1.3799   -2.9356 H   0  0  0  0  0  0  0  0  0  0  0  0
   -3.7981   -1.6385   -1.7082 H   0  0  0  0  0  0  0  0  0  0  0  0
  1  2  1  0
  2  3  1  0
  3  4  2  0
  4  5  1  0
  5  6  2  0
  6  7  1  0
  7  8  2  0
  8  9  1  0
  9 10  2  0
 10 11  1  0
 10 12  1  0
 12 13  2  0
  6 14  1  0
 14 15  2  0
  2 16  1  0
 16 17  1  0
 17 18  1  0
 18 19  1  0
 19 20  1  1
 20 21  1  0
 21 22  1  0
 19 23  1  0
 23 24  2  0
 24 25  1  0
 25 26  2  0
 26 27  1  0
 26 28  1  0
 28 29  2  0
 19 30  1  0
 30 31  1  0
 31 32  2  0
 15  3  1  0
 31 16  1  0
 13  7  1  0
 29 23  1  0
  1 33  1  0
  1 34  1  0
  1 35  1  0
  2 36  1  1
  4 37  1  0
  5 38  1  0
  8 39  1  0
  9 40  1  0
 12 41  1  0
 13 42  1  0
 14 43  1  0
 15 44  1  0
 17 45  1  0
 17 46  1  0
 18 47  1  0
 18 48  1  0
 20 49  1  0
 20 50  1  0
 21 51  1  0
 21 52  1  0
 22 53  1  0
 24 54  1  0
 25 55  1  0
 28 56  1  0
 29 57  1  0
M  END
$$$$
