
     RDKit          3D

 43 46  0  0  0  0  0  0  0  0999 V2000
    5.5273   -1.6220    1.1913 C   0  0  0  0  0  0  0  0  0  0  0  0
    5.3344   -0.9263   -0.0919 C   0  0  0  0  0  0  0  0  0  0  0  0
    6.3450   -0.8639   -0.9925 C   0  0  0  0  0  0  0  0  0  0  0  0
    6.2240   -0.2280   -2.2091 C   0  0  0  0  0  0  0  0  0  0  0  0
    5.0240    0.3599   -2.5026 C   0  0  0  0  0  0  0  0  0  0  0  0
    3.9876    0.2918   -1.5705 C   0  0  0  0  0  0  0  0  0  0  0  0
    4.0927   -0.3375   -0.3554 C   0  0  0  0  0  0  0  0  0  0  0  0
    3.0524   -0.4159    0.5991 N   0  0  0  0  0  0  0  0  0  0  0  0
    1.7515    0.1114    0.4965 C   0  0  0  0  0  0  0  0  0  0  0  0
    1.4036    0.7252   -0.5113 O   0  0  0  0  0  0  0  0  0  0  0  0
    0.7958   -0.0232    1.5033 O   0  0  0  0  0  0  0  0  0  0  0  0
   -0.4749    0.5202    1.3437 C   0  0  0  0  0  0  0  0  0  0  0  0
   -0.7838    1.8057    1.7384 C   0  0  0  0  0  0  0  0  0  0  0  0
   -2.0497    2.3275    1.5721 C   0  0  0  0  0  0  0  0  0  0  0  0
   -3.0675    1.5915    1.0042 C   0  0  0  0  0  0  0  0  0  0  0  0
   -2.7819    0.3069    0.6030 C   0  0  0  0  0  0  0  0  0  0  0  0
   -1.4970   -0.2111    0.7763 C   0  0  0  0  0  0  0  0  0  0  0  0
   -4.0330   -0.2303    0.0375 C   0  0  2  0  0  0  0  0  0  0  0  0
   -4.2120   -1.7003    0.2781 C   0  0  0  0  0  0  0  0  0  0  0  0
   -4.2377    0.1624   -1.4039 C   0  0  0  0  0  0  0  0  0  0  0  0
   -5.6505    0.6742   -1.4037 C   0  0  0  0  0  0  0  0  0  0  0  0
   -6.1475    0.5721   -0.1317 O   0  0  0  0  0  0  0  0  0  0  0  0
   -5.0868    0.6006    0.7323 C   0  0  0  0  0  0  0  0  0  0  0  0
   -4.4205    1.8753    0.7243 O   0  0  0  0  0  0  0  0  0  0  0  0
    6.5783   -1.9062    1.2960 H   0  0  0  0  0  0  0  0  0  0  0  0
    4.9080   -2.5382    1.2637 H   0  0  0  0  0  0  0  0  0  0  0  0
    5.2543   -0.9455    2.0350 H   0  0  0  0  0  0  0  0  0  0  0  0
    7.2997   -1.3209   -0.7807 H   0  0  0  0  0  0  0  0  0  0  0  0
    7.0437   -0.1897   -2.9141 H   0  0  0  0  0  0  0  0  0  0  0  0
    4.9102    0.8622   -3.4495 H   0  0  0  0  0  0  0  0  0  0  0  0
    3.0844    0.7826   -1.8904 H   0  0  0  0  0  0  0  0  0  0  0  0
    3.2866   -0.9364    1.5001 H   0  0  0  0  0  0  0  0  0  0  0  0
    0.0102    2.3877    2.1845 H   0  0  0  0  0  0  0  0  0  0  0  0
   -2.2868    3.3543    1.8900 H   0  0  0  0  0  0  0  0  0  0  0  0
   -1.2837   -1.2320    0.4538 H   0  0  0  0  0  0  0  0  0  0  0  0
   -3.9037   -2.2527   -0.6185 H   0  0  0  0  0  0  0  0  0  0  0  0
   -3.7219   -2.0055    1.2070 H   0  0  0  0  0  0  0  0  0  0  0  0
   -5.3130   -1.8767    0.3878 H   0  0  0  0  0  0  0  0  0  0  0  0
   -3.5743    1.0507   -1.5811 H   0  0  0  0  0  0  0  0  0  0  0  0
   -4.0557   -0.6465   -2.1164 H   0  0  0  0  0  0  0  0  0  0  0  0
   -5.7209    1.7350   -1.7243 H   0  0  0  0  0  0  0  0  0  0  0  0
   -6.3013    0.0480   -2.0680 H   0  0  0  0  0  0  0  0  0  0  0  0
   -5.3098    0.2636    1.7407 H   0  0  0  0  0  0  0  0  0  0  0  0
  1  2  1  0
  2  3  2  0
  3  4  1  0
  4  5  2  0
  5  6  1  0
  6  7  2  0
  7  8  1  0
  8  9  1  0
  9 10  2  0
  9 11  1  0
 11 12  1  0
 12 13  2  0
 13 14  1  0
 14 15  2  0
 15 16  1  0
 16 17  2  0
 16 18  1  0
 18 19  1  6
 18 20  1  0
 20 21  1  0
 21 22  1  0
 22 23  1  0
 23 24  1  0
  7  2  1  0
 17 12  1  0
 23 18  1  0
 24 15  1  0
  1 25  1  0
  1 26  1  0
  1 27  1  0
  3 28  1  0
  4 29  1  0
  5 30  1  0
  6 31  1  0
  8 32  1  0
 13 33  1  0
 14 34  1  0
 17 35  1  0
 19 36  1  0
 19 37  1  0
 19 38  1  0
 20 39  1  0
 20 40  1  0
 21 41  1  0
 21 42  1  0
 23 43  1  0
M  END
$$$$
