@<TRIPOS>MOLECULE
*****
 43 46 0 0 0
SMALL
GASTEIGER

@<TRIPOS>ATOM
      1 C           5.5273   -1.6220    1.1913 C.3     1  UNL1       -0.0380
      2 C           5.3344   -0.9263   -0.0919 C.ar    1  UNL1       -0.0291
      3 C           6.3450   -0.8639   -0.9925 C.ar    1  UNL1       -0.0571
      4 C           6.2240   -0.2280   -2.2091 C.ar    1  UNL1       -0.0614
      5 C           5.0240    0.3599   -2.5026 C.ar    1  UNL1       -0.0600
      6 C           3.9876    0.2918   -1.5705 C.ar    1  UNL1       -0.0401
      7 C           4.0927   -0.3375   -0.3554 C.ar    1  UNL1        0.0394
      8 N           3.0524   -0.4159    0.5991 N.am    1  UNL1       -0.2506
      9 C           1.7515    0.1114    0.4965 C.2     1  UNL1        0.4099
     10 O           1.4036    0.7252   -0.5113 O.2     1  UNL1       -0.2257
     11 O           0.7958   -0.0232    1.5033 O.3     1  UNL1       -0.4113
     12 C          -0.4749    0.5202    1.3437 C.ar    1  UNL1        0.1337
     13 C          -0.7838    1.8057    1.7384 C.ar    1  UNL1       -0.0157
     14 C          -2.0497    2.3275    1.5721 C.ar    1  UNL1       -0.0161
     15 C          -3.0675    1.5915    1.0042 C.ar    1  UNL1        0.1280
     16 C          -2.7819    0.3069    0.6030 C.ar    1  UNL1        0.0098
     17 C          -1.4970   -0.2111    0.7763 C.ar    1  UNL1       -0.0118
     18 C          -4.0330   -0.2303    0.0375 C.3     1  UNL1        0.0608
     19 C          -4.2120   -1.7003    0.2781 C.3     1  UNL1       -0.0496
     20 C          -4.2377    0.1624   -1.4039 C.3     1  UNL1       -0.0141
     21 C          -5.6505    0.6742   -1.4037 C.3     1  UNL1        0.0527
     22 O          -6.1475    0.5721   -0.1317 O.3     1  UNL1       -0.3408
     23 C          -5.0868    0.6006    0.7323 C.3     1  UNL1        0.2113
     24 O          -4.4205    1.8753    0.7243 O.3     1  UNL1       -0.4624
     25 H           6.5783   -1.9062    1.2960 H       1  UNL1        0.0278
     26 H           4.9080   -2.5382    1.2637 H       1  UNL1        0.0278
     27 H           5.2543   -0.9455    2.0350 H       1  UNL1        0.0278
     28 H           7.2997   -1.3209   -0.7807 H       1  UNL1        0.0621
     29 H           7.0437   -0.1897   -2.9141 H       1  UNL1        0.0618
     30 H           4.9102    0.8622   -3.4495 H       1  UNL1        0.0618
     31 H           3.0844    0.7826   -1.8904 H       1  UNL1        0.0636
     32 H           3.2866   -0.9364    1.5001 H       1  UNL1        0.1582
     33 H           0.0102    2.3877    2.1845 H       1  UNL1        0.0655
     34 H          -2.2868    3.3543    1.8900 H       1  UNL1        0.0655
     35 H          -1.2837   -1.2320    0.4538 H       1  UNL1        0.0658
     36 H          -3.9037   -2.2527   -0.6185 H       1  UNL1        0.0240
     37 H          -3.7219   -2.0055    1.2070 H       1  UNL1        0.0240
     38 H          -5.3130   -1.8767    0.3878 H       1  UNL1        0.0240
     39 H          -3.5743    1.0507   -1.5811 H       1  UNL1        0.0298
     40 H          -4.0557   -0.6465   -2.1164 H       1  UNL1        0.0298
     41 H          -5.7209    1.7350   -1.7243 H       1  UNL1        0.0561
     42 H          -6.3013    0.0480   -2.0680 H       1  UNL1        0.0561
     43 H          -5.3098    0.2636    1.7407 H       1  UNL1        0.1065
@<TRIPOS>BOND
     1     1     2    1
     2     2     3   ar
     3     3     4   ar
     4     4     5   ar
     5     5     6   ar
     6     6     7   ar
     7     7     8    1
     8     8     9   am
     9     9    10    2
    10     9    11    1
    11    11    12    1
    12    12    13   ar
    13    13    14   ar
    14    14    15   ar
    15    15    16   ar
    16    16    17   ar
    17    16    18    1
    18    18    19    1
    19    18    20    1
    20    20    21    1
    21    21    22    1
    22    22    23    1
    23    23    24    1
    24     7     2   ar
    25    17    12   ar
    26    23    18    1
    27    24    15    1
    28     1    25    1
    29     1    26    1
    30     1    27    1
    31     3    28    1
    32     4    29    1
    33     5    30    1
    34     6    31    1
    35     8    32    1
    36    13    33    1
    37    14    34    1
    38    17    35    1
    39    19    36    1
    40    19    37    1
    41    19    38    1
    42    20    39    1
    43    20    40    1
    44    21    41    1
    45    21    42    1
    46    23    43    1
