@<TRIPOS>MOLECULE
*****
 53 55 0 0 0
SMALL
GASTEIGER

@<TRIPOS>ATOM
      1 C           0.6729   -0.8460   -2.6364 C.3     1  UNL1       -0.0620
      2 C           1.2910   -0.7410   -1.2500 C.3     1  UNL1       -0.0353
      3 C           0.8655   -1.9253   -0.4043 C.3     1  UNL1       -0.0620
      4 C           1.0045    0.5880   -0.6364 C.3     1  UNL1        0.0418
      5 C           1.6022    0.7482    0.7194 C.3     1  UNL1       -0.0163
      6 C           3.0652    0.6304    0.6971 C.ar    1  UNL1       -0.0466
      7 C           3.7283   -0.5557    0.9166 C.ar    1  UNL1       -0.0580
      8 C           5.1172   -0.6520    0.8826 C.ar    1  UNL1       -0.0499
      9 C           5.8099    0.5078    0.6162 C.ar    1  UNL1        0.0548
     10 C           7.3071    0.4744    0.5650 C.3     1  UNL1        0.4174
     11 F           7.8148   -0.4909    1.3832 F       1  UNL1       -0.1659
     12 F           7.7994    1.7071    0.9205 F       1  UNL1       -0.1659
     13 F           7.6805    0.2106   -0.7519 F       1  UNL1       -0.1659
     14 C           5.1484    1.7071    0.3942 C.ar    1  UNL1       -0.0499
     15 C           3.7801    1.8039    0.4271 C.ar    1  UNL1       -0.0580
     16 C          -0.4117    0.9858   -0.6968 C.2     1  UNL1        0.2167
     17 O          -0.7215    2.0353   -1.3126 O.2     1  UNL1       -0.2755
     18 N          -1.4670    0.2536   -0.0976 N.am    1  UNL1       -0.3125
     19 C          -2.8201    0.7403   -0.2226 C.3     1  UNL1        0.0418
     20 C          -3.8164   -0.1492    0.4674 C.3     1  UNL1        0.1305
     21 C          -5.1950    0.4549    0.2721 C.3     1  UNL1       -0.0096
     22 C          -5.7253    0.6406   -1.0997 C.3     1  UNL1       -0.0474
     23 C          -5.3229    1.8362   -0.2473 C.3     1  UNL1       -0.0474
     24 N          -3.8467   -1.4790   -0.0844 N.am    1  UNL1       -0.2834
     25 C          -3.9556   -2.4322    0.9850 C.2     1  UNL1        0.3068
     26 O          -4.1889   -3.6642    0.8624 O.2     1  UNL1       -0.2524
     27 N          -3.7513   -1.7250    2.2018 N.am    1  UNL1       -0.2383
     28 C          -3.5191   -0.3525    1.8877 C.2     1  UNL1        0.2457
     29 O          -3.1251    0.4868    2.7389 O.2     1  UNL1       -0.2729
     30 H           1.3995   -0.5860   -3.4362 H       1  UNL1        0.0233
     31 H          -0.1959   -0.1975   -2.7682 H       1  UNL1        0.0233
     32 H           0.4334   -1.9271   -2.7864 H       1  UNL1        0.0233
     33 H           2.3847   -0.8256   -1.3871 H       1  UNL1        0.0303
     34 H          -0.0947   -2.3153   -0.8076 H       1  UNL1        0.0233
     35 H           1.5847   -2.7876   -0.5471 H       1  UNL1        0.0233
     36 H           0.8487   -1.7425    0.6667 H       1  UNL1        0.0233
     37 H           1.5695    1.3282   -1.2869 H       1  UNL1        0.0400
     38 H           1.2026    0.0758    1.4963 H       1  UNL1        0.0321
     39 H           1.3213    1.7827    1.0799 H       1  UNL1        0.0321
     40 H           3.2141   -1.4784    1.1344 H       1  UNL1        0.0620
     41 H           5.6585   -1.5706    1.0514 H       1  UNL1        0.0623
     42 H           5.7255    2.5997    0.1875 H       1  UNL1        0.0623
     43 H           3.2901    2.7466    0.2514 H       1  UNL1        0.0620
     44 H          -1.2419   -0.6066    0.4127 H       1  UNL1        0.1488
     45 H          -2.8436    1.7234    0.3313 H       1  UNL1        0.0488
     46 H          -3.1109    0.9145   -1.2592 H       1  UNL1        0.0488
     47 H          -5.9206    0.1732    1.0684 H       1  UNL1        0.0327
     48 H          -5.0699    0.3466   -1.9457 H       1  UNL1        0.0269
     49 H          -6.7950    0.5921   -1.3095 H       1  UNL1        0.0269
     50 H          -6.1259    2.4831    0.1658 H       1  UNL1        0.0269
     51 H          -4.4857    2.4005   -0.6713 H       1  UNL1        0.0269
     52 H          -3.8023   -1.7914   -1.0772 H       1  UNL1        0.1513
     53 H          -3.7667   -2.1360    3.1762 H       1  UNL1        0.1591
@<TRIPOS>BOND
     1     1     2    1
     2     2     3    1
     3     2     4    1
     4     4     5    1
     5     5     6    1
     6     6     7   ar
     7     7     8   ar
     8     8     9   ar
     9     9    10    1
    10    10    11    1
    11    10    12    1
    12    10    13    1
    13     9    14   ar
    14    14    15   ar
    15     4    16    1
    16    16    17    2
    17    16    18   am
    18    18    19    1
    19    20    19    1
    20    20    21    1
    21    21    22    1
    22    22    23    1
    23    20    24    1
    24    24    25   am
    25    25    26    2
    26    25    27   am
    27    27    28   am
    28    28    29    2
    29    15     6   ar
    30    28    20    1
    31    23    21    1
    32     1    30    1
    33     1    31    1
    34     1    32    1
    35     2    33    1
    36     3    34    1
    37     3    35    1
    38     3    36    1
    39     4    37    1
    40     5    38    1
    41     5    39    1
    42     7    40    1
    43     8    41    1
    44    14    42    1
    45    15    43    1
    46    18    44    1
    47    19    45    1
    48    19    46    1
    49    21    47    1
    50    22    48    1
    51    22    49    1
    52    23    50    1
    53    23    51    1
    54    24    52    1
    55    27    53    1
