
     RDKit          3D

 53 55  0  0  0  0  0  0  0  0999 V2000
    0.6729   -0.8460   -2.6364 C   0  0  0  0  0  0  0  0  0  0  0  0
    1.2910   -0.7410   -1.2500 C   0  0  0  0  0  0  0  0  0  0  0  0
    0.8655   -1.9253   -0.4043 C   0  0  0  0  0  0  0  0  0  0  0  0
    1.0045    0.5880   -0.6364 C   0  0  2  0  0  0  0  0  0  0  0  0
    1.6022    0.7482    0.7194 C   0  0  0  0  0  0  0  0  0  0  0  0
    3.0652    0.6304    0.6971 C   0  0  0  0  0  0  0  0  0  0  0  0
    3.7283   -0.5557    0.9166 C   0  0  0  0  0  0  0  0  0  0  0  0
    5.1172   -0.6520    0.8826 C   0  0  0  0  0  0  0  0  0  0  0  0
    5.8099    0.5078    0.6162 C   0  0  0  0  0  0  0  0  0  0  0  0
    7.3071    0.4744    0.5650 C   0  0  0  0  0  0  0  0  0  0  0  0
    7.8148   -0.4909    1.3832 F   0  0  0  0  0  0  0  0  0  0  0  0
    7.7994    1.7071    0.9205 F   0  0  0  0  0  0  0  0  0  0  0  0
    7.6805    0.2106   -0.7519 F   0  0  0  0  0  0  0  0  0  0  0  0
    5.1484    1.7071    0.3942 C   0  0  0  0  0  0  0  0  0  0  0  0
    3.7801    1.8039    0.4271 C   0  0  0  0  0  0  0  0  0  0  0  0
   -0.4117    0.9858   -0.6968 C   0  0  0  0  0  0  0  0  0  0  0  0
   -0.7215    2.0353   -1.3126 O   0  0  0  0  0  0  0  0  0  0  0  0
   -1.4670    0.2536   -0.0976 N   0  0  0  0  0  0  0  0  0  0  0  0
   -2.8201    0.7403   -0.2226 C   0  0  0  0  0  0  0  0  0  0  0  0
   -3.8164   -0.1492    0.4674 C   0  0  1  0  0  0  0  0  0  0  0  0
   -5.1950    0.4549    0.2721 C   0  0  0  0  0  0  0  0  0  0  0  0
   -5.7253    0.6406   -1.0997 C   0  0  0  0  0  0  0  0  0  0  0  0
   -5.3229    1.8362   -0.2473 C   0  0  0  0  0  0  0  0  0  0  0  0
   -3.8467   -1.4790   -0.0844 N   0  0  0  0  0  0  0  0  0  0  0  0
   -3.9556   -2.4322    0.9850 C   0  0  0  0  0  0  0  0  0  0  0  0
   -4.1889   -3.6642    0.8624 O   0  0  0  0  0  0  0  0  0  0  0  0
   -3.7513   -1.7250    2.2018 N   0  0  0  0  0  0  0  0  0  0  0  0
   -3.5191   -0.3525    1.8877 C   0  0  0  0  0  0  0  0  0  0  0  0
   -3.1251    0.4868    2.7389 O   0  0  0  0  0  0  0  0  0  0  0  0
    1.3995   -0.5860   -3.4362 H   0  0  0  0  0  0  0  0  0  0  0  0
   -0.1959   -0.1975   -2.7682 H   0  0  0  0  0  0  0  0  0  0  0  0
    0.4334   -1.9271   -2.7864 H   0  0  0  0  0  0  0  0  0  0  0  0
    2.3847   -0.8256   -1.3871 H   0  0  0  0  0  0  0  0  0  0  0  0
   -0.0947   -2.3153   -0.8076 H   0  0  0  0  0  0  0  0  0  0  0  0
    1.5847   -2.7876   -0.5471 H   0  0  0  0  0  0  0  0  0  0  0  0
    0.8487   -1.7425    0.6667 H   0  0  0  0  0  0  0  0  0  0  0  0
    1.5695    1.3282   -1.2869 H   0  0  0  0  0  0  0  0  0  0  0  0
    1.2026    0.0758    1.4963 H   0  0  0  0  0  0  0  0  0  0  0  0
    1.3213    1.7827    1.0799 H   0  0  0  0  0  0  0  0  0  0  0  0
    3.2141   -1.4784    1.1344 H   0  0  0  0  0  0  0  0  0  0  0  0
    5.6585   -1.5706    1.0514 H   0  0  0  0  0  0  0  0  0  0  0  0
    5.7255    2.5997    0.1875 H   0  0  0  0  0  0  0  0  0  0  0  0
    3.2901    2.7466    0.2514 H   0  0  0  0  0  0  0  0  0  0  0  0
   -1.2419   -0.6066    0.4127 H   0  0  0  0  0  0  0  0  0  0  0  0
   -2.8436    1.7234    0.3313 H   0  0  0  0  0  0  0  0  0  0  0  0
   -3.1109    0.9145   -1.2592 H   0  0  0  0  0  0  0  0  0  0  0  0
   -5.9206    0.1732    1.0684 H   0  0  0  0  0  0  0  0  0  0  0  0
   -5.0699    0.3466   -1.9457 H   0  0  0  0  0  0  0  0  0  0  0  0
   -6.7950    0.5921   -1.3095 H   0  0  0  0  0  0  0  0  0  0  0  0
   -6.1259    2.4831    0.1658 H   0  0  0  0  0  0  0  0  0  0  0  0
   -4.4857    2.4005   -0.6713 H   0  0  0  0  0  0  0  0  0  0  0  0
   -3.8023   -1.7914   -1.0772 H   0  0  0  0  0  0  0  0  0  0  0  0
   -3.7667   -2.1360    3.1762 H   0  0  0  0  0  0  0  0  0  0  0  0
  1  2  1  0
  2  3  1  0
  2  4  1  0
  4  5  1  0
  5  6  1  0
  6  7  2  0
  7  8  1  0
  8  9  2  0
  9 10  1  0
 10 11  1  0
 10 12  1  0
 10 13  1  0
  9 14  1  0
 14 15  2  0
  4 16  1  0
 16 17  2  0
 16 18  1  0
 18 19  1  0
 20 19  1  6
 20 21  1  0
 21 22  1  0
 22 23  1  0
 20 24  1  0
 24 25  1  0
 25 26  2  0
 25 27  1  0
 27 28  1  0
 28 29  2  0
 15  6  1  0
 28 20  1  0
 23 21  1  0
  1 30  1  0
  1 31  1  0
  1 32  1  0
  2 33  1  0
  3 34  1  0
  3 35  1  0
  3 36  1  0
  4 37  1  6
  5 38  1  0
  5 39  1  0
  7 40  1  0
  8 41  1  0
 14 42  1  0
 15 43  1  0
 18 44  1  0
 19 45  1  0
 19 46  1  0
 21 47  1  0
 22 48  1  0
 22 49  1  0
 23 50  1  0
 23 51  1  0
 24 52  1  0
 27 53  1  0
M  END
$$$$
