@<TRIPOS>MOLECULE
*****
 49 52 0 0 0
SMALL
GASTEIGER

@<TRIPOS>ATOM
      1 C          -1.3142   -2.3192   -0.1842 C.3     1  UNL1       -0.0112
      2 C          -2.0885   -1.0029   -0.0862 C.3     1  UNL1        0.1961
      3 C          -1.2160    0.0684   -0.6218 C.ar    1  UNL1        0.0420
      4 C           0.0170   -0.2398   -1.1273 C.ar    1  UNL1       -0.0301
      5 C           0.8659    0.7385   -1.6706 C.ar    1  UNL1        0.0330
      6 N           2.1333    0.3350   -2.1677 N.pl3   1  UNL1       -0.2976
      7 C           3.2014   -0.1074   -1.3700 C.ar    1  UNL1        0.1523
      8 N           3.2746   -1.3076   -0.8197 N.ar    1  UNL1       -0.2184
      9 C           4.3407   -1.7005   -0.0587 C.ar    1  UNL1        0.1188
     10 N           5.3690   -0.8698    0.1615 N.ar    1  UNL1       -0.2337
     11 C           5.3294    0.3709   -0.3872 C.ar    1  UNL1        0.0955
     12 C           6.3815    1.2633   -0.1818 C.ar    1  UNL1       -0.0152
     13 C           6.3693    2.5266   -0.7271 C.ar    1  UNL1        0.0719
     14 C           7.4628    3.4586   -0.5184 C.1     1  UNL1        0.1007
     15 N           8.3091    4.1911   -0.3380 N.1     1  UNL1       -0.1908
     16 C           5.2712    2.8597   -1.4805 C.ar    1  UNL1        0.0459
     17 N           4.2649    2.0016   -1.6743 N.ar    1  UNL1       -0.2487
     18 C           4.2643    0.7814   -1.1543 C.ar    1  UNL1        0.1291
     19 C           0.4065    2.0376   -1.6755 C.ar    1  UNL1       -0.0378
     20 C          -0.8367    2.3577   -1.1659 C.ar    1  UNL1       -0.0243
     21 C          -1.6511    1.3828   -0.6392 C.ar    1  UNL1        0.1311
     22 F          -2.8718    1.6220   -0.1155 F       1  UNL1       -0.2050
     23 C          -3.3351   -1.1634   -0.9089 C.3     1  UNL1        0.1212
     24 S          -4.4951   -2.1204    0.0236 S.O2    1  UNL1        0.0192
     25 O          -4.1828   -3.5961    0.0085 O.2     1  UNL1       -0.1706
     26 O          -5.8604   -1.9170   -0.6469 O.2     1  UNL1       -0.1706
     27 C          -4.5627   -1.4530    1.6504 C.3     1  UNL1        0.3220
     28 C          -5.7117   -0.4608    1.7219 C.3     1  UNL1        0.0013
     29 F          -4.9077   -2.4509    2.5864 F       1  UNL1       -0.2044
     30 C          -3.3185   -0.7965    2.0324 C.2     1  UNL1        0.3390
     31 N          -3.2621   -0.3066    3.4148 N.pl3   1  UNL1       -0.2465
     32 N          -2.3504   -0.6491    1.2683 N.2     1  UNL1       -0.0700
     33 H          -1.9294   -3.1620    0.2021 H       1  UNL1        0.0279
     34 H          -0.3760   -2.3222    0.3647 H       1  UNL1        0.0279
     35 H          -1.1176   -2.5235   -1.2485 H       1  UNL1        0.0279
     36 H           0.4155   -1.2647   -1.1374 H       1  UNL1        0.0641
     37 H           2.3169    0.3570   -3.2169 H       1  UNL1        0.1536
     38 H           4.3846   -2.6842    0.3860 H       1  UNL1        0.1048
     39 H           7.2194    0.9320    0.4269 H       1  UNL1        0.0653
     40 H           5.2678    3.8726   -1.9162 H       1  UNL1        0.0843
     41 H           1.0651    2.7893   -2.0961 H       1  UNL1        0.0637
     42 H          -1.1580    3.3824   -1.1871 H       1  UNL1        0.0647
     43 H          -3.8122   -0.1853   -1.0867 H       1  UNL1        0.0551
     44 H          -3.0774   -1.6885   -1.8525 H       1  UNL1        0.0551
     45 H          -6.6191   -1.0061    1.3408 H       1  UNL1        0.0283
     46 H          -5.5309    0.4738    1.1900 H       1  UNL1        0.0283
     47 H          -5.9135   -0.2722    2.8047 H       1  UNL1        0.0283
     48 H          -2.5664    0.4288    3.5929 H       1  UNL1        0.2882
     49 H          -3.8645   -0.6615    4.1543 H       1  UNL1        0.2882
@<TRIPOS>BOND
     1     2     1    1
     2     2     3    1
     3     3     4   ar
     4     4     5   ar
     5     5     6    1
     6     6     7    1
     7     7     8   ar
     8     8     9   ar
     9     9    10   ar
    10    10    11   ar
    11    11    12   ar
    12    12    13   ar
    13    13    14    1
    14    14    15    3
    15    13    16   ar
    16    16    17   ar
    17    17    18   ar
    18     5    19   ar
    19    19    20   ar
    20    20    21   ar
    21    21    22    1
    22     2    23    1
    23    23    24    1
    24    24    25    2
    25    24    26    2
    26    24    27    1
    27    27    28    1
    28    27    29    1
    29    27    30    1
    30    30    31    1
    31    30    32    2
    32    32     2    1
    33    21     3   ar
    34    18     7   ar
    35    18    11   ar
    36     1    33    1
    37     1    34    1
    38     1    35    1
    39     4    36    1
    40     6    37    1
    41     9    38    1
    42    12    39    1
    43    16    40    1
    44    19    41    1
    45    20    42    1
    46    23    43    1
    47    23    44    1
    48    28    45    1
    49    28    46    1
    50    28    47    1
    51    31    48    1
    52    31    49    1
