
     RDKit          3D

 49 52  0  0  0  0  0  0  0  0999 V2000
   -1.3142   -2.3192   -0.1842 C   0  0  0  0  0  0  0  0  0  0  0  0
   -2.0885   -1.0029   -0.0862 C   0  0  1  0  0  0  0  0  0  0  0  0
   -1.2160    0.0684   -0.6218 C   0  0  0  0  0  0  0  0  0  0  0  0
    0.0170   -0.2398   -1.1273 C   0  0  0  0  0  0  0  0  0  0  0  0
    0.8659    0.7385   -1.6706 C   0  0  0  0  0  0  0  0  0  0  0  0
    2.1333    0.3350   -2.1677 N   0  0  0  0  0  0  0  0  0  0  0  0
    3.2014   -0.1074   -1.3700 C   0  0  0  0  0  0  0  0  0  0  0  0
    3.2746   -1.3076   -0.8197 N   0  0  0  0  0  0  0  0  0  0  0  0
    4.3407   -1.7005   -0.0587 C   0  0  0  0  0  0  0  0  0  0  0  0
    5.3690   -0.8698    0.1615 N   0  0  0  0  0  0  0  0  0  0  0  0
    5.3294    0.3709   -0.3872 C   0  0  0  0  0  0  0  0  0  0  0  0
    6.3815    1.2633   -0.1818 C   0  0  0  0  0  0  0  0  0  0  0  0
    6.3693    2.5266   -0.7271 C   0  0  0  0  0  0  0  0  0  0  0  0
    7.4628    3.4586   -0.5184 C   0  0  0  0  0  0  0  0  0  0  0  0
    8.3091    4.1911   -0.3380 N   0  0  0  0  0  0  0  0  0  0  0  0
    5.2712    2.8597   -1.4805 C   0  0  0  0  0  0  0  0  0  0  0  0
    4.2649    2.0016   -1.6743 N   0  0  0  0  0  0  0  0  0  0  0  0
    4.2643    0.7814   -1.1543 C   0  0  0  0  0  0  0  0  0  0  0  0
    0.4065    2.0376   -1.6755 C   0  0  0  0  0  0  0  0  0  0  0  0
   -0.8367    2.3577   -1.1659 C   0  0  0  0  0  0  0  0  0  0  0  0
   -1.6511    1.3828   -0.6392 C   0  0  0  0  0  0  0  0  0  0  0  0
   -2.8718    1.6220   -0.1155 F   0  0  0  0  0  0  0  0  0  0  0  0
   -3.3351   -1.1634   -0.9089 C   0  0  0  0  0  0  0  0  0  0  0  0
   -4.4951   -2.1204    0.0236 S   0  0  0  0  0  6  0  0  0  0  0  0
   -4.1828   -3.5961    0.0085 O   0  0  0  0  0  0  0  0  0  0  0  0
   -5.8604   -1.9170   -0.6469 O   0  0  0  0  0  0  0  0  0  0  0  0
   -4.5627   -1.4530    1.6504 C   0  0  1  0  0  0  0  0  0  0  0  0
   -5.7117   -0.4608    1.7219 C   0  0  0  0  0  0  0  0  0  0  0  0
   -4.9077   -2.4509    2.5864 F   0  0  0  0  0  0  0  0  0  0  0  0
   -3.3185   -0.7965    2.0324 C   0  0  0  0  0  0  0  0  0  0  0  0
   -3.2621   -0.3066    3.4148 N   0  0  0  0  0  0  0  0  0  0  0  0
   -2.3504   -0.6491    1.2683 N   0  0  0  0  0  0  0  0  0  0  0  0
   -1.9294   -3.1620    0.2021 H   0  0  0  0  0  0  0  0  0  0  0  0
   -0.3760   -2.3222    0.3647 H   0  0  0  0  0  0  0  0  0  0  0  0
   -1.1176   -2.5235   -1.2485 H   0  0  0  0  0  0  0  0  0  0  0  0
    0.4155   -1.2647   -1.1374 H   0  0  0  0  0  0  0  0  0  0  0  0
    2.3169    0.3570   -3.2169 H   0  0  0  0  0  0  0  0  0  0  0  0
    4.3846   -2.6842    0.3860 H   0  0  0  0  0  0  0  0  0  0  0  0
    7.2194    0.9320    0.4269 H   0  0  0  0  0  0  0  0  0  0  0  0
    5.2678    3.8726   -1.9162 H   0  0  0  0  0  0  0  0  0  0  0  0
    1.0651    2.7893   -2.0961 H   0  0  0  0  0  0  0  0  0  0  0  0
   -1.1580    3.3824   -1.1871 H   0  0  0  0  0  0  0  0  0  0  0  0
   -3.8122   -0.1853   -1.0867 H   0  0  0  0  0  0  0  0  0  0  0  0
   -3.0774   -1.6885   -1.8525 H   0  0  0  0  0  0  0  0  0  0  0  0
   -6.6191   -1.0061    1.3408 H   0  0  0  0  0  0  0  0  0  0  0  0
   -5.5309    0.4738    1.1900 H   0  0  0  0  0  0  0  0  0  0  0  0
   -5.9135   -0.2722    2.8047 H   0  0  0  0  0  0  0  0  0  0  0  0
   -2.5664    0.4288    3.5929 H   0  0  0  0  0  0  0  0  0  0  0  0
   -3.8645   -0.6615    4.1543 H   0  0  0  0  0  0  0  0  0  0  0  0
  2  1  1  1
  2  3  1  0
  3  4  2  0
  4  5  1  0
  5  6  1  0
  6  7  1  0
  7  8  2  0
  8  9  1  0
  9 10  2  0
 10 11  1  0
 11 12  2  0
 12 13  1  0
 13 14  1  0
 14 15  3  0
 13 16  2  0
 16 17  1  0
 17 18  2  0
  5 19  2  0
 19 20  1  0
 20 21  2  0
 21 22  1  0
  2 23  1  0
 23 24  1  0
 24 25  2  0
 24 26  2  0
 24 27  1  0
 27 28  1  0
 27 29  1  1
 27 30  1  0
 30 31  1  0
 30 32  2  0
 32  2  1  0
 21  3  1  0
 18  7  1  0
 18 11  1  0
  1 33  1  0
  1 34  1  0
  1 35  1  0
  4 36  1  0
  6 37  1  0
  9 38  1  0
 12 39  1  0
 16 40  1  0
 19 41  1  0
 20 42  1  0
 23 43  1  0
 23 44  1  0
 28 45  1  0
 28 46  1  0
 28 47  1  0
 31 48  1  0
 31 49  1  0
M  END
$$$$
