@<TRIPOS>MOLECULE
*****
 46 47 0 0 0
SMALL
GASTEIGER

@<TRIPOS>ATOM
      1 O           1.8926    2.5931   -1.6623 O.2     1  UNL1       -0.2737
      2 C           1.5024    2.5811   -0.4704 C.2     1  UNL1        0.2362
      3 C           0.8364    1.4276    0.1408 C.3     1  UNL1        0.0373
      4 C           0.6874    0.2379   -0.7720 C.3     1  UNL1        0.0480
      5 C           1.9512   -0.3552   -1.2635 C.3     1  UNL1       -0.0161
      6 C           2.8880   -0.8800   -0.2643 C.ar    1  UNL1       -0.0466
      7 C           2.9159   -2.2234    0.0333 C.ar    1  UNL1       -0.0586
      8 C           3.7877   -2.7465    0.9976 C.ar    1  UNL1       -0.0615
      9 C           4.6426   -1.8961    1.6678 C.ar    1  UNL1       -0.0617
     10 C           4.5957   -0.5683    1.3531 C.ar    1  UNL1       -0.0615
     11 C           3.7467   -0.0376    0.4101 C.ar    1  UNL1       -0.0586
     12 C          -0.3110   -0.6941   -0.2675 C.2     1  UNL1        0.2201
     13 O           0.0698   -1.8033    0.2475 O.2     1  UNL1       -0.2753
     14 N          -1.6878   -0.4505   -0.3119 N.am    1  UNL1       -0.2878
     15 C          -2.2668    0.7161   -0.8816 C.3     1  UNL1        0.0155
     16 C          -3.1414    1.4050    0.1526 C.3     1  UNL1       -0.0371
     17 C          -4.1622    0.4407    0.7256 C.3     1  UNL1       -0.0494
     18 C          -3.5319   -0.8068    1.2489 C.3     1  UNL1       -0.0239
     19 C          -2.6054   -1.4325    0.2555 C.3     1  UNL1        0.1227
     20 C          -3.3775   -2.1200   -0.8081 C.2     1  UNL1        0.3255
     21 O          -3.2427   -1.8853   -2.0286 O.2     1  UNL1       -0.2489
     22 O          -4.3092   -3.0836   -0.4492 O.3     1  UNL1       -0.4793
     23 N           1.7179    3.7462    0.3267 N.am    1  UNL1       -0.1975
     24 O           2.3310    4.8080   -0.2361 O.3     1  UNL1       -0.2952
     25 H           1.4478    1.0973    1.0488 H       1  UNL1        0.0366
     26 H          -0.1574    1.7027    0.5241 H       1  UNL1        0.0366
     27 H           0.1968    0.6963   -1.7131 H       1  UNL1        0.0402
     28 H           2.4885    0.3835   -1.9187 H       1  UNL1        0.0321
     29 H           1.6419   -1.1702   -1.9968 H       1  UNL1        0.0321
     30 H           2.3003   -2.9721   -0.4556 H       1  UNL1        0.0620
     31 H           3.8014   -3.8033    1.2248 H       1  UNL1        0.0618
     32 H           5.3314   -2.2837    2.4248 H       1  UNL1        0.0618
     33 H           5.2714    0.1121    1.8805 H       1  UNL1        0.0618
     34 H           3.7917    1.0476    0.2270 H       1  UNL1        0.0620
     35 H          -1.5761    1.4529   -1.2845 H       1  UNL1        0.0465
     36 H          -2.9038    0.4051   -1.7647 H       1  UNL1        0.0465
     37 H          -3.6848    2.2456   -0.3018 H       1  UNL1        0.0280
     38 H          -2.4967    1.7332    0.9842 H       1  UNL1        0.0280
     39 H          -4.9424    0.1883   -0.0307 H       1  UNL1        0.0266
     40 H          -4.6638    0.9620    1.5676 H       1  UNL1        0.0266
     41 H          -2.9747   -0.5882    2.1839 H       1  UNL1        0.0288
     42 H          -4.3230   -1.5351    1.4886 H       1  UNL1        0.0288
     43 H          -2.0111   -2.1964    0.7796 H       1  UNL1        0.0616
     44 H          -4.5922   -3.8088   -1.0994 H       1  UNL1        0.2951
     45 H           1.4077    3.7679    1.3133 H       1  UNL1        0.1822
     46 H           1.7180    5.5906   -0.3399 H       1  UNL1        0.2414
@<TRIPOS>BOND
     1     1     2    2
     2     2     3    1
     3     3     4    1
     4     4     5    1
     5     5     6    1
     6     6     7   ar
     7     7     8   ar
     8     8     9   ar
     9     9    10   ar
    10    10    11   ar
    11     4    12    1
    12    12    13    2
    13    12    14   am
    14    14    15    1
    15    15    16    1
    16    16    17    1
    17    17    18    1
    18    18    19    1
    19    19    20    1
    20    20    21    2
    21    20    22    1
    22     2    23   am
    23    23    24    1
    24    11     6   ar
    25    19    14    1
    26     3    25    1
    27     3    26    1
    28     4    27    1
    29     5    28    1
    30     5    29    1
    31     7    30    1
    32     8    31    1
    33     9    32    1
    34    10    33    1
    35    11    34    1
    36    15    35    1
    37    15    36    1
    38    16    37    1
    39    16    38    1
    40    17    39    1
    41    17    40    1
    42    18    41    1
    43    18    42    1
    44    19    43    1
    45    22    44    1
    46    23    45    1
    47    24    46    1
