
     RDKit          3D

 31 33  0  0  0  0  0  0  0  0999 V2000
   -0.7919   -1.8253    1.0913 C   0  0  0  0  0  0  0  0  0  0  0  0
   -0.2300   -0.8502    0.0397 C   0  0  0  0  0  0  0  0  0  0  0  0
   -1.0417   -0.4066   -0.9309 C   0  0  0  0  0  0  0  0  0  0  0  0
   -2.4478   -0.7025   -1.1702 C   0  0  0  0  0  0  0  0  0  0  0  0
   -3.3785   -0.0314   -0.3242 N   0  0  0  0  0  0  0  0  0  0  0  0
   -3.9609    1.1852   -0.5444 C   0  0  0  0  0  0  0  0  0  0  0  0
   -4.7814    1.4159    0.5278 C   0  0  0  0  0  0  0  0  0  0  0  0
   -4.7217    0.3904    1.3901 N   0  0  0  0  0  0  0  0  0  0  0  0
   -3.8497   -0.4944    0.8464 C   0  0  0  0  0  0  0  0  0  0  0  0
    0.0286    0.6495   -1.8682 S   0  0  0  0  0  0  0  0  0  0  0  0
    1.4733    0.4224   -0.9005 C   0  0  0  0  0  0  0  0  0  0  0  0
    2.7720    0.9338   -0.9973 C   0  0  0  0  0  0  0  0  0  0  0  0
    3.7267    0.5749   -0.0755 C   0  0  0  0  0  0  0  0  0  0  0  0
    5.0696    1.1111   -0.1864 C   0  0  0  0  0  0  0  0  0  0  0  0
    5.9137    0.7580    0.6761 O   0  0  0  0  0  0  0  0  0  0  0  0
    5.4322    1.9860   -1.2030 O   0  0  0  0  0  0  0  0  0  0  0  0
    3.3524   -0.2852    0.9154 C   0  0  0  0  0  0  0  0  0  0  0  0
    2.0783   -0.7762    0.9960 C   0  0  0  0  0  0  0  0  0  0  0  0
    1.0615   -0.4410    0.0778 C   0  0  0  0  0  0  0  0  0  0  0  0
   -1.2801   -1.2784    1.9033 H   0  0  0  0  0  0  0  0  0  0  0  0
   -1.5416   -2.4836    0.6254 H   0  0  0  0  0  0  0  0  0  0  0  0
    0.0162   -2.4294    1.5089 H   0  0  0  0  0  0  0  0  0  0  0  0
   -2.6028   -1.7967   -1.0577 H   0  0  0  0  0  0  0  0  0  0  0  0
   -2.7059   -0.4660   -2.2333 H   0  0  0  0  0  0  0  0  0  0  0  0
   -3.7572    1.7828   -1.4197 H   0  0  0  0  0  0  0  0  0  0  0  0
   -5.3759    2.3343    0.6043 H   0  0  0  0  0  0  0  0  0  0  0  0
   -3.6363   -1.4204    1.3721 H   0  0  0  0  0  0  0  0  0  0  0  0
    2.9449    1.6061   -1.8263 H   0  0  0  0  0  0  0  0  0  0  0  0
    6.2311    2.5774   -1.0344 H   0  0  0  0  0  0  0  0  0  0  0  0
    4.1096   -0.5906    1.6743 H   0  0  0  0  0  0  0  0  0  0  0  0
    1.8935   -1.4499    1.8223 H   0  0  0  0  0  0  0  0  0  0  0  0
  1  2  1  0
  2  3  2  0
  3  4  1  0
  4  5  1  0
  5  6  1  0
  6  7  2  0
  7  8  1  0
  8  9  2  0
  3 10  1  0
 10 11  1  0
 11 12  2  0
 12 13  1  0
 13 14  1  0
 14 15  2  0
 14 16  1  0
 13 17  2  0
 17 18  1  0
 18 19  2  0
 19  2  1  0
  9  5  1  0
 19 11  1  0
  1 20  1  0
  1 21  1  0
  1 22  1  0
  4 23  1  0
  4 24  1  0
  6 25  1  0
  7 26  1  0
  9 27  1  0
 12 28  1  0
 16 29  1  0
 17 30  1  0
 18 31  1  0
M  END
$$$$
