@<TRIPOS>MOLECULE
*****
 31 33 0 0 0
SMALL
GASTEIGER

@<TRIPOS>ATOM
      1 C          -0.7919   -1.8253    1.0913 C.3     1  UNL1       -0.0383
      2 C          -0.2300   -0.8502    0.0397 C.ar    1  UNL1       -0.0308
      3 C          -1.0417   -0.4066   -0.9309 C.ar    1  UNL1        0.0135
      4 C          -2.4478   -0.7025   -1.1702 C.3     1  UNL1        0.0556
      5 N          -3.3785   -0.0314   -0.3242 N.ar    1  UNL1       -0.3320
      6 C          -3.9609    1.1852   -0.5444 C.ar    1  UNL1        0.0244
      7 C          -4.7814    1.4159    0.5278 C.ar    1  UNL1        0.0454
      8 N          -4.7217    0.3904    1.3901 N.ar    1  UNL1       -0.2441
      9 C          -3.8497   -0.4944    0.8464 C.ar    1  UNL1        0.0962
     10 S           0.0286    0.6495   -1.8682 S.2     1  UNL1       -0.0911
     11 C           1.4733    0.4224   -0.9005 C.ar    1  UNL1        0.0207
     12 C           2.7720    0.9338   -0.9973 C.ar    1  UNL1       -0.0334
     13 C           3.7267    0.5749   -0.0755 C.ar    1  UNL1        0.0599
     14 C           5.0696    1.1111   -0.1864 C.2     1  UNL1        0.3368
     15 O           5.9137    0.7580    0.6761 O.2     1  UNL1       -0.2451
     16 O           5.4322    1.9860   -1.2030 O.3     1  UNL1       -0.4771
     17 C           3.3524   -0.2852    0.9154 C.ar    1  UNL1       -0.0471
     18 C           2.0783   -0.7762    0.9960 C.ar    1  UNL1       -0.0525
     19 C           1.0615   -0.4410    0.0778 C.ar    1  UNL1       -0.0075
     20 H          -1.2801   -1.2784    1.9033 H       1  UNL1        0.0278
     21 H          -1.5416   -2.4836    0.6254 H       1  UNL1        0.0278
     22 H           0.0162   -2.4294    1.5089 H       1  UNL1        0.0278
     23 H          -2.6028   -1.7967   -1.0577 H       1  UNL1        0.0547
     24 H          -2.7059   -0.4660   -2.2333 H       1  UNL1        0.0547
     25 H          -3.7572    1.7828   -1.4197 H       1  UNL1        0.0825
     26 H          -5.3759    2.3343    0.6043 H       1  UNL1        0.0845
     27 H          -3.6363   -1.4204    1.3721 H       1  UNL1        0.1029
     28 H           2.9449    1.6061   -1.8263 H       1  UNL1        0.0637
     29 H           6.2311    2.5774   -1.0344 H       1  UNL1        0.2954
     30 H           4.1096   -0.5906    1.6743 H       1  UNL1        0.0626
     31 H           1.8935   -1.4499    1.8223 H       1  UNL1        0.0624
@<TRIPOS>BOND
     1     1     2    1
     2     2     3   ar
     3     3     4    1
     4     4     5    1
     5     5     6   ar
     6     6     7   ar
     7     7     8   ar
     8     8     9   ar
     9     3    10   ar
    10    10    11   ar
    11    11    12   ar
    12    12    13   ar
    13    13    14    1
    14    14    15    2
    15    14    16    1
    16    13    17   ar
    17    17    18   ar
    18    18    19   ar
    19    19     2   ar
    20     9     5   ar
    21    19    11   ar
    22     1    20    1
    23     1    21    1
    24     1    22    1
    25     4    23    1
    26     4    24    1
    27     6    25    1
    28     7    26    1
    29     9    27    1
    30    12    28    1
    31    16    29    1
    32    17    30    1
    33    18    31    1
