
     RDKit          3D

 58 58  0  0  0  0  0  0  0  0999 V2000
    7.5370    2.2749   -0.9317 C   0  0  0  0  0  0  0  0  0  0  0  0
    6.4583    1.7997    0.0159 C   0  0  0  0  0  0  0  0  0  0  0  0
    6.0882    0.3985   -0.3891 C   0  0  0  0  0  0  0  0  0  0  0  0
    4.9872   -0.1574    0.5318 C   0  0  0  0  0  0  0  0  0  0  0  0
    4.7119   -1.5367    0.0350 C   0  0  0  0  0  0  0  0  0  0  0  0
    3.7021   -2.3472    0.7380 C   0  0  0  0  0  0  0  0  0  0  0  0
    2.4499   -1.9568    0.7339 O   0  0  0  0  0  0  0  0  0  0  0  0
    1.9357   -0.8078    1.1979 C   0  0  0  0  0  0  0  0  0  0  0  0
    0.3774   -0.9859    1.0247 C   0  0  0  0  0  0  0  0  0  0  0  0
    0.2205   -1.1926   -0.4588 C   0  0  0  0  0  0  0  0  0  0  0  0
   -1.2332   -1.3953   -0.7870 C   0  0  0  0  0  0  0  0  0  0  0  0
   -2.0200   -0.1708   -0.3715 C   0  0  0  0  0  0  0  0  0  0  0  0
   -3.3856   -0.3579   -0.7061 N   0  0  0  0  0  0  0  0  0  0  0  0
   -4.1240   -1.3254    0.0047 C   0  0  0  0  0  0  0  0  0  0  0  0
   -5.0256   -0.8298    1.0909 C   0  0  2  0  0  0  0  0  0  0  0  0
   -6.1124   -1.7259    1.1680 O   0  0  0  0  0  0  0  0  0  0  0  0
   -5.5815    0.5366    0.9029 C   0  0  1  0  0  0  0  0  0  0  0  0
   -5.9224    1.0698    2.1369 O   0  0  0  0  0  0  0  0  0  0  0  0
   -4.6100    1.4845    0.2337 C   0  0  2  0  0  0  0  0  0  0  0  0
   -5.2626    2.6378   -0.1300 O   0  0  0  0  0  0  0  0  0  0  0  0
   -4.1565    0.7848   -1.0277 C   0  0  1  0  0  0  0  0  0  0  0  0
   -3.5867    1.7174   -2.0420 C   0  0  0  0  0  0  0  0  0  0  0  0
   -4.5320    2.7613   -2.1921 O   0  0  0  0  0  0  0  0  0  0  0  0
    8.0909    1.4057   -1.3306 H   0  0  0  0  0  0  0  0  0  0  0  0
    8.1985    2.9905   -0.4058 H   0  0  0  0  0  0  0  0  0  0  0  0
    7.0182    2.7403   -1.7991 H   0  0  0  0  0  0  0  0  0  0  0  0
    5.6092    2.4847    0.0258 H   0  0  0  0  0  0  0  0  0  0  0  0
    6.9303    1.7108    1.0373 H   0  0  0  0  0  0  0  0  0  0  0  0
    5.6736    0.3420   -1.4146 H   0  0  0  0  0  0  0  0  0  0  0  0
    6.9374   -0.3058   -0.2974 H   0  0  0  0  0  0  0  0  0  0  0  0
    5.3596   -0.1982    1.5811 H   0  0  0  0  0  0  0  0  0  0  0  0
    4.2014    0.5737    0.5063 H   0  0  0  0  0  0  0  0  0  0  0  0
    5.7029   -2.0961    0.1521 H   0  0  0  0  0  0  0  0  0  0  0  0
    4.5812   -1.5535   -1.0864 H   0  0  0  0  0  0  0  0  0  0  0  0
    3.7244   -3.4183    0.3350 H   0  0  0  0  0  0  0  0  0  0  0  0
    4.0952   -2.5318    1.8057 H   0  0  0  0  0  0  0  0  0  0  0  0
    2.0750    0.0912    0.5102 H   0  0  0  0  0  0  0  0  0  0  0  0
    2.1520   -0.5285    2.2335 H   0  0  0  0  0  0  0  0  0  0  0  0
    0.1506   -1.8622    1.6339 H   0  0  0  0  0  0  0  0  0  0  0  0
   -0.0144   -0.0395    1.3972 H   0  0  0  0  0  0  0  0  0  0  0  0
    0.8532   -2.0123   -0.8424 H   0  0  0  0  0  0  0  0  0  0  0  0
    0.5631   -0.2494   -0.9509 H   0  0  0  0  0  0  0  0  0  0  0  0
   -1.3804   -1.6255   -1.8654 H   0  0  0  0  0  0  0  0  0  0  0  0
   -1.5564   -2.2977   -0.2068 H   0  0  0  0  0  0  0  0  0  0  0  0
   -1.8958   -0.0595    0.7492 H   0  0  0  0  0  0  0  0  0  0  0  0
   -1.6090    0.7466   -0.7938 H   0  0  0  0  0  0  0  0  0  0  0  0
   -3.4277   -2.0649    0.4827 H   0  0  0  0  0  0  0  0  0  0  0  0
   -4.7394   -1.9045   -0.7436 H   0  0  0  0  0  0  0  0  0  0  0  0
   -4.5206   -0.9126    2.0873 H   0  0  0  0  0  0  0  0  0  0  0  0
   -6.4736   -1.7839    0.2420 H   0  0  0  0  0  0  0  0  0  0  0  0
   -6.5113    0.5304    0.2838 H   0  0  0  0  0  0  0  0  0  0  0  0
   -6.2225    0.3356    2.7320 H   0  0  0  0  0  0  0  0  0  0  0  0
   -3.8140    1.7145    0.9351 H   0  0  0  0  0  0  0  0  0  0  0  0
   -6.0470    2.8663    0.4309 H   0  0  0  0  0  0  0  0  0  0  0  0
   -5.1166    0.3941   -1.4875 H   0  0  0  0  0  0  0  0  0  0  0  0
   -2.6268    2.1861   -1.7699 H   0  0  0  0  0  0  0  0  0  0  0  0
   -3.5389    1.2034   -3.0161 H   0  0  0  0  0  0  0  0  0  0  0  0
   -5.3381    2.4523   -2.6757 H   0  0  0  0  0  0  0  0  0  0  0  0
  1  2  1  0
  2  3  1  0
  3  4  1  0
  4  5  1  0
  5  6  1  0
  6  7  1  0
  7  8  1  0
  8  9  1  0
  9 10  1  0
 10 11  1  0
 11 12  1  0
 12 13  1  0
 13 14  1  0
 14 15  1  0
 15 16  1  0
 15 17  1  0
 17 18  1  0
 17 19  1  0
 19 20  1  0
 19 21  1  0
 21 22  1  0
 22 23  1  0
 21 13  1  0
  1 24  1  0
  1 25  1  0
  1 26  1  0
  2 27  1  0
  2 28  1  0
  3 29  1  0
  3 30  1  0
  4 31  1  0
  4 32  1  0
  5 33  1  0
  5 34  1  0
  6 35  1  0
  6 36  1  0
  8 37  1  0
  8 38  1  0
  9 39  1  0
  9 40  1  0
 10 41  1  0
 10 42  1  0
 11 43  1  0
 11 44  1  0
 12 45  1  0
 12 46  1  0
 14 47  1  0
 14 48  1  0
 15 49  1  1
 16 50  1  0
 17 51  1  6
 18 52  1  0
 19 53  1  1
 20 54  1  0
 21 55  1  6
 22 56  1  0
 22 57  1  0
 23 58  1  0
M  END
$$$$
