@<TRIPOS>MOLECULE
*****
 58 58 0 0 0
SMALL
GASTEIGER

@<TRIPOS>ATOM
      1 C           7.5370    2.2749   -0.9317 C.3     1  UNL1       -0.0653
      2 C           6.4583    1.7997    0.0159 C.3     1  UNL1       -0.0559
      3 C           6.0882    0.3985   -0.3891 C.3     1  UNL1       -0.0532
      4 C           4.9872   -0.1574    0.5318 C.3     1  UNL1       -0.0510
      5 C           4.7119   -1.5367    0.0350 C.3     1  UNL1       -0.0295
      6 C           3.7021   -2.3472    0.7380 C.3     1  UNL1        0.0477
      7 O           2.4499   -1.9568    0.7339 O.3     1  UNL1       -0.3798
      8 C           1.9357   -0.8078    1.1979 C.3     1  UNL1        0.0477
      9 C           0.3774   -0.9859    1.0247 C.3     1  UNL1       -0.0294
     10 C           0.2205   -1.1926   -0.4588 C.3     1  UNL1       -0.0498
     11 C          -1.2332   -1.3953   -0.7870 C.3     1  UNL1       -0.0401
     12 C          -2.0200   -0.1708   -0.3715 C.3     1  UNL1       -0.0006
     13 N          -3.3856   -0.3579   -0.7061 N.3     1  UNL1       -0.2923
     14 C          -4.1240   -1.3254    0.0047 C.3     1  UNL1        0.0279
     15 C          -5.0256   -0.8298    1.0909 C.3     1  UNL1        0.0962
     16 O          -6.1124   -1.7259    1.1680 O.3     1  UNL1       -0.3879
     17 C          -5.5815    0.5366    0.9029 C.3     1  UNL1        0.1095
     18 O          -5.9224    1.0698    2.1369 O.3     1  UNL1       -0.3866
     19 C          -4.6100    1.4845    0.2337 C.3     1  UNL1        0.1011
     20 O          -5.2626    2.6378   -0.1300 O.3     1  UNL1       -0.3875
     21 C          -4.1565    0.7848   -1.0277 C.3     1  UNL1        0.0621
     22 C          -3.5867    1.7174   -2.0420 C.3     1  UNL1        0.0622
     23 O          -4.5320    2.7613   -2.1921 O.3     1  UNL1       -0.3934
     24 H           8.0909    1.4057   -1.3306 H       1  UNL1        0.0230
     25 H           8.1985    2.9905   -0.4058 H       1  UNL1        0.0230
     26 H           7.0182    2.7403   -1.7991 H       1  UNL1        0.0230
     27 H           5.6092    2.4847    0.0258 H       1  UNL1        0.0263
     28 H           6.9303    1.7108    1.0373 H       1  UNL1        0.0263
     29 H           5.6736    0.3420   -1.4146 H       1  UNL1        0.0265
     30 H           6.9374   -0.3058   -0.2974 H       1  UNL1        0.0265
     31 H           5.3596   -0.1982    1.5811 H       1  UNL1        0.0266
     32 H           4.2014    0.5737    0.5063 H       1  UNL1        0.0266
     33 H           5.7029   -2.0961    0.1521 H       1  UNL1        0.0287
     34 H           4.5812   -1.5535   -1.0864 H       1  UNL1        0.0287
     35 H           3.7244   -3.4183    0.3350 H       1  UNL1        0.0560
     36 H           4.0952   -2.5318    1.8057 H       1  UNL1        0.0560
     37 H           2.0750    0.0912    0.5102 H       1  UNL1        0.0560
     38 H           2.1520   -0.5285    2.2335 H       1  UNL1        0.0560
     39 H           0.1506   -1.8622    1.6339 H       1  UNL1        0.0287
     40 H          -0.0144   -0.0395    1.3972 H       1  UNL1        0.0287
     41 H           0.8532   -2.0123   -0.8424 H       1  UNL1        0.0266
     42 H           0.5631   -0.2494   -0.9509 H       1  UNL1        0.0266
     43 H          -1.3804   -1.6255   -1.8654 H       1  UNL1        0.0278
     44 H          -1.5564   -2.2977   -0.2068 H       1  UNL1        0.0278
     45 H          -1.8958   -0.0595    0.7492 H       1  UNL1        0.0427
     46 H          -1.6090    0.7466   -0.7938 H       1  UNL1        0.0427
     47 H          -3.4277   -2.0649    0.4827 H       1  UNL1        0.0453
     48 H          -4.7394   -1.9045   -0.7436 H       1  UNL1        0.0453
     49 H          -4.5206   -0.9126    2.0873 H       1  UNL1        0.0633
     50 H          -6.4736   -1.7839    0.2420 H       1  UNL1        0.2099
     51 H          -6.5113    0.5304    0.2838 H       1  UNL1        0.0646
     52 H          -6.2225    0.3356    2.7320 H       1  UNL1        0.2100
     53 H          -3.8140    1.7145    0.9351 H       1  UNL1        0.0636
     54 H          -6.0470    2.8663    0.4309 H       1  UNL1        0.2100
     55 H          -5.1166    0.3941   -1.4875 H       1  UNL1        0.0511
     56 H          -2.6268    2.1861   -1.7699 H       1  UNL1        0.0573
     57 H          -3.5389    1.2034   -3.0161 H       1  UNL1        0.0573
     58 H          -5.3381    2.4523   -2.6757 H       1  UNL1        0.2095
@<TRIPOS>BOND
     1     1     2    1
     2     2     3    1
     3     3     4    1
     4     4     5    1
     5     5     6    1
     6     6     7    1
     7     7     8    1
     8     8     9    1
     9     9    10    1
    10    10    11    1
    11    11    12    1
    12    12    13    1
    13    13    14    1
    14    14    15    1
    15    15    16    1
    16    15    17    1
    17    17    18    1
    18    17    19    1
    19    19    20    1
    20    19    21    1
    21    21    22    1
    22    22    23    1
    23    21    13    1
    24     1    24    1
    25     1    25    1
    26     1    26    1
    27     2    27    1
    28     2    28    1
    29     3    29    1
    30     3    30    1
    31     4    31    1
    32     4    32    1
    33     5    33    1
    34     5    34    1
    35     6    35    1
    36     6    36    1
    37     8    37    1
    38     8    38    1
    39     9    39    1
    40     9    40    1
    41    10    41    1
    42    10    42    1
    43    11    43    1
    44    11    44    1
    45    12    45    1
    46    12    46    1
    47    14    47    1
    48    14    48    1
    49    15    49    1
    50    16    50    1
    51    17    51    1
    52    18    52    1
    53    19    53    1
    54    20    54    1
    55    21    55    1
    56    22    56    1
    57    22    57    1
    58    23    58    1
