@<TRIPOS>MOLECULE
*****
 27 29 0 0 0
SMALL
GASTEIGER

@<TRIPOS>ATOM
      1 O          -5.2531    0.5429   -1.0827 O.3     1  UNL1       -0.5066
      2 C          -3.9463    0.2727   -0.7302 C.ar    1  UNL1        0.1205
      3 C          -3.6625   -0.8417    0.0202 C.ar    1  UNL1        0.0254
      4 C          -2.3503   -1.1493    0.4014 C.ar    1  UNL1        0.1713
      5 C          -1.4059   -0.2466   -0.0399 C.ar    1  UNL1        0.0493
      6 C          -1.5756    0.8830   -0.7842 C.ar    1  UNL1       -0.0454
      7 C          -2.9069    1.1208   -1.1252 C.ar    1  UNL1       -0.0193
      8 C          -0.2095   -0.7395    0.4427 C.ar    1  UNL1        0.1245
      9 N          -0.4697   -1.8894    1.1393 N.ar    1  UNL1       -0.0769
     10 O          -1.7747   -2.1064    1.0915 O.2     1  UNL1       -0.3539
     11 C           1.1944   -0.3449    0.3699 C.ar    1  UNL1        0.0459
     12 C           2.2373   -1.0937   -0.1866 C.ar    1  UNL1        0.1296
     13 O           1.8301   -2.3159   -0.7318 O.3     1  UNL1       -0.5060
     14 C           3.5418   -0.6268   -0.1756 C.ar    1  UNL1        0.0220
     15 C           3.8072    0.5986    0.3945 C.ar    1  UNL1        0.1204
     16 O           5.1405    1.0465    0.3918 O.3     1  UNL1       -0.5066
     17 C           2.7995    1.3353    0.9380 C.ar    1  UNL1       -0.0193
     18 C           1.4928    0.8887    0.9399 C.ar    1  UNL1       -0.0455
     19 H          -5.9803    0.4920   -0.3882 H       1  UNL1        0.2921
     20 H          -4.4696   -1.4973    0.3284 H       1  UNL1        0.0692
     21 H          -0.7520    1.5161   -1.0708 H       1  UNL1        0.0626
     22 H          -3.1429    2.0118   -1.7249 H       1  UNL1        0.0654
     23 H           1.9209   -2.3888   -1.7441 H       1  UNL1        0.2922
     24 H           4.3047   -1.2754   -0.6314 H       1  UNL1        0.0691
     25 H           5.7082    0.7169    1.1824 H       1  UNL1        0.2921
     26 H           3.1367    2.2918    1.3648 H       1  UNL1        0.0654
     27 H           0.7850    1.5879    1.4111 H       1  UNL1        0.0626
@<TRIPOS>BOND
     1     1     2    1
     2     2     3   ar
     3     3     4   ar
     4     4     5   ar
     5     5     6   ar
     6     6     7   ar
     7     5     8   ar
     8     8     9   ar
     9     9    10   ar
    10     8    11    1
    11    11    12   ar
    12    12    13    1
    13    12    14   ar
    14    14    15   ar
    15    15    16    1
    16    15    17   ar
    17    17    18   ar
    18     7     2   ar
    19    18    11   ar
    20    10     4   ar
    21     1    19    1
    22     3    20    1
    23     6    21    1
    24     7    22    1
    25    13    23    1
    26    14    24    1
    27    16    25    1
    28    17    26    1
    29    18    27    1
