
     RDKit          3D

 27 29  0  0  0  0  0  0  0  0999 V2000
   -5.2531    0.5429   -1.0827 O   0  0  0  0  0  0  0  0  0  0  0  0
   -3.9463    0.2727   -0.7302 C   0  0  0  0  0  0  0  0  0  0  0  0
   -3.6625   -0.8417    0.0202 C   0  0  0  0  0  0  0  0  0  0  0  0
   -2.3503   -1.1493    0.4014 C   0  0  0  0  0  0  0  0  0  0  0  0
   -1.4059   -0.2466   -0.0399 C   0  0  0  0  0  0  0  0  0  0  0  0
   -1.5756    0.8830   -0.7842 C   0  0  0  0  0  0  0  0  0  0  0  0
   -2.9069    1.1208   -1.1252 C   0  0  0  0  0  0  0  0  0  0  0  0
   -0.2095   -0.7395    0.4427 C   0  0  0  0  0  0  0  0  0  0  0  0
   -0.4697   -1.8894    1.1393 N   0  0  0  0  0  0  0  0  0  0  0  0
   -1.7747   -2.1064    1.0915 O   0  0  0  0  0  0  0  0  0  0  0  0
    1.1944   -0.3449    0.3699 C   0  0  0  0  0  0  0  0  0  0  0  0
    2.2373   -1.0937   -0.1866 C   0  0  0  0  0  0  0  0  0  0  0  0
    1.8301   -2.3159   -0.7318 O   0  0  0  0  0  0  0  0  0  0  0  0
    3.5418   -0.6268   -0.1756 C   0  0  0  0  0  0  0  0  0  0  0  0
    3.8072    0.5986    0.3945 C   0  0  0  0  0  0  0  0  0  0  0  0
    5.1405    1.0465    0.3918 O   0  0  0  0  0  0  0  0  0  0  0  0
    2.7995    1.3353    0.9380 C   0  0  0  0  0  0  0  0  0  0  0  0
    1.4928    0.8887    0.9399 C   0  0  0  0  0  0  0  0  0  0  0  0
   -5.9803    0.4920   -0.3882 H   0  0  0  0  0  0  0  0  0  0  0  0
   -4.4696   -1.4973    0.3284 H   0  0  0  0  0  0  0  0  0  0  0  0
   -0.7520    1.5161   -1.0708 H   0  0  0  0  0  0  0  0  0  0  0  0
   -3.1429    2.0118   -1.7249 H   0  0  0  0  0  0  0  0  0  0  0  0
    1.9209   -2.3888   -1.7441 H   0  0  0  0  0  0  0  0  0  0  0  0
    4.3047   -1.2754   -0.6314 H   0  0  0  0  0  0  0  0  0  0  0  0
    5.7082    0.7169    1.1824 H   0  0  0  0  0  0  0  0  0  0  0  0
    3.1367    2.2918    1.3648 H   0  0  0  0  0  0  0  0  0  0  0  0
    0.7850    1.5879    1.4111 H   0  0  0  0  0  0  0  0  0  0  0  0
  1  2  1  0
  2  3  2  0
  3  4  1  0
  4  5  2  0
  5  6  1  0
  6  7  2  0
  5  8  1  0
  8  9  2  0
  9 10  1  0
  8 11  1  0
 11 12  2  0
 12 13  1  0
 12 14  1  0
 14 15  2  0
 15 16  1  0
 15 17  1  0
 17 18  2  0
  7  2  1  0
 18 11  1  0
 10  4  1  0
  1 19  1  0
  3 20  1  0
  6 21  1  0
  7 22  1  0
 13 23  1  0
 14 24  1  0
 16 25  1  0
 17 26  1  0
 18 27  1  0
M  END
$$$$
