@<TRIPOS>MOLECULE
*****
 66 65 0 0 0
SMALL
GASTEIGER

@<TRIPOS>ATOM
      1 C          -4.6211    4.6824   -1.9585 C.3     1  UNL1       -0.0492
      2 C          -3.3954    5.1976   -1.2017 C.3     1  UNL1        0.0147
      3 N          -3.3515    4.4693    0.0470 N.am    1  UNL1       -0.2704
      4 C          -4.0469    5.0151    1.2001 C.3     1  UNL1        0.0063
      5 C          -2.6334    3.2538    0.0972 C.2     1  UNL1        0.4079
      6 O          -2.0448    2.8143   -0.9214 O.2     1  UNL1       -0.2258
      7 O          -2.5312    2.4792    1.2497 O.3     1  UNL1       -0.4113
      8 C          -1.8178    1.3042    1.2376 C.ar    1  UNL1        0.1371
      9 C          -2.4577    0.1306    0.9206 C.ar    1  UNL1        0.0233
     10 C          -1.7912   -1.0882    0.8914 C.ar    1  UNL1        0.1371
     11 O          -2.4524   -2.2343    0.5736 O.3     1  UNL1       -0.4113
     12 C          -2.5550   -2.6825   -0.7263 C.2     1  UNL1        0.4079
     13 O          -2.0248   -2.0164   -1.6412 O.2     1  UNL1       -0.2258
     14 N          -3.2452   -3.8684   -1.0108 N.am    1  UNL1       -0.2704
     15 C          -3.3500   -4.3334   -2.3709 C.3     1  UNL1        0.0063
     16 C          -3.8528   -4.6293    0.0487 C.3     1  UNL1        0.0147
     17 C          -2.9201   -5.6649    0.6382 C.3     1  UNL1       -0.0492
     18 C          -0.4418   -1.0859    1.1958 C.ar    1  UNL1       -0.0133
     19 C           0.2330    0.0669    1.5176 C.ar    1  UNL1       -0.0110
     20 C           1.6620    0.0347    1.8347 C.3     1  UNL1        0.0928
     21 O           2.0314   -0.9901    2.6895 O.3     1  UNL1       -0.3859
     22 C           2.5270   -0.0987    0.5796 C.3     1  UNL1        0.0266
     23 N           3.8890    0.0205    0.9973 N.3     1  UNL1       -0.3083
     24 C           4.8562   -0.0809   -0.0449 C.3     1  UNL1        0.0134
     25 C           4.7585    0.9448   -1.1242 C.3     1  UNL1       -0.0470
     26 C           4.6750   -1.4474   -0.7000 C.3     1  UNL1       -0.0470
     27 C           6.2569    0.0221    0.5534 C.3     1  UNL1       -0.0380
     28 C           7.3284   -0.0761   -0.4842 C.3     1  UNL1       -0.0636
     29 C          -0.4686    1.2458    1.5330 C.ar    1  UNL1       -0.0133
     30 CL          0.6913    0.0000    0.0000 Cl      2  UNL2       -0.1454
     31 H          -5.4992    4.8360   -1.3187 H       1  UNL1        0.0245
     32 H          -4.6874    5.1941   -2.9293 H       1  UNL1        0.0245
     33 H          -4.4338    3.5981   -2.1316 H       1  UNL1        0.0245
     34 H          -3.4766    6.2817   -1.0007 H       1  UNL1        0.0463
     35 H          -2.4765    4.9554   -1.7790 H       1  UNL1        0.0463
     36 H          -4.9825    4.4579    1.4156 H       1  UNL1        0.0429
     37 H          -4.2372    6.0944    1.0334 H       1  UNL1        0.0429
     38 H          -3.4162    4.9438    2.1236 H       1  UNL1        0.0429
     39 H          -3.5130    0.1055    0.6791 H       1  UNL1        0.0691
     40 H          -2.3599   -4.1834   -2.8482 H       1  UNL1        0.0429
     41 H          -4.0719   -3.6957   -2.9035 H       1  UNL1        0.0429
     42 H          -3.6785   -5.3850   -2.4016 H       1  UNL1        0.0429
     43 H          -4.2493   -4.0148    0.8626 H       1  UNL1        0.0463
     44 H          -4.7324   -5.1822   -0.3896 H       1  UNL1        0.0463
     45 H          -2.0577   -5.1010    1.0660 H       1  UNL1        0.0245
     46 H          -2.6125   -6.4331   -0.0784 H       1  UNL1        0.0245
     47 H          -3.4659   -6.1120    1.5069 H       1  UNL1        0.0245
     48 H           0.0795   -2.0264    1.1748 H       1  UNL1        0.0658
     49 H           1.9972    0.9874    2.3342 H       1  UNL1        0.0656
     50 H           1.2454   -1.2820    3.1796 H       1  UNL1        0.2103
     51 H           2.3715   -1.1201    0.1707 H       1  UNL1        0.0453
     52 H           2.2080    0.6351   -0.1826 H       1  UNL1        0.0453
     53 H           4.0635    0.7672    1.6922 H       1  UNL1        0.1225
     54 H           5.2940    0.5234   -2.0239 H       1  UNL1        0.0247
     55 H           5.2945    1.8871   -0.8925 H       1  UNL1        0.0247
     56 H           3.7297    1.1360   -1.4357 H       1  UNL1        0.0247
     57 H           3.7510   -1.3426   -1.3375 H       1  UNL1        0.0247
     58 H           5.5493   -1.7043   -1.3167 H       1  UNL1        0.0247
     59 H           4.4256   -2.1944    0.0691 H       1  UNL1        0.0247
     60 H           6.4005   -0.8396    1.2564 H       1  UNL1        0.0280
     61 H           6.3684    0.9431    1.1475 H       1  UNL1        0.0280
     62 H           8.2884    0.2027    0.0103 H       1  UNL1        0.0230
     63 H           7.2030    0.6433   -1.3169 H       1  UNL1        0.0230
     64 H           7.4460   -1.1292   -0.8350 H       1  UNL1        0.0230
     65 H           0.0193    2.1690    1.7789 H       1  UNL1        0.0658
     66 H          -0.6913    0.0000    0.0000 H       1  UNL1        0.1454
@<TRIPOS>BOND
     1     1     2    1
     2     2     3    1
     3     3     4    1
     4     3     5   am
     5     5     6    2
     6     5     7    1
     7     7     8    1
     8     8     9   ar
     9     9    10   ar
    10    10    11    1
    11    11    12    1
    12    12    13    2
    13    12    14   am
    14    14    15    1
    15    14    16    1
    16    16    17    1
    17    10    18   ar
    18    18    19   ar
    19    19    20    1
    20    20    21    1
    21    20    22    1
    22    22    23    1
    23    23    24    1
    24    24    25    1
    25    24    26    1
    26    24    27    1
    27    27    28    1
    28    19    29   ar
    29    29     8   ar
    30     1    31    1
    31     1    32    1
    32     1    33    1
    33     2    34    1
    34     2    35    1
    35     4    36    1
    36     4    37    1
    37     4    38    1
    38     9    39    1
    39    15    40    1
    40    15    41    1
    41    15    42    1
    42    16    43    1
    43    16    44    1
    44    17    45    1
    45    17    46    1
    46    17    47    1
    47    18    48    1
    48    20    49    1
    49    21    50    1
    50    22    51    1
    51    22    52    1
    52    23    53    1
    53    25    54    1
    54    25    55    1
    55    25    56    1
    56    26    57    1
    57    26    58    1
    58    26    59    1
    59    27    60    1
    60    27    61    1
    61    28    62    1
    62    28    63    1
    63    28    64    1
    64    29    65    1
    65    30    66    1
