
     RDKit          3D

 66 65  0  0  0  0  0  0  0  0999 V2000
   -4.6211    4.6824   -1.9585 C   0  0  0  0  0  0  0  0  0  0  0  0
   -3.3954    5.1976   -1.2017 C   0  0  0  0  0  0  0  0  0  0  0  0
   -3.3515    4.4693    0.0470 N   0  0  0  0  0  0  0  0  0  0  0  0
   -4.0469    5.0151    1.2001 C   0  0  0  0  0  0  0  0  0  0  0  0
   -2.6334    3.2538    0.0972 C   0  0  0  0  0  0  0  0  0  0  0  0
   -2.0448    2.8143   -0.9214 O   0  0  0  0  0  0  0  0  0  0  0  0
   -2.5312    2.4792    1.2497 O   0  0  0  0  0  0  0  0  0  0  0  0
   -1.8178    1.3042    1.2376 C   0  0  0  0  0  0  0  0  0  0  0  0
   -2.4577    0.1306    0.9206 C   0  0  0  0  0  0  0  0  0  0  0  0
   -1.7912   -1.0882    0.8914 C   0  0  0  0  0  0  0  0  0  0  0  0
   -2.4524   -2.2343    0.5736 O   0  0  0  0  0  0  0  0  0  0  0  0
   -2.5550   -2.6825   -0.7263 C   0  0  0  0  0  0  0  0  0  0  0  0
   -2.0248   -2.0164   -1.6412 O   0  0  0  0  0  0  0  0  0  0  0  0
   -3.2452   -3.8684   -1.0108 N   0  0  0  0  0  0  0  0  0  0  0  0
   -3.3500   -4.3334   -2.3709 C   0  0  0  0  0  0  0  0  0  0  0  0
   -3.8528   -4.6293    0.0487 C   0  0  0  0  0  0  0  0  0  0  0  0
   -2.9201   -5.6649    0.6382 C   0  0  0  0  0  0  0  0  0  0  0  0
   -0.4418   -1.0859    1.1958 C   0  0  0  0  0  0  0  0  0  0  0  0
    0.2330    0.0669    1.5176 C   0  0  0  0  0  0  0  0  0  0  0  0
    1.6620    0.0347    1.8347 C   0  0  0  0  0  0  0  0  0  0  0  0
    2.0314   -0.9901    2.6895 O   0  0  0  0  0  0  0  0  0  0  0  0
    2.5270   -0.0987    0.5796 C   0  0  0  0  0  0  0  0  0  0  0  0
    3.8890    0.0205    0.9973 N   0  0  0  0  0  0  0  0  0  0  0  0
    4.8562   -0.0809   -0.0449 C   0  0  0  0  0  0  0  0  0  0  0  0
    4.7585    0.9448   -1.1242 C   0  0  0  0  0  0  0  0  0  0  0  0
    4.6750   -1.4474   -0.7000 C   0  0  0  0  0  0  0  0  0  0  0  0
    6.2569    0.0221    0.5534 C   0  0  0  0  0  0  0  0  0  0  0  0
    7.3284   -0.0761   -0.4842 C   0  0  0  0  0  0  0  0  0  0  0  0
   -0.4686    1.2458    1.5330 C   0  0  0  0  0  0  0  0  0  0  0  0
    0.6913    0.0000    0.0000 Cl  0  0  0  0  0  0  0  0  0  0  0  0
   -5.4992    4.8360   -1.3187 H   0  0  0  0  0  0  0  0  0  0  0  0
   -4.6874    5.1941   -2.9293 H   0  0  0  0  0  0  0  0  0  0  0  0
   -4.4338    3.5981   -2.1316 H   0  0  0  0  0  0  0  0  0  0  0  0
   -3.4766    6.2817   -1.0007 H   0  0  0  0  0  0  0  0  0  0  0  0
   -2.4765    4.9554   -1.7790 H   0  0  0  0  0  0  0  0  0  0  0  0
   -4.9825    4.4579    1.4156 H   0  0  0  0  0  0  0  0  0  0  0  0
   -4.2372    6.0944    1.0334 H   0  0  0  0  0  0  0  0  0  0  0  0
   -3.4162    4.9438    2.1236 H   0  0  0  0  0  0  0  0  0  0  0  0
   -3.5130    0.1055    0.6791 H   0  0  0  0  0  0  0  0  0  0  0  0
   -2.3599   -4.1834   -2.8482 H   0  0  0  0  0  0  0  0  0  0  0  0
   -4.0719   -3.6957   -2.9035 H   0  0  0  0  0  0  0  0  0  0  0  0
   -3.6785   -5.3850   -2.4016 H   0  0  0  0  0  0  0  0  0  0  0  0
   -4.2493   -4.0148    0.8626 H   0  0  0  0  0  0  0  0  0  0  0  0
   -4.7324   -5.1822   -0.3896 H   0  0  0  0  0  0  0  0  0  0  0  0
   -2.0577   -5.1010    1.0660 H   0  0  0  0  0  0  0  0  0  0  0  0
   -2.6125   -6.4331   -0.0784 H   0  0  0  0  0  0  0  0  0  0  0  0
   -3.4659   -6.1120    1.5069 H   0  0  0  0  0  0  0  0  0  0  0  0
    0.0795   -2.0264    1.1748 H   0  0  0  0  0  0  0  0  0  0  0  0
    1.9972    0.9874    2.3342 H   0  0  0  0  0  0  0  0  0  0  0  0
    1.2454   -1.2820    3.1796 H   0  0  0  0  0  0  0  0  0  0  0  0
    2.3715   -1.1201    0.1707 H   0  0  0  0  0  0  0  0  0  0  0  0
    2.2080    0.6351   -0.1826 H   0  0  0  0  0  0  0  0  0  0  0  0
    4.0635    0.7672    1.6922 H   0  0  0  0  0  0  0  0  0  0  0  0
    5.2940    0.5234   -2.0239 H   0  0  0  0  0  0  0  0  0  0  0  0
    5.2945    1.8871   -0.8925 H   0  0  0  0  0  0  0  0  0  0  0  0
    3.7297    1.1360   -1.4357 H   0  0  0  0  0  0  0  0  0  0  0  0
    3.7510   -1.3426   -1.3375 H   0  0  0  0  0  0  0  0  0  0  0  0
    5.5493   -1.7043   -1.3167 H   0  0  0  0  0  0  0  0  0  0  0  0
    4.4256   -2.1944    0.0691 H   0  0  0  0  0  0  0  0  0  0  0  0
    6.4005   -0.8396    1.2564 H   0  0  0  0  0  0  0  0  0  0  0  0
    6.3684    0.9431    1.1475 H   0  0  0  0  0  0  0  0  0  0  0  0
    8.2884    0.2027    0.0103 H   0  0  0  0  0  0  0  0  0  0  0  0
    7.2030    0.6433   -1.3169 H   0  0  0  0  0  0  0  0  0  0  0  0
    7.4460   -1.1292   -0.8350 H   0  0  0  0  0  0  0  0  0  0  0  0
    0.0193    2.1690    1.7789 H   0  0  0  0  0  0  0  0  0  0  0  0
   -0.6913    0.0000    0.0000 H   0  0  0  0  0  0  0  0  0  0  0  0
  1  2  1  0
  2  3  1  0
  3  4  1  0
  3  5  1  0
  5  6  2  0
  5  7  1  0
  7  8  1  0
  8  9  2  0
  9 10  1  0
 10 11  1  0
 11 12  1  0
 12 13  2  0
 12 14  1  0
 14 15  1  0
 14 16  1  0
 16 17  1  0
 10 18  2  0
 18 19  1  0
 19 20  1  0
 20 21  1  0
 20 22  1  0
 22 23  1  0
 23 24  1  0
 24 25  1  0
 24 26  1  0
 24 27  1  0
 27 28  1  0
 19 29  2  0
 29  8  1  0
  1 31  1  0
  1 32  1  0
  1 33  1  0
  2 34  1  0
  2 35  1  0
  4 36  1  0
  4 37  1  0
  4 38  1  0
  9 39  1  0
 15 40  1  0
 15 41  1  0
 15 42  1  0
 16 43  1  0
 16 44  1  0
 17 45  1  0
 17 46  1  0
 17 47  1  0
 18 48  1  0
 20 49  1  0
 21 50  1  0
 22 51  1  0
 22 52  1  0
 23 53  1  0
 25 54  1  0
 25 55  1  0
 25 56  1  0
 26 57  1  0
 26 58  1  0
 26 59  1  0
 27 60  1  0
 27 61  1  0
 28 62  1  0
 28 63  1  0
 28 64  1  0
 29 65  1  0
 30 66  1  0
M  END
$$$$
