
     RDKit          3D

 32 32  0  0  0  0  0  0  0  0999 V2000
   -2.7962    1.2041    0.3322 C   0  0  0  0  0  0  0  0  0  0  0  0
   -2.7141   -0.0718   -0.4307 C   0  0  0  0  0  0  0  0  0  0  0  0
   -3.0916    0.2001   -1.8705 C   0  0  0  0  0  0  0  0  0  0  0  0
   -1.3828   -0.6471   -0.4440 N   0  0  0  0  0  0  0  0  0  0  0  0
   -0.9748   -0.9166    0.8984 C   0  0  0  0  0  0  0  0  0  0  0  0
    0.4051   -1.5228    1.0268 C   0  0  0  0  0  0  0  0  0  0  0  0
    0.5563   -2.7266    0.3835 O   0  0  0  0  0  0  0  0  0  0  0  0
    1.4516   -0.5194    0.7015 C   0  0  0  0  0  0  0  0  0  0  0  0
    2.1542    0.3106    1.5456 C   0  0  0  0  0  0  0  0  0  0  0  0
    3.0915    1.1744    1.0168 C   0  0  0  0  0  0  0  0  0  0  0  0
    3.7609    1.9834    1.9450 O   0  0  0  0  0  0  0  0  0  0  0  0
    3.3473    1.2324   -0.3355 C   0  0  0  0  0  0  0  0  0  0  0  0
    2.6438    0.4002   -1.1885 C   0  0  0  0  0  0  0  0  0  0  0  0
    2.9406    0.5005   -2.5329 O   0  0  0  0  0  0  0  0  0  0  0  0
    1.6978   -0.4715   -0.6540 C   0  0  0  0  0  0  0  0  0  0  0  0
   -3.6826    1.7638   -0.0597 H   0  0  0  0  0  0  0  0  0  0  0  0
   -1.9299    1.8793    0.2156 H   0  0  0  0  0  0  0  0  0  0  0  0
   -3.0321    1.0377    1.4060 H   0  0  0  0  0  0  0  0  0  0  0  0
   -3.4379   -0.7885    0.0097 H   0  0  0  0  0  0  0  0  0  0  0  0
   -3.1316    1.2906   -2.0676 H   0  0  0  0  0  0  0  0  0  0  0  0
   -2.3488   -0.2036   -2.5860 H   0  0  0  0  0  0  0  0  0  0  0  0
   -4.0597   -0.2882   -2.1184 H   0  0  0  0  0  0  0  0  0  0  0  0
   -1.3616   -1.4866   -1.0315 H   0  0  0  0  0  0  0  0  0  0  0  0
   -1.7476   -1.5521    1.3755 H   0  0  0  0  0  0  0  0  0  0  0  0
   -0.9159    0.0709    1.4283 H   0  0  0  0  0  0  0  0  0  0  0  0
    0.5418   -1.7153    2.1267 H   0  0  0  0  0  0  0  0  0  0  0  0
    0.3898   -3.5119    0.9791 H   0  0  0  0  0  0  0  0  0  0  0  0
    1.8820    0.1900    2.5844 H   0  0  0  0  0  0  0  0  0  0  0  0
    3.1726    2.5478    2.5668 H   0  0  0  0  0  0  0  0  0  0  0  0
    4.1001    1.9401   -0.6650 H   0  0  0  0  0  0  0  0  0  0  0  0
    3.2461   -0.2437   -3.1276 H   0  0  0  0  0  0  0  0  0  0  0  0
    1.2257   -1.0600   -1.4302 H   0  0  0  0  0  0  0  0  0  0  0  0
  1  2  1  0
  2  3  1  0
  2  4  1  0
  4  5  1  0
  5  6  1  0
  6  7  1  0
  6  8  1  0
  8  9  2  0
  9 10  1  0
 10 11  1  0
 10 12  2  0
 12 13  1  0
 13 14  1  0
 13 15  2  0
 15  8  1  0
  1 16  1  0
  1 17  1  0
  1 18  1  0
  2 19  1  0
  3 20  1  0
  3 21  1  0
  3 22  1  0
  4 23  1  0
  5 24  1  0
  5 25  1  0
  6 26  1  0
  7 27  1  0
  9 28  1  0
 11 29  1  0
 12 30  1  0
 14 31  1  0
 15 32  1  0
M  END
$$$$
