@<TRIPOS>MOLECULE
*****
 32 32 0 0 0
SMALL
GASTEIGER

@<TRIPOS>ATOM
      1 C          -2.7962    1.2041    0.3322 C.3     1  UNL1       -0.0499
      2 C          -2.7141   -0.0718   -0.4307 C.3     1  UNL1        0.0021
      3 C          -3.0916    0.2001   -1.8705 C.3     1  UNL1       -0.0499
      4 N          -1.3828   -0.6471   -0.4440 N.3     1  UNL1       -0.3110
      5 C          -0.9748   -0.9166    0.8984 C.3     1  UNL1        0.0263
      6 C           0.4051   -1.5228    1.0268 C.3     1  UNL1        0.0928
      7 O           0.5563   -2.7266    0.3835 O.3     1  UNL1       -0.3859
      8 C           1.4516   -0.5194    0.7015 C.ar    1  UNL1       -0.0111
      9 C           2.1542    0.3106    1.5456 C.ar    1  UNL1       -0.0143
     10 C           3.0915    1.1744    1.0168 C.ar    1  UNL1        0.1207
     11 O           3.7609    1.9834    1.9450 O.3     1  UNL1       -0.5066
     12 C           3.3473    1.2324   -0.3355 C.ar    1  UNL1        0.0213
     13 C           2.6438    0.4002   -1.1885 C.ar    1  UNL1        0.1207
     14 O           2.9406    0.5005   -2.5329 O.3     1  UNL1       -0.5066
     15 C           1.6978   -0.4715   -0.6540 C.ar    1  UNL1       -0.0143
     16 H          -3.6826    1.7638   -0.0597 H       1  UNL1        0.0245
     17 H          -1.9299    1.8793    0.2156 H       1  UNL1        0.0245
     18 H          -3.0321    1.0377    1.4060 H       1  UNL1        0.0245
     19 H          -3.4379   -0.7885    0.0097 H       1  UNL1        0.0455
     20 H          -3.1316    1.2906   -2.0676 H       1  UNL1        0.0245
     21 H          -2.3488   -0.2036   -2.5860 H       1  UNL1        0.0245
     22 H          -4.0597   -0.2882   -2.1184 H       1  UNL1        0.0245
     23 H          -1.3616   -1.4866   -1.0315 H       1  UNL1        0.1223
     24 H          -1.7476   -1.5521    1.3755 H       1  UNL1        0.0453
     25 H          -0.9159    0.0709    1.4283 H       1  UNL1        0.0453
     26 H           0.5418   -1.7153    2.1267 H       1  UNL1        0.0656
     27 H           0.3898   -3.5119    0.9791 H       1  UNL1        0.2103
     28 H           1.8820    0.1900    2.5844 H       1  UNL1        0.0658
     29 H           3.1726    2.5478    2.5668 H       1  UNL1        0.2921
     30 H           4.1001    1.9401   -0.6650 H       1  UNL1        0.0691
     31 H           3.2461   -0.2437   -3.1276 H       1  UNL1        0.2921
     32 H           1.2257   -1.0600   -1.4302 H       1  UNL1        0.0658
@<TRIPOS>BOND
     1     1     2    1
     2     2     3    1
     3     2     4    1
     4     4     5    1
     5     5     6    1
     6     6     7    1
     7     6     8    1
     8     8     9   ar
     9     9    10   ar
    10    10    11    1
    11    10    12   ar
    12    12    13   ar
    13    13    14    1
    14    13    15   ar
    15    15     8   ar
    16     1    16    1
    17     1    17    1
    18     1    18    1
    19     2    19    1
    20     3    20    1
    21     3    21    1
    22     3    22    1
    23     4    23    1
    24     5    24    1
    25     5    25    1
    26     6    26    1
    27     7    27    1
    28     9    28    1
    29    11    29    1
    30    12    30    1
    31    14    31    1
    32    15    32    1
