@<TRIPOS>MOLECULE
*****
 41 42 0 0 0
SMALL
GASTEIGER

@<TRIPOS>ATOM
      1 C           3.4845   -3.0594    0.0158 C.3     1  UNL1        0.0833
      2 O           3.4412   -1.6987   -0.3540 O.3     1  UNL1       -0.4533
      3 C           2.4169   -0.8206   -0.0063 C.2     1  UNL1        0.4097
      4 O           1.4920   -1.3122    0.6774 O.2     1  UNL1       -0.2258
      5 N           2.4696    0.5346   -0.4267 N.am    1  UNL1       -0.1926
      6 C           3.6305    0.9414   -1.2282 C.3     1  UNL1        0.1228
      7 C           4.6786    1.3979   -0.2846 C.2     1  UNL1        0.3229
      8 O           4.4404    1.3456    0.9517 O.2     1  UNL1       -0.2492
      9 O           5.9163    1.8843   -0.6696 O.3     1  UNL1       -0.4795
     10 C           1.5122    1.5181   -0.1427 C.2     1  UNL1        0.2592
     11 O           1.6581    2.7096   -0.6022 O.2     1  UNL1       -0.2693
     12 C           0.3086    1.3402    0.6575 C.ar    1  UNL1        0.0802
     13 C           0.3276    1.8261    1.9658 C.ar    1  UNL1        0.1361
     14 F           1.4712    2.4191    2.4240 F       1  UNL1       -0.2047
     15 C          -0.7645    1.7211    2.7983 C.ar    1  UNL1       -0.0251
     16 C          -1.9096    1.1186    2.3240 C.ar    1  UNL1       -0.0506
     17 C          -1.9640    0.6256    1.0338 C.ar    1  UNL1       -0.0018
     18 C          -3.1289    0.0333    0.6141 C.ar    1  UNL1        0.1040
     19 C          -4.3071   -0.0795    1.4917 C.3     1  UNL1        0.4213
     20 F          -4.8038    1.1273    1.9190 F       1  UNL1       -0.1657
     21 F          -4.0397   -0.8406    2.6126 F       1  UNL1       -0.1657
     22 F          -5.3529   -0.7237    0.8432 F       1  UNL1       -0.1657
     23 C          -3.2014   -0.4724   -0.6845 C.ar    1  UNL1        0.1324
     24 O          -4.3894   -1.0627   -1.0673 O.3     1  UNL1       -0.4945
     25 C          -4.6062   -1.6150   -2.3484 C.3     1  UNL1        0.0788
     26 C          -2.0858   -0.3475   -1.4858 C.ar    1  UNL1       -0.0188
     27 C          -0.9114    0.2431   -1.0812 C.ar    1  UNL1       -0.0497
     28 C          -0.8430    0.7412    0.2023 C.ar    1  UNL1       -0.0022
     29 H           3.8192   -3.1871    1.0625 H       1  UNL1        0.0661
     30 H           2.5691   -3.6015   -0.2250 H       1  UNL1        0.0661
     31 H           4.2988   -3.5095   -0.6313 H       1  UNL1        0.0661
     32 H           3.9772    0.0540   -1.7767 H       1  UNL1        0.0586
     33 H           3.3610    1.7786   -1.9043 H       1  UNL1        0.0586
     34 H           6.7499    1.6204   -0.1195 H       1  UNL1        0.2951
     35 H          -0.7536    2.0969    3.8087 H       1  UNL1        0.0647
     36 H          -2.7777    1.0320    2.9703 H       1  UNL1        0.0625
     37 H          -5.3684   -2.4354   -2.3094 H       1  UNL1        0.0660
     38 H          -4.9572   -0.8418   -3.0794 H       1  UNL1        0.0660
     39 H          -3.6597   -2.0960   -2.6619 H       1  UNL1        0.0660
     40 H          -2.1516   -0.7405   -2.4960 H       1  UNL1        0.0654
     41 H          -0.0470    0.3350   -1.7177 H       1  UNL1        0.0625
@<TRIPOS>BOND
     1     1     2    1
     2     2     3    1
     3     3     4    2
     4     3     5   am
     5     5     6    1
     6     6     7    1
     7     7     8    2
     8     7     9    1
     9     5    10   am
    10    10    11    2
    11    10    12    1
    12    12    13   ar
    13    13    14    1
    14    13    15   ar
    15    15    16   ar
    16    16    17   ar
    17    17    18   ar
    18    18    19    1
    19    19    20    1
    20    19    21    1
    21    19    22    1
    22    18    23   ar
    23    23    24    1
    24    24    25    1
    25    23    26   ar
    26    26    27   ar
    27    27    28   ar
    28    28    12   ar
    29    28    17   ar
    30     1    29    1
    31     1    30    1
    32     1    31    1
    33     6    32    1
    34     6    33    1
    35     9    34    1
    36    15    35    1
    37    16    36    1
    38    25    37    1
    39    25    38    1
    40    25    39    1
    41    26    40    1
    42    27    41    1
