@<TRIPOS>MOLECULE
*****
 42 45 0 0 0
SMALL
GASTEIGER

@<TRIPOS>ATOM
      1 C           6.7385   -1.7584    1.1475 C.3     1  UNL1        0.0055
      2 N           6.8514   -0.8799    0.0027 N.3     1  UNL1       -0.1973
      3 S           5.2497   -0.5541   -0.5673 S.O2    1  UNL1        0.0332
      4 O           4.5205   -1.8462   -0.8412 O.2     1  UNL1       -0.1579
      5 O           5.2668    0.3477   -1.7655 O.2     1  UNL1       -0.1579
      6 C           4.3494    0.2658    0.7268 C.3     1  UNL1        0.1067
      7 C           2.9751    0.5453    0.2377 C.ar    1  UNL1       -0.0249
      8 C           2.7297    1.7494   -0.4072 C.ar    1  UNL1       -0.0552
      9 C           1.5288    2.1383   -0.9045 C.ar    1  UNL1       -0.0388
     10 C           0.4796    1.2528   -0.7472 C.ar    1  UNL1        0.0483
     11 N          -0.7986    1.6072   -1.2478 N.pl3   1  UNL1       -0.2371
     12 N          -2.0423    0.9530   -1.2523 N.2     1  UNL1       -0.1767
     13 C          -2.7465    0.8745   -0.1754 C.2     1  UNL1        0.1535
     14 C          -2.4471    1.3932    1.1614 C.2     1  UNL1        0.2688
     15 O          -1.4011    2.0241    1.4639 O.2     1  UNL1       -0.2681
     16 N          -3.5511    1.0355    1.9819 N.am    1  UNL1       -0.2796
     17 C          -4.5481    0.3197    1.2705 C.ar    1  UNL1        0.0443
     18 C          -4.0396    0.2435    0.0016 C.ar    1  UNL1        0.0440
     19 C          -4.7834   -0.4080   -0.9636 C.ar    1  UNL1        0.0501
     20 C          -6.0941   -1.0393   -0.7535 C.ar    1  UNL1        0.0789
     21 C          -6.5187   -0.9110    0.5453 C.ar    1  UNL1       -0.0334
     22 C          -5.7753   -0.2669    1.4839 C.ar    1  UNL1       -0.0377
     23 N          -6.6136   -1.6050   -1.8365 N.ar    1  UNL1       -0.2474
     24 C          -6.1813   -1.6680   -2.9087 C.ar    1  UNL1        0.0659
     25 S          -4.4950   -0.7522   -2.7958 S.2     1  UNL1       -0.0747
     26 C           0.6428    0.0441   -0.1213 C.ar    1  UNL1       -0.0388
     27 C           1.9008   -0.3049    0.3715 C.ar    1  UNL1       -0.0552
     28 H           6.1227   -2.6363    0.8331 H       1  UNL1        0.0405
     29 H           6.2700   -1.2182    2.0033 H       1  UNL1        0.0405
     30 H           7.7554   -2.0637    1.4965 H       1  UNL1        0.0405
     31 H           7.3104    0.0120    0.2242 H       1  UNL1        0.1473
     32 H           4.3826   -0.3072    1.6688 H       1  UNL1        0.0565
     33 H           4.8644    1.2376    0.8927 H       1  UNL1        0.0565
     34 H           3.5599    2.4422   -0.5279 H       1  UNL1        0.0621
     35 H           1.3528    3.0805   -1.4050 H       1  UNL1        0.0637
     36 H          -0.9624    2.5211   -1.7314 H       1  UNL1        0.1744
     37 H          -3.6563    1.2601    3.0164 H       1  UNL1        0.1552
     38 H          -7.4660   -1.3276    0.8438 H       1  UNL1        0.0640
     39 H          -6.1629   -0.1919    2.5136 H       1  UNL1        0.0637
     40 H          -6.5824   -2.1340   -3.8532 H       1  UNL1        0.0907
     41 H          -0.1396   -0.6861    0.0298 H       1  UNL1        0.0637
     42 H           2.1540   -1.2407    0.8888 H       1  UNL1        0.0621
@<TRIPOS>BOND
     1     1     2    1
     2     2     3    1
     3     3     4    2
     4     3     5    2
     5     3     6    1
     6     6     7    1
     7     7     8   ar
     8     8     9   ar
     9     9    10   ar
    10    10    11    1
    11    11    12    1
    12    12    13    2
    13    13    14    1
    14    14    15    2
    15    14    16   am
    16    16    17    1
    17    17    18   ar
    18    18    19   ar
    19    19    20   ar
    20    20    21   ar
    21    21    22   ar
    22    20    23   ar
    23    23    24   ar
    24    24    25   ar
    25    10    26   ar
    26    26    27   ar
    27    27     7   ar
    28    18    13    1
    29    25    19   ar
    30    22    17   ar
    31     1    28    1
    32     1    29    1
    33     1    30    1
    34     2    31    1
    35     6    32    1
    36     6    33    1
    37     8    34    1
    38     9    35    1
    39    11    36    1
    40    16    37    1
    41    21    38    1
    42    22    39    1
    43    24    40    1
    44    26    41    1
    45    27    42    1
