@<TRIPOS>MOLECULE
*****
 49 52 0 0 0
SMALL
GASTEIGER

@<TRIPOS>ATOM
      1 O           0.9387   -0.0276    2.0023 O.2     1  UNL1       -0.2702
      2 C           1.0835   -0.1455    0.7439 C.2     1  UNL1        0.2446
      3 N          -0.0692   -0.3045   -0.0337 N.am    1  UNL1       -0.3043
      4 C          -1.4144   -0.3434    0.5027 C.3     1  UNL1        0.0516
      5 C          -2.0845   -1.6230    0.2216 C.ar    1  UNL1       -0.0256
      6 C          -2.0055   -2.1785   -1.0361 C.ar    1  UNL1       -0.0567
      7 C          -2.6402   -3.3769   -1.2776 C.ar    1  UNL1       -0.0601
      8 C          -3.3538   -4.0475   -0.3122 C.ar    1  UNL1       -0.0434
      9 C          -3.4393   -3.5036    0.9442 C.ar    1  UNL1        0.0413
     10 CL         -4.3449   -4.3484    2.1808 Cl      1  UNL1       -0.0835
     11 C          -2.8026   -2.3047    1.1807 C.ar    1  UNL1       -0.0384
     12 C          -2.2319    0.8461    0.0439 C.3     1  UNL1       -0.0161
     13 C          -3.6276    0.8222    0.5894 C.3     1  UNL1       -0.0356
     14 C          -4.2028    2.2138    0.5780 C.3     1  UNL1       -0.0038
     15 N          -3.6252    3.0370   -0.4629 N.3     1  UNL1       -0.3160
     16 C          -2.2198    3.2604   -0.3063 C.3     1  UNL1       -0.0038
     17 C          -1.5916    2.1458    0.4833 C.3     1  UNL1       -0.0356
     18 C           2.4398   -0.1064    0.2011 C.ar    1  UNL1        0.0373
     19 C           2.7077   -0.2237   -1.1386 C.ar    1  UNL1       -0.0490
     20 C           4.0288   -0.1790   -1.6013 C.ar    1  UNL1       -0.0519
     21 C           5.0942   -0.0181   -0.7436 C.ar    1  UNL1        0.0003
     22 C           6.4062    0.0314   -1.1538 C.ar    1  UNL1        0.0353
     23 N           7.4309    0.1906   -0.2846 N.ar    1  UNL1       -0.2626
     24 C           7.2058    0.3080    1.0269 C.ar    1  UNL1        0.0281
     25 C           5.8980    0.2615    1.4635 C.ar    1  UNL1       -0.0359
     26 C           4.8315    0.0998    0.5980 C.ar    1  UNL1       -0.0143
     27 C           3.5251    0.0537    1.0374 C.ar    1  UNL1       -0.0418
     28 H           0.0347   -0.4023   -1.0664 H       1  UNL1        0.1496
     29 H          -1.3110   -0.2225    1.6198 H       1  UNL1        0.0551
     30 H          -1.4558   -1.6884   -1.8285 H       1  UNL1        0.0621
     31 H          -2.5958   -3.8437   -2.2672 H       1  UNL1        0.0618
     32 H          -3.8351   -4.9924   -0.5615 H       1  UNL1        0.0632
     33 H          -2.8984   -1.9074    2.2008 H       1  UNL1        0.0635
     34 H          -2.3119    0.8837   -1.0693 H       1  UNL1        0.0323
     35 H          -3.6652    0.4758    1.6571 H       1  UNL1        0.0281
     36 H          -4.2890    0.1827   -0.0420 H       1  UNL1        0.0281
     37 H          -5.2918    2.1588    0.3714 H       1  UNL1        0.0424
     38 H          -4.1245    2.6996    1.5898 H       1  UNL1        0.0424
     39 H          -4.1046    3.9737   -0.3917 H       1  UNL1        0.1219
     40 H          -1.9817    4.2241    0.1880 H       1  UNL1        0.0424
     41 H          -1.7394    3.2382   -1.3253 H       1  UNL1        0.0424
     42 H          -0.4912    2.1370    0.3570 H       1  UNL1        0.0281
     43 H          -1.7566    2.2923    1.5892 H       1  UNL1        0.0281
     44 H           1.9111   -0.3507   -1.8454 H       1  UNL1        0.0625
     45 H           4.2547   -0.2713   -2.6666 H       1  UNL1        0.0624
     46 H           6.5885   -0.0650   -2.2286 H       1  UNL1        0.0836
     47 H           8.0541    0.4332    1.6819 H       1  UNL1        0.0830
     48 H           5.7225    0.3564    2.5191 H       1  UNL1        0.0639
     49 H           3.3498    0.1486    2.0931 H       1  UNL1        0.0631
@<TRIPOS>BOND
     1     1     2    2
     2     2     3   am
     3     3     4    1
     4     4     5    1
     5     5     6   ar
     6     6     7   ar
     7     7     8   ar
     8     8     9   ar
     9     9    10    1
    10     9    11   ar
    11     4    12    1
    12    12    13    1
    13    13    14    1
    14    14    15    1
    15    15    16    1
    16    16    17    1
    17     2    18    1
    18    18    19   ar
    19    19    20   ar
    20    20    21   ar
    21    21    22   ar
    22    22    23   ar
    23    23    24   ar
    24    24    25   ar
    25    25    26   ar
    26    26    27   ar
    27    11     5   ar
    28    17    12    1
    29    27    18   ar
    30    26    21   ar
    31     3    28    1
    32     4    29    1
    33     6    30    1
    34     7    31    1
    35     8    32    1
    36    11    33    1
    37    12    34    1
    38    13    35    1
    39    13    36    1
    40    14    37    1
    41    14    38    1
    42    15    39    1
    43    16    40    1
    44    16    41    1
    45    17    42    1
    46    17    43    1
    47    19    44    1
    48    20    45    1
    49    22    46    1
    50    24    47    1
    51    25    48    1
    52    27    49    1
