@<TRIPOS>MOLECULE
*****
 87 86 0 0 0
SMALL
GASTEIGER

@<TRIPOS>ATOM
      1 C         -14.1636   -0.9945   -0.6672 C.3     1  UNL1        0.0143
      2 C         -13.8377   -0.3047    0.6279 C.2     1  UNL1        0.2349
      3 O         -14.1998   -0.2210    1.8251 O.2     1  UNL1       -0.2738
      4 N         -12.7264    0.5324    0.3460 N.am    1  UNL1       -0.1841
      5 O         -13.1114    0.6357    1.6601 O.3     1  UNL1       -0.2925
      6 C         -11.5952    1.3039   -0.1919 C.3     1  UNL1        0.0417
      7 C         -10.3772    0.4157    0.0158 C.3     1  UNL1       -0.0348
      8 C          -9.1193    1.0741   -0.4914 C.3     1  UNL1       -0.0501
      9 C          -7.9354    0.1566   -0.2634 C.3     1  UNL1       -0.0373
     10 C          -7.7154   -0.1698    1.1775 C.3     1  UNL1        0.0116
     11 N          -6.5943   -1.0419    1.4357 N.am    1  UNL1       -0.3153
     12 C          -5.2238   -0.7632    1.1024 C.2     1  UNL1        0.2135
     13 O          -4.9563    0.3461    0.5251 O.2     1  UNL1       -0.2758
     14 C          -4.1534   -1.7407    1.4236 C.3     1  UNL1        0.0323
     15 C          -2.8405   -1.1662    0.9402 C.3     1  UNL1        0.0344
     16 C          -2.5378    0.1338    1.5779 C.2     1  UNL1        0.2385
     17 O          -2.1334    1.2342    2.0538 O.2     1  UNL1       -0.2735
     18 N          -1.2103    0.5106    1.2392 N.am    1  UNL1       -0.1838
     19 O          -1.2387    1.7009    1.9076 O.3     1  UNL1       -0.2925
     20 C           0.0483    0.1436    0.5440 C.3     1  UNL1        0.0417
     21 C          -0.0918    0.6635   -0.8391 C.3     1  UNL1       -0.0348
     22 C           0.9895    0.5651   -1.8136 C.3     1  UNL1       -0.0501
     23 C           1.4948   -0.7532   -2.2319 C.3     1  UNL1       -0.0373
     24 C           2.1288   -1.5597   -1.1475 C.3     1  UNL1        0.0116
     25 N           3.2256   -0.7914   -0.5693 N.am    1  UNL1       -0.3153
     26 C           4.3514   -0.4255   -1.3529 C.2     1  UNL1        0.2135
     27 O           4.5559   -0.6961   -2.5620 O.2     1  UNL1       -0.2758
     28 C           5.4245    0.3628   -0.6959 C.3     1  UNL1        0.0323
     29 C           6.5979    0.2729   -1.6879 C.3     1  UNL1        0.0344
     30 C           7.7571    1.0104   -1.2192 C.2     1  UNL1        0.2385
     31 O           7.5692    2.0021   -0.4814 O.2     1  UNL1       -0.2735
     32 N           9.0582    1.5360   -0.9160 N.am    1  UNL1       -0.1838
     33 O           9.1074    2.6161   -0.1452 O.3     1  UNL1       -0.2925
     34 C          10.1373    0.7504   -1.5331 C.3     1  UNL1        0.0417
     35 C          10.4925   -0.3117   -0.5069 C.3     1  UNL1       -0.0348
     36 C          10.9567    0.3711    0.7559 C.3     1  UNL1       -0.0504
     37 C          11.2991   -0.6901    1.7692 C.3     1  UNL1       -0.0406
     38 C          12.3826   -1.6141    1.3076 C.3     1  UNL1       -0.0069
     39 N          13.6355   -0.9704    1.0092 N.3     1  UNL1       -0.3300
     40 H         -13.2643   -1.5187   -1.0595 H       1  UNL1        0.0323
     41 H         -14.9222   -1.7870   -0.4728 H       1  UNL1        0.0323
     42 H         -14.5095   -0.2385   -1.3833 H       1  UNL1        0.0323
     43 H         -12.2876    0.9220    2.1473 H       1  UNL1        0.2417
     44 H         -11.7800    1.5733   -1.2310 H       1  UNL1        0.0489
     45 H         -11.5054    2.1981    0.4344 H       1  UNL1        0.0489
     46 H         -10.3355    0.2423    1.1173 H       1  UNL1        0.0281
     47 H         -10.5489   -0.5716   -0.4544 H       1  UNL1        0.0281
     48 H          -9.0024    2.0347    0.0651 H       1  UNL1        0.0266
     49 H          -9.2299    1.2499   -1.5757 H       1  UNL1        0.0266
     50 H          -7.0166    0.5793   -0.7198 H       1  UNL1        0.0280
     51 H          -8.1564   -0.8127   -0.7990 H       1  UNL1        0.0280
     52 H          -8.5963   -0.6134    1.6707 H       1  UNL1        0.0462
     53 H          -7.5410    0.7957    1.7410 H       1  UNL1        0.0462
     54 H          -6.7348   -1.9840    1.9077 H       1  UNL1        0.1487
     55 H          -4.3202   -2.6742    0.8501 H       1  UNL1        0.0363
     56 H          -4.1268   -2.0074    2.5114 H       1  UNL1        0.0363
     57 H          -2.0133   -1.8924    1.0222 H       1  UNL1        0.0364
     58 H          -2.9986   -0.9912   -0.1654 H       1  UNL1        0.0364
     59 H          -0.5734    2.3141    1.4624 H       1  UNL1        0.2417
     60 H           0.8541    0.5672    1.1435 H       1  UNL1        0.0489
     61 H           0.1185   -0.9667    0.6130 H       1  UNL1        0.0489
     62 H          -0.3687    1.7740   -0.7863 H       1  UNL1        0.0281
     63 H          -1.0374    0.1457   -1.2476 H       1  UNL1        0.0281
     64 H           1.8416    1.2431   -1.4592 H       1  UNL1        0.0266
     65 H           0.7149    1.1161   -2.7916 H       1  UNL1        0.0266
     66 H           0.6314   -1.3076   -2.7043 H       1  UNL1        0.0280
     67 H           2.2788   -0.5989   -3.0526 H       1  UNL1        0.0280
     68 H           2.7024   -2.4205   -1.6924 H       1  UNL1        0.0462
     69 H           1.4891   -2.0781   -0.4763 H       1  UNL1        0.0462
     70 H           3.1515   -0.5252    0.4334 H       1  UNL1        0.1487
     71 H           5.1263    1.4250   -0.5551 H       1  UNL1        0.0363
     72 H           5.6967   -0.0717    0.2877 H       1  UNL1        0.0363
     73 H           6.1661    0.7158   -2.6355 H       1  UNL1        0.0364
     74 H           6.7336   -0.7859   -1.9153 H       1  UNL1        0.0364
     75 H           9.4340    3.4299   -0.5979 H       1  UNL1        0.2417
     76 H          11.0342    1.3876   -1.6715 H       1  UNL1        0.0489
     77 H           9.8093    0.2521   -2.4479 H       1  UNL1        0.0489
     78 H          11.3202   -0.9144   -0.9428 H       1  UNL1        0.0281
     79 H           9.6132   -0.9414   -0.2539 H       1  UNL1        0.0281
     80 H          11.8361    1.0283    0.5699 H       1  UNL1        0.0266
     81 H          10.1599    1.0040    1.1737 H       1  UNL1        0.0266
     82 H          10.3798   -1.2835    1.9480 H       1  UNL1        0.0277
     83 H          11.5641   -0.1961    2.7393 H       1  UNL1        0.0277
     84 H          12.5723   -2.3236    2.1616 H       1  UNL1        0.0422
     85 H          12.0038   -2.2179    0.4643 H       1  UNL1        0.0422
     86 H          13.7967   -0.1055    1.5339 H       1  UNL1        0.1182
     87 H          14.3897   -1.6755    1.1647 H       1  UNL1        0.1182
@<TRIPOS>BOND
     1     1     2    1
     2     2     3    2
     3     2     4   am
     4     4     5    1
     5     4     6    1
     6     6     7    1
     7     7     8    1
     8     8     9    1
     9     9    10    1
    10    10    11    1
    11    11    12   am
    12    12    13    2
    13    12    14    1
    14    14    15    1
    15    15    16    1
    16    16    17    2
    17    16    18   am
    18    18    19    1
    19    18    20    1
    20    20    21    1
    21    21    22    1
    22    22    23    1
    23    23    24    1
    24    24    25    1
    25    25    26   am
    26    26    27    2
    27    26    28    1
    28    28    29    1
    29    29    30    1
    30    30    31    2
    31    30    32   am
    32    32    33    1
    33    32    34    1
    34    34    35    1
    35    35    36    1
    36    36    37    1
    37    37    38    1
    38    38    39    1
    39     1    40    1
    40     1    41    1
    41     1    42    1
    42     5    43    1
    43     6    44    1
    44     6    45    1
    45     7    46    1
    46     7    47    1
    47     8    48    1
    48     8    49    1
    49     9    50    1
    50     9    51    1
    51    10    52    1
    52    10    53    1
    53    11    54    1
    54    14    55    1
    55    14    56    1
    56    15    57    1
    57    15    58    1
    58    19    59    1
    59    20    60    1
    60    20    61    1
    61    21    62    1
    62    21    63    1
    63    22    64    1
    64    22    65    1
    65    23    66    1
    66    23    67    1
    67    24    68    1
    68    24    69    1
    69    25    70    1
    70    28    71    1
    71    28    72    1
    72    29    73    1
    73    29    74    1
    74    33    75    1
    75    34    76    1
    76    34    77    1
    77    35    78    1
    78    35    79    1
    79    36    80    1
    80    36    81    1
    81    37    82    1
    82    37    83    1
    83    38    84    1
    84    38    85    1
    85    39    86    1
    86    39    87    1
