@<TRIPOS>MOLECULE
*****
 51 54 0 0 0
SMALL
GASTEIGER

@<TRIPOS>ATOM
      1 C          -1.8850    1.5882    2.3404 C.3     1  UNL1        0.0789
      2 O          -1.5535    2.0978    1.0638 O.3     1  UNL1       -0.4932
      3 C          -2.4112    1.7933    0.0103 C.ar    1  UNL1        0.1419
      4 C          -3.5418    1.0283    0.1901 C.ar    1  UNL1       -0.0060
      5 C          -4.4122    0.7090   -0.8258 C.ar    1  UNL1        0.0405
      6 C          -5.6011   -0.0988   -0.6208 C.2     1  UNL1        0.2463
      7 O          -6.6852    0.2913   -1.0926 O.2     1  UNL1       -0.2700
      8 N          -5.5370   -1.3063    0.0998 N.am    1  UNL1       -0.3036
      9 C          -4.3184   -1.8331    0.6822 C.3     1  UNL1        0.0031
     10 C          -6.7375   -2.0947    0.2902 C.3     1  UNL1        0.0031
     11 C          -4.0938    1.2086   -2.0944 C.ar    1  UNL1       -0.0476
     12 C          -2.9667    1.9749   -2.2903 C.ar    1  UNL1       -0.0362
     13 C          -2.1052    2.2826   -1.2502 C.ar    1  UNL1        0.0747
     14 N          -0.9501    3.0673   -1.4109 N.pl3   1  UNL1       -0.2965
     15 C           0.3745    2.6196   -1.1608 C.ar    1  UNL1        0.1249
     16 C           0.6856    1.3340   -0.7816 C.ar    1  UNL1        0.0023
     17 C           1.9965    0.9234   -0.5354 C.ar    1  UNL1        0.0516
     18 N           2.5768   -0.2236   -0.1661 N.ar    1  UNL1       -0.3539
     19 C           3.9037   -0.0992   -0.0630 C.ar    1  UNL1        0.0505
     20 C           4.8749   -1.1319    0.3164 C.ar    1  UNL1        0.0357
     21 C           4.6413   -2.4433    0.6475 C.ar    1  UNL1        0.0585
     22 N           5.8356   -2.9918    0.9188 N.ar    1  UNL1       -0.1792
     23 N           6.8170   -2.1163    0.7828 N.ar    1  UNL1       -0.2738
     24 C           8.2302   -2.3701    0.9970 C.3     1  UNL1        0.0302
     25 C           6.2373   -0.9628    0.4108 C.ar    1  UNL1        0.0343
     26 C           4.2032    1.2024   -0.3833 C.ar    1  UNL1       -0.0271
     27 C           3.0142    1.8326   -0.6758 C.ar    1  UNL1        0.0185
     28 C           2.6886    3.1046   -1.0530 C.ar    1  UNL1        0.0389
     29 N           1.4072    3.4704   -1.2840 N.ar    1  UNL1       -0.2395
     30 H          -1.1456    1.8851    3.1099 H       1  UNL1        0.0660
     31 H          -1.8686    0.4604    2.3266 H       1  UNL1        0.0660
     32 H          -2.9138    1.8751    2.5892 H       1  UNL1        0.0660
     33 H          -3.7553    0.6609    1.1832 H       1  UNL1        0.0662
     34 H          -4.3270   -1.5896    1.7745 H       1  UNL1        0.0428
     35 H          -4.3074   -2.9607    0.6252 H       1  UNL1        0.0428
     36 H          -3.4029   -1.4984    0.1675 H       1  UNL1        0.0428
     37 H          -6.5511   -3.1477    0.5151 H       1  UNL1        0.0428
     38 H          -7.2909   -1.6722    1.1609 H       1  UNL1        0.0428
     39 H          -7.4183   -2.0420   -0.5844 H       1  UNL1        0.0428
     40 H          -4.7777    0.9568   -2.8906 H       1  UNL1        0.0626
     41 H          -2.7389    2.3497   -3.2753 H       1  UNL1        0.0637
     42 H          -1.0817    4.0686   -1.7443 H       1  UNL1        0.1537
     43 H          -0.0887    0.6010   -0.6697 H       1  UNL1        0.0673
     44 H           2.0289   -1.0974    0.0131 H       1  UNL1        0.1659
     45 H           3.6572   -2.9089    0.6722 H       1  UNL1        0.0854
     46 H           8.7933   -1.4358    0.8056 H       1  UNL1        0.0473
     47 H           8.3575   -2.5780    2.0964 H       1  UNL1        0.0473
     48 H           8.6080   -3.2039    0.3963 H       1  UNL1        0.0473
     49 H           6.8236   -0.0536    0.2256 H       1  UNL1        0.0833
     50 H           5.2013    1.6347   -0.3966 H       1  UNL1        0.0645
     51 H           3.5102    3.8234   -1.1624 H       1  UNL1        0.0837
@<TRIPOS>BOND
     1     1     2    1
     2     2     3    1
     3     3     4   ar
     4     4     5   ar
     5     5     6    1
     6     6     7    2
     7     6     8   am
     8     8     9    1
     9     8    10    1
    10     5    11   ar
    11    11    12   ar
    12    12    13   ar
    13    13    14    1
    14    14    15    1
    15    15    16   ar
    16    16    17   ar
    17    17    18   ar
    18    18    19   ar
    19    19    20    1
    20    20    21   ar
    21    21    22   ar
    22    22    23   ar
    23    23    24    1
    24    23    25   ar
    25    19    26   ar
    26    26    27   ar
    27    27    28   ar
    28    28    29   ar
    29    13     3   ar
    30    29    15   ar
    31    27    17   ar
    32    25    20   ar
    33     1    30    1
    34     1    31    1
    35     1    32    1
    36     4    33    1
    37     9    34    1
    38     9    35    1
    39     9    36    1
    40    10    37    1
    41    10    38    1
    42    10    39    1
    43    11    40    1
    44    12    41    1
    45    14    42    1
    46    16    43    1
    47    18    44    1
    48    21    45    1
    49    24    46    1
    50    24    47    1
    51    24    48    1
    52    25    49    1
    53    26    50    1
    54    28    51    1
