@<TRIPOS>MOLECULE
*****
 39 42 0 0 0
SMALL
GASTEIGER

@<TRIPOS>ATOM
      1 N          -2.6054   -2.2628    1.9325 N.am    1  UNL1       -0.2552
      2 C          -3.2590   -2.6118    0.7181 C.2     1  UNL1        0.2210
      3 O          -4.3514   -3.2661    0.7573 O.2     1  UNL1       -0.2753
      4 C          -2.5441   -2.1438   -0.4926 C.3     1  UNL1        0.0508
      5 C          -1.5832   -1.1415    0.0256 C.3     1  UNL1        0.1572
      6 C          -1.4746   -1.5293    1.4769 C.2     1  UNL1        0.2392
      7 O          -0.4448   -1.1852    2.1192 O.2     1  UNL1       -0.2739
      8 C          -0.2709   -1.1771   -0.6360 C.2     1  UNL1        0.2423
      9 O           0.2021   -2.3307   -0.8000 O.2     1  UNL1       -0.2736
     10 N           0.5410   -0.1252   -1.1169 N.am    1  UNL1       -0.2325
     11 C           1.8520   -0.1219   -1.7052 C.3     1  UNL1        0.0504
     12 C           2.9828    0.0260   -0.7919 C.ar    1  UNL1        0.0056
     13 C           3.5655   -0.9145    0.0284 C.ar    1  UNL1        0.1291
     14 F           3.0699   -2.1588    0.0080 F       1  UNL1       -0.2051
     15 C           4.6319   -0.6749    0.8674 C.ar    1  UNL1       -0.0122
     16 C           5.1744    0.5720    0.9133 C.ar    1  UNL1        0.0206
     17 BR          6.6554    0.8792    2.0840 Br      1  UNL1       -0.0502
     18 C           4.6834    1.6002    0.1421 C.ar    1  UNL1       -0.0473
     19 C           3.6041    1.2783   -0.6798 C.ar    1  UNL1       -0.0533
     20 C          -0.0679    1.1802   -0.9823 C.2     1  UNL1        0.2535
     21 O           0.5023    2.2303   -1.3581 O.2     1  UNL1       -0.2695
     22 C          -1.3921    1.3733   -0.3992 C.ar    1  UNL1        0.0421
     23 C          -2.0826    0.2572    0.0435 C.ar    1  UNL1       -0.0084
     24 C          -3.3582    0.4810    0.5729 C.ar    1  UNL1       -0.0211
     25 C          -3.9213    1.7404    0.6611 C.ar    1  UNL1        0.1237
     26 F          -5.1502    1.9793    1.1670 F       1  UNL1       -0.2055
     27 C          -3.2193    2.8282    0.2179 C.ar    1  UNL1       -0.0257
     28 C          -1.9688    2.6260   -0.3038 C.ar    1  UNL1       -0.0466
     29 H          -2.8532   -2.4684    2.9152 H       1  UNL1        0.1575
     30 H          -3.2251   -1.7960   -1.2956 H       1  UNL1        0.0377
     31 H          -1.9327   -3.0237   -0.8283 H       1  UNL1        0.0377
     32 H           2.0049   -1.0590   -2.3331 H       1  UNL1        0.0520
     33 H           1.9457    0.6873   -2.4892 H       1  UNL1        0.0520
     34 H           5.0295   -1.4506    1.4716 H       1  UNL1        0.0657
     35 H           5.0879    2.5981    0.1542 H       1  UNL1        0.0629
     36 H           3.2361    2.1082   -1.2799 H       1  UNL1        0.0622
     37 H          -4.0255   -0.2925    0.9608 H       1  UNL1        0.0649
     38 H          -3.6294    3.8204    0.2730 H       1  UNL1        0.0646
     39 H          -1.4091    3.4680   -0.6538 H       1  UNL1        0.0626
@<TRIPOS>BOND
     1     1     2   am
     2     2     3    2
     3     2     4    1
     4     5     4    1
     5     5     6    1
     6     6     7    2
     7     5     8    1
     8     8     9    2
     9     8    10   am
    10    10    11    1
    11    11    12    1
    12    12    13   ar
    13    13    14    1
    14    13    15   ar
    15    15    16   ar
    16    16    17    1
    17    16    18   ar
    18    18    19   ar
    19    10    20   am
    20    20    21    2
    21    20    22    1
    22    22    23   ar
    23    23    24   ar
    24    24    25   ar
    25    25    26    1
    26    25    27   ar
    27    27    28   ar
    28     6     1   am
    29    19    12   ar
    30    28    22   ar
    31    23     5    1
    32     1    29    1
    33     4    30    1
    34     4    31    1
    35    11    32    1
    36    11    33    1
    37    15    34    1
    38    18    35    1
    39    19    36    1
    40    24    37    1
    41    27    38    1
    42    28    39    1
