
     RDKit          3D

 39 42  0  0  0  0  0  0  0  0999 V2000
   -2.6054   -2.2628    1.9325 N   0  0  0  0  0  0  0  0  0  0  0  0
   -3.2590   -2.6118    0.7181 C   0  0  0  0  0  0  0  0  0  0  0  0
   -4.3514   -3.2661    0.7573 O   0  0  0  0  0  0  0  0  0  0  0  0
   -2.5441   -2.1438   -0.4926 C   0  0  0  0  0  0  0  0  0  0  0  0
   -1.5832   -1.1415    0.0256 C   0  0  1  0  0  0  0  0  0  0  0  0
   -1.4746   -1.5293    1.4769 C   0  0  0  0  0  0  0  0  0  0  0  0
   -0.4448   -1.1852    2.1192 O   0  0  0  0  0  0  0  0  0  0  0  0
   -0.2709   -1.1771   -0.6360 C   0  0  0  0  0  0  0  0  0  0  0  0
    0.2021   -2.3307   -0.8000 O   0  0  0  0  0  0  0  0  0  0  0  0
    0.5410   -0.1252   -1.1169 N   0  0  0  0  0  0  0  0  0  0  0  0
    1.8520   -0.1219   -1.7052 C   0  0  0  0  0  0  0  0  0  0  0  0
    2.9828    0.0260   -0.7919 C   0  0  0  0  0  0  0  0  0  0  0  0
    3.5655   -0.9145    0.0284 C   0  0  0  0  0  0  0  0  0  0  0  0
    3.0699   -2.1588    0.0080 F   0  0  0  0  0  0  0  0  0  0  0  0
    4.6319   -0.6749    0.8674 C   0  0  0  0  0  0  0  0  0  0  0  0
    5.1744    0.5720    0.9133 C   0  0  0  0  0  0  0  0  0  0  0  0
    6.6554    0.8792    2.0840 Br  0  0  0  0  0  0  0  0  0  0  0  0
    4.6834    1.6002    0.1421 C   0  0  0  0  0  0  0  0  0  0  0  0
    3.6041    1.2783   -0.6798 C   0  0  0  0  0  0  0  0  0  0  0  0
   -0.0679    1.1802   -0.9823 C   0  0  0  0  0  0  0  0  0  0  0  0
    0.5023    2.2303   -1.3581 O   0  0  0  0  0  0  0  0  0  0  0  0
   -1.3921    1.3733   -0.3992 C   0  0  0  0  0  0  0  0  0  0  0  0
   -2.0826    0.2572    0.0435 C   0  0  0  0  0  0  0  0  0  0  0  0
   -3.3582    0.4810    0.5729 C   0  0  0  0  0  0  0  0  0  0  0  0
   -3.9213    1.7404    0.6611 C   0  0  0  0  0  0  0  0  0  0  0  0
   -5.1502    1.9793    1.1670 F   0  0  0  0  0  0  0  0  0  0  0  0
   -3.2193    2.8282    0.2179 C   0  0  0  0  0  0  0  0  0  0  0  0
   -1.9688    2.6260   -0.3038 C   0  0  0  0  0  0  0  0  0  0  0  0
   -2.8532   -2.4684    2.9152 H   0  0  0  0  0  0  0  0  0  0  0  0
   -3.2251   -1.7960   -1.2956 H   0  0  0  0  0  0  0  0  0  0  0  0
   -1.9327   -3.0237   -0.8283 H   0  0  0  0  0  0  0  0  0  0  0  0
    2.0049   -1.0590   -2.3331 H   0  0  0  0  0  0  0  0  0  0  0  0
    1.9457    0.6873   -2.4892 H   0  0  0  0  0  0  0  0  0  0  0  0
    5.0295   -1.4506    1.4716 H   0  0  0  0  0  0  0  0  0  0  0  0
    5.0879    2.5981    0.1542 H   0  0  0  0  0  0  0  0  0  0  0  0
    3.2361    2.1082   -1.2799 H   0  0  0  0  0  0  0  0  0  0  0  0
   -4.0255   -0.2925    0.9608 H   0  0  0  0  0  0  0  0  0  0  0  0
   -3.6294    3.8204    0.2730 H   0  0  0  0  0  0  0  0  0  0  0  0
   -1.4091    3.4680   -0.6538 H   0  0  0  0  0  0  0  0  0  0  0  0
  1  2  1  0
  2  3  2  0
  2  4  1  0
  5  4  1  6
  5  6  1  0
  6  7  2  0
  5  8  1  0
  8  9  2  0
  8 10  1  0
 10 11  1  0
 11 12  1  0
 12 13  2  0
 13 14  1  0
 13 15  1  0
 15 16  2  0
 16 17  1  0
 16 18  1  0
 18 19  2  0
 10 20  1  0
 20 21  2  0
 20 22  1  0
 22 23  2  0
 23 24  1  0
 24 25  2  0
 25 26  1  0
 25 27  1  0
 27 28  2  0
  6  1  1  0
 19 12  1  0
 28 22  1  0
 23  5  1  0
  1 29  1  0
  4 30  1  0
  4 31  1  0
 11 32  1  0
 11 33  1  0
 15 34  1  0
 18 35  1  0
 19 36  1  0
 24 37  1  0
 27 38  1  0
 28 39  1  0
M  END
$$$$
