@<TRIPOS>MOLECULE
*****
 64 68 0 0 0
SMALL
GASTEIGER

@<TRIPOS>ATOM
      1 C          -5.5361   -1.0219    2.2457 C.3     1  UNL1       -0.0635
      2 C          -6.3605   -0.2321    1.2930 C.3     1  UNL1       -0.0350
      3 C          -6.0177   -0.4272   -0.1532 C.3     1  UNL1        0.0492
      4 C          -6.9342    0.4363   -0.9792 C.3     1  UNL1        0.0663
      5 O          -6.2605    1.2269   -1.8945 O.3     1  UNL1       -0.3764
      6 C          -5.3368    2.0896   -1.3357 C.3     1  UNL1        0.0635
      7 C          -4.3902    1.3801   -0.3809 C.3     1  UNL1        0.0385
      8 N          -4.6293   -0.0476   -0.4380 N.am    1  UNL1       -0.2929
      9 C          -3.6448   -1.0137   -0.7373 C.2     1  UNL1        0.2328
     10 O          -4.0030   -2.2260   -0.7467 O.2     1  UNL1       -0.2740
     11 C          -2.2393   -0.6970   -1.0352 C.3     1  UNL1        0.1054
     12 C          -1.3127   -1.8867   -1.2747 C.3     1  UNL1       -0.0220
     13 C          -1.1676   -1.0008   -0.0902 C.3     1  UNL1        0.0134
     14 C          -0.1161    0.0389    0.0626 C.3     1  UNL1        0.0935
     15 C          -0.7202    1.3130    0.6830 C.3     1  UNL1       -0.0351
     16 C           0.9591   -0.3818    1.0083 C.ar    1  UNL1        0.0158
     17 C           2.2642   -0.3880    0.5873 C.ar    1  UNL1       -0.0463
     18 C           3.3220   -0.7556    1.3878 C.ar    1  UNL1       -0.0217
     19 C           4.7186   -0.7560    0.9529 C.2     1  UNL1       -0.0172
     20 C           5.2168    0.1919    0.1674 C.2     1  UNL1        0.1492
     21 F           4.3833    1.1830   -0.2313 F       1  UNL1       -0.2032
     22 C           6.6020    0.1804   -0.2583 C.ar    1  UNL1        0.0990
     23 C           7.1321    1.1522   -1.0648 C.ar    1  UNL1       -0.0322
     24 C           8.4432    1.1374   -1.4662 C.ar    1  UNL1       -0.0408
     25 C           9.2654    0.0977   -1.0394 C.ar    1  UNL1        0.0699
     26 C          10.6493    0.0657   -1.4529 C.1     1  UNL1        0.1007
     27 N          11.7721    0.0417   -1.7792 N.1     1  UNL1       -0.1908
     28 C           8.7100   -0.8662   -0.2303 C.ar    1  UNL1        0.0457
     29 N           7.4105   -0.8123    0.1418 N.ar    1  UNL1       -0.2514
     30 C           3.0580   -1.1411    2.6888 C.ar    1  UNL1       -0.0518
     31 C           1.7365   -1.1395    3.1296 C.ar    1  UNL1       -0.0255
     32 C           0.6881   -0.7654    2.3070 C.ar    1  UNL1        0.1289
     33 F          -0.5819   -0.7786    2.7886 F       1  UNL1       -0.2051
     34 N           0.5316    0.3632   -1.1866 N.2     1  UNL1       -0.2521
     35 C          -0.0604    0.6735   -2.2685 C.2     1  UNL1        0.1485
     36 N           0.6314    0.9780   -3.4398 N.pl3   1  UNL1       -0.3380
     37 S          -1.8444    0.6630   -2.1884 S.3     1  UNL1       -0.0746
     38 H          -5.1036   -0.3686    3.0598 H       1  UNL1        0.0230
     39 H          -6.1485   -1.7813    2.8125 H       1  UNL1        0.0230
     40 H          -4.6961   -1.5670    1.8241 H       1  UNL1        0.0230
     41 H          -6.3346    0.8316    1.6035 H       1  UNL1        0.0281
     42 H          -7.4224   -0.5607    1.4105 H       1  UNL1        0.0281
     43 H          -6.1017   -1.5060   -0.3915 H       1  UNL1        0.0523
     44 H          -7.5820   -0.2483   -1.5649 H       1  UNL1        0.0578
     45 H          -7.6162    1.0207   -0.3333 H       1  UNL1        0.0578
     46 H          -5.8116    2.9831   -0.8609 H       1  UNL1        0.0575
     47 H          -4.7108    2.4850   -2.1622 H       1  UNL1        0.0575
     48 H          -4.7534    1.6891    0.6466 H       1  UNL1        0.0487
     49 H          -3.3533    1.6844   -0.4595 H       1  UNL1        0.0487
     50 H          -1.7815   -2.8805   -1.1782 H       1  UNL1        0.0287
     51 H          -0.5426   -1.8519   -2.0477 H       1  UNL1        0.0287
     52 H          -1.5427   -1.5082    0.8578 H       1  UNL1        0.0346
     53 H          -0.9738    2.0408   -0.1136 H       1  UNL1        0.0256
     54 H          -1.6732    1.0201    1.1632 H       1  UNL1        0.0256
     55 H          -0.0420    1.6939    1.4366 H       1  UNL1        0.0256
     56 H           2.5060   -0.0923   -0.4331 H       1  UNL1        0.0628
     57 H           5.4151   -1.5366    1.2543 H       1  UNL1        0.0653
     58 H           6.5138    1.9790   -1.4146 H       1  UNL1        0.0640
     59 H           8.8664    1.8966   -2.0989 H       1  UNL1        0.0631
     60 H           9.3438   -1.6716    0.1015 H       1  UNL1        0.0843
     61 H           3.8620   -1.4375    3.3501 H       1  UNL1        0.0624
     62 H           1.5191   -1.4387    4.1428 H       1  UNL1        0.0646
     63 H           1.1313    0.2771   -4.0430 H       1  UNL1        0.1442
     64 H           0.6935    1.9727   -3.8005 H       1  UNL1        0.1442
@<TRIPOS>BOND
     1     1     2    1
     2     2     3    1
     3     3     4    1
     4     4     5    1
     5     5     6    1
     6     6     7    1
     7     7     8    1
     8     8     9   am
     9     9    10    2
    10    11     9    1
    11    11    12    1
    12    12    13    1
    13    13    14    1
    14    14    15    1
    15    14    16    1
    16    16    17   ar
    17    17    18   ar
    18    18    19    1
    19    19    20    2
    20    20    21    1
    21    20    22    1
    22    22    23   ar
    23    23    24   ar
    24    24    25   ar
    25    25    26    1
    26    26    27    3
    27    25    28   ar
    28    28    29   ar
    29    18    30   ar
    30    30    31   ar
    31    31    32   ar
    32    32    33    1
    33    14    34    1
    34    34    35    2
    35    35    36    1
    36    35    37    1
    37     8     3    1
    38    13    11    1
    39    32    16   ar
    40    37    11    1
    41    29    22   ar
    42     1    38    1
    43     1    39    1
    44     1    40    1
    45     2    41    1
    46     2    42    1
    47     3    43    1
    48     4    44    1
    49     4    45    1
    50     6    46    1
    51     6    47    1
    52     7    48    1
    53     7    49    1
    54    12    50    1
    55    12    51    1
    56    13    52    1
    57    15    53    1
    58    15    54    1
    59    15    55    1
    60    17    56    1
    61    19    57    1
    62    23    58    1
    63    24    59    1
    64    28    60    1
    65    30    61    1
    66    31    62    1
    67    36    63    1
    68    36    64    1
