
     RDKit          3D

 61 63  0  0  0  0  0  0  0  0999 V2000
   -2.1818   -0.3890    1.3811 C   0  0  2  0  0  0  0  0  0  0  0  0
   -2.9186   -0.5268    2.6739 C   0  0  0  0  0  0  0  0  0  0  0  0
   -4.0103   -1.5594    2.4968 C   0  0  0  0  0  0  0  0  0  0  0  0
   -3.4805   -2.9098    2.1095 C   0  0  0  0  0  0  0  0  0  0  0  0
   -2.5397   -3.5033    3.1058 C   0  0  0  0  0  0  0  0  0  0  0  0
   -1.1090    0.5690    1.4193 N   0  0  0  0  0  0  0  0  0  0  0  0
    0.2111    0.1144    1.1349 C   0  0  0  0  0  0  0  0  0  0  0  0
    0.7381   -0.9958    0.8331 O   0  0  0  0  0  0  0  0  0  0  0  0
    1.4238    0.7908    1.0953 O   0  0  0  0  0  0  0  0  0  0  0  0
    2.5906    0.0346    0.7723 C   0  0  0  0  0  0  0  0  0  0  0  0
    3.7264    1.0482    0.8104 C   0  0  0  0  0  0  0  0  0  0  0  0
    5.0738    0.4961    0.5023 C   0  0  0  0  0  0  0  0  0  0  0  0
    5.1760   -0.1082   -0.8375 C   0  0  0  0  0  0  0  0  0  0  0  0
    5.5394    0.5480   -2.0016 C   0  0  0  0  0  0  0  0  0  0  0  0
    5.6032   -0.1222   -3.2123 C   0  0  0  0  0  0  0  0  0  0  0  0
    5.3013   -1.4850   -3.2937 C   0  0  0  0  0  0  0  0  0  0  0  0
    5.3673   -2.1346   -4.4913 F   0  0  0  0  0  0  0  0  0  0  0  0
    4.9368   -2.1400   -2.1223 C   0  0  0  0  0  0  0  0  0  0  0  0
    4.8753   -1.4628   -0.9150 C   0  0  0  0  0  0  0  0  0  0  0  0
    3.7469    1.8926    2.0655 C   0  0  0  0  0  0  0  0  0  0  0  0
    3.9915    3.0931    1.1421 C   0  0  0  0  0  0  0  0  0  0  0  0
    3.3102    2.2710    0.0443 C   0  0  0  0  0  0  0  0  0  0  0  0
   -3.1374    0.0304    0.3427 C   0  0  0  0  0  0  0  0  0  0  0  0
   -2.1914    0.8905    0.3671 O   0  0  0  0  0  0  0  0  0  0  0  0
   -4.1468    0.3400   -0.6494 C   0  0  0  0  0  0  0  0  0  0  0  0
   -5.1586   -0.3895   -0.8291 O   0  0  0  0  0  0  0  0  0  0  0  0
   -4.1184    1.4539   -1.5013 N   0  0  0  0  0  0  0  0  0  0  0  0
   -5.2958    1.3833   -2.3199 C   0  0  0  0  0  0  0  0  0  0  0  0
   -5.5522    0.7963   -3.5447 C   0  0  0  0  0  0  0  0  0  0  0  0
   -6.8793    1.0669   -3.8254 C   0  0  0  0  0  0  0  0  0  0  0  0
   -7.4212    1.7850   -2.8274 N   0  0  0  0  0  0  0  0  0  0  0  0
   -6.4662    1.9577   -1.9526 N   0  0  0  0  0  0  0  0  0  0  0  0
   -1.7333   -1.3824    1.1632 H   0  0  0  0  0  0  0  0  0  0  0  0
   -2.2070   -0.8450    3.4484 H   0  0  0  0  0  0  0  0  0  0  0  0
   -3.4508    0.4180    2.9677 H   0  0  0  0  0  0  0  0  0  0  0  0
   -4.5957   -1.7084    3.4293 H   0  0  0  0  0  0  0  0  0  0  0  0
   -4.7540   -1.2568    1.7354 H   0  0  0  0  0  0  0  0  0  0  0  0
   -4.3796   -3.5816    2.0780 H   0  0  0  0  0  0  0  0  0  0  0  0
   -3.0915   -2.9147    1.0657 H   0  0  0  0  0  0  0  0  0  0  0  0
   -3.1069   -3.6260    4.0558 H   0  0  0  0  0  0  0  0  0  0  0  0
   -2.3319   -4.5502    2.7637 H   0  0  0  0  0  0  0  0  0  0  0  0
   -1.5850   -2.9854    3.2153 H   0  0  0  0  0  0  0  0  0  0  0  0
   -0.9760    1.5849    1.6114 H   0  0  0  0  0  0  0  0  0  0  0  0
    2.7573   -0.7424    1.5308 H   0  0  0  0  0  0  0  0  0  0  0  0
    2.5174   -0.3882   -0.2493 H   0  0  0  0  0  0  0  0  0  0  0  0
    5.8271    1.2958    0.6107 H   0  0  0  0  0  0  0  0  0  0  0  0
    5.3198   -0.2541    1.2868 H   0  0  0  0  0  0  0  0  0  0  0  0
    5.7671    1.5990   -1.9100 H   0  0  0  0  0  0  0  0  0  0  0  0
    5.8924    0.4168   -4.1169 H   0  0  0  0  0  0  0  0  0  0  0  0
    4.7120   -3.1960   -2.2367 H   0  0  0  0  0  0  0  0  0  0  0  0
    4.5787   -2.0779   -0.0672 H   0  0  0  0  0  0  0  0  0  0  0  0
    4.6253    1.7278    2.7398 H   0  0  0  0  0  0  0  0  0  0  0  0
    2.8014    1.9596    2.6209 H   0  0  0  0  0  0  0  0  0  0  0  0
    5.0807    3.1966    0.9157 H   0  0  0  0  0  0  0  0  0  0  0  0
    3.4668    4.0143    1.4168 H   0  0  0  0  0  0  0  0  0  0  0  0
    3.7045    2.4046   -0.9636 H   0  0  0  0  0  0  0  0  0  0  0  0
    2.2083    2.4471    0.1377 H   0  0  0  0  0  0  0  0  0  0  0  0
   -3.3051    2.1357   -1.4319 H   0  0  0  0  0  0  0  0  0  0  0  0
   -4.7792    0.2584   -4.0777 H   0  0  0  0  0  0  0  0  0  0  0  0
   -7.3384    0.7156   -4.7373 H   0  0  0  0  0  0  0  0  0  0  0  0
   -6.6291    2.4997   -1.0553 H   0  0  0  0  0  0  0  0  0  0  0  0
  1  2  1  0
  2  3  1  0
  3  4  1  0
  4  5  1  0
  1  6  1  0
  6  7  1  0
  7  8  2  0
  7  9  1  0
  9 10  1  0
 10 11  1  0
 11 12  1  0
 12 13  1  0
 13 14  2  0
 14 15  1  0
 15 16  2  0
 16 17  1  0
 16 18  1  0
 18 19  2  0
 11 20  1  0
 20 21  1  0
 21 22  1  0
  1 23  1  0
 23 24  2  0
 23 25  1  0
 25 26  2  0
 25 27  1  0
 27 28  1  0
 28 29  2  0
 29 30  1  0
 30 31  2  0
 31 32  1  0
 22 11  1  0
 32 28  1  0
 19 13  1  0
  1 33  1  6
  2 34  1  0
  2 35  1  0
  3 36  1  0
  3 37  1  0
  4 38  1  0
  4 39  1  0
  5 40  1  0
  5 41  1  0
  5 42  1  0
  6 43  1  0
 10 44  1  0
 10 45  1  0
 12 46  1  0
 12 47  1  0
 14 48  1  0
 15 49  1  0
 18 50  1  0
 19 51  1  0
 20 52  1  0
 20 53  1  0
 21 54  1  0
 21 55  1  0
 22 56  1  0
 22 57  1  0
 27 58  1  0
 29 59  1  0
 30 60  1  0
 32 61  1  0
M  END
$$$$
