@<TRIPOS>MOLECULE
*****
 52 56 0 0 0
SMALL
GASTEIGER

@<TRIPOS>ATOM
      1 C          -3.6581    1.7498    2.5274 C.3     1  UNL1       -0.0373
      2 C          -3.7360    1.7219    1.0431 C.ar    1  UNL1       -0.0202
      3 C          -3.3160    0.6718    0.2900 C.ar    1  UNL1        0.0350
      4 N          -2.8172   -0.5215    0.8515 N.pl3   1  UNL1       -0.3127
      5 C          -2.5207   -1.6773    0.0614 C.ar    1  UNL1        0.0602
      6 C          -3.5830   -2.4819   -0.3032 C.ar    1  UNL1        0.0915
      7 C          -4.9341   -2.0765    0.0917 C.1     1  UNL1        0.1026
      8 N          -5.9727   -1.7470    0.4018 N.1     1  UNL1       -0.1908
      9 C          -3.4669   -3.6302   -1.0269 C.ar    1  UNL1        0.0480
     10 N          -2.1948   -3.9754   -1.3986 N.ar    1  UNL1       -0.2464
     11 C          -1.1555   -3.1978   -1.0478 C.ar    1  UNL1        0.1106
     12 S           0.5952   -3.4030   -1.3841 S.2     1  UNL1       -0.0692
     13 C           1.0920   -1.9054   -0.5213 C.ar    1  UNL1        0.0150
     14 C           2.4990   -1.4790   -0.4246 C.2     1  UNL1       -0.0430
     15 C           3.4693   -2.1440   -0.9637 C.2     1  UNL1        0.0014
     16 C           4.8792   -1.9118   -0.9874 C.2     1  UNL1        0.2395
     17 O           5.5740   -2.8118   -1.6762 O.2     1  UNL1       -0.2706
     18 N           5.6761   -0.9175   -0.4237 N.am    1  UNL1       -0.2980
     19 C           7.1386   -0.8231   -0.6138 C.3     1  UNL1        0.0150
     20 C           7.5766   -0.5238    0.8042 C.3     1  UNL1       -0.0357
     21 C           6.6313    0.6362    1.1080 C.3     1  UNL1       -0.0357
     22 C           5.3324    0.1622    0.4363 C.3     1  UNL1        0.0150
     23 C          -0.0364   -1.4101   -0.0806 C.ar    1  UNL1       -0.0364
     24 C          -1.2155   -2.0372   -0.3246 C.ar    1  UNL1        0.0306
     25 C          -3.4194    0.7093   -1.1143 C.ar    1  UNL1       -0.0383
     26 C          -3.9480    1.8197   -1.7052 C.ar    1  UNL1       -0.0360
     27 C          -4.3712    2.8761   -0.9546 C.ar    1  UNL1        0.0468
     28 N          -4.9288    4.0647   -1.2691 N.ar    1  UNL1       -0.3606
     29 C          -5.1776    4.7616   -0.1521 C.ar    1  UNL1        0.0027
     30 C          -4.7701    4.0054    0.9235 C.ar    1  UNL1       -0.0364
     31 C          -4.2684    2.8330    0.4243 C.ar    1  UNL1        0.0043
     32 H          -3.6314    0.7489    2.9795 H       1  UNL1        0.0278
     33 H          -2.7561    2.3487    2.8348 H       1  UNL1        0.0278
     34 H          -4.5968    2.2394    2.9424 H       1  UNL1        0.0278
     35 H          -2.6609   -0.5414    1.8950 H       1  UNL1        0.1522
     36 H          -4.2838   -4.2542   -1.3076 H       1  UNL1        0.0843
     37 H           2.7064   -0.5910    0.1084 H       1  UNL1        0.0630
     38 H           3.1086   -3.0684   -1.5006 H       1  UNL1        0.0670
     39 H           7.5845   -1.7375   -0.9932 H       1  UNL1        0.0465
     40 H           7.3633    0.0847   -1.2025 H       1  UNL1        0.0465
     41 H           7.3447   -1.3541    1.4757 H       1  UNL1        0.0281
     42 H           8.5955   -0.1426    0.8600 H       1  UNL1        0.0281
     43 H           7.0109    1.5312    0.6059 H       1  UNL1        0.0281
     44 H           6.4195    0.7739    2.1694 H       1  UNL1        0.0281
     45 H           4.6256   -0.1825    1.2155 H       1  UNL1        0.0465
     46 H           4.9441    1.0436   -0.1427 H       1  UNL1        0.0465
     47 H          -0.0242   -0.4466    0.5057 H       1  UNL1        0.0636
     48 H          -3.0738   -0.1343   -1.7012 H       1  UNL1        0.0637
     49 H          -4.0270    1.8637   -2.7972 H       1  UNL1        0.0639
     50 H          -5.1426    4.4039   -2.2355 H       1  UNL1        0.1653
     51 H          -5.6184    5.7466   -0.0360 H       1  UNL1        0.0807
     52 H          -4.8613    4.3306    1.9683 H       1  UNL1        0.0639
@<TRIPOS>BOND
     1     1     2    1
     2     2     3   ar
     3     3     4    1
     4     4     5    1
     5     5     6   ar
     6     6     7    1
     7     7     8    3
     8     6     9   ar
     9     9    10   ar
    10    10    11   ar
    11    11    12   ar
    12    12    13   ar
    13    13    14    1
    14    14    15    2
    15    15    16    1
    16    16    17    2
    17    16    18   am
    18    18    19    1
    19    19    20    1
    20    20    21    1
    21    21    22    1
    22    13    23   ar
    23    23    24   ar
    24     3    25   ar
    25    25    26   ar
    26    26    27   ar
    27    27    28   ar
    28    28    29   ar
    29    29    30   ar
    30    30    31   ar
    31    31     2   ar
    32    24     5   ar
    33    31    27   ar
    34    24    11   ar
    35    22    18    1
    36     1    32    1
    37     1    33    1
    38     1    34    1
    39     4    35    1
    40     9    36    1
    41    14    37    1
    42    15    38    1
    43    19    39    1
    44    19    40    1
    45    20    41    1
    46    20    42    1
    47    21    43    1
    48    21    44    1
    49    22    45    1
    50    22    46    1
    51    23    47    1
    52    25    48    1
    53    26    49    1
    54    28    50    1
    55    29    51    1
    56    30    52    1
