@<TRIPOS>MOLECULE
*****
 53 52 0 0 0
SMALL
GASTEIGER

@<TRIPOS>ATOM
      1 C          -1.4635   -1.3951    0.3599 C.3     1  UNL1       -0.0439
      2 C          -1.7191   -2.1753   -0.8824 C.3     1  UNL1       -0.0624
      3 C          -1.5159    0.0678    0.0745 C.3     1  UNL1       -0.0505
      4 C          -2.8120    0.5921   -0.4565 C.3     1  UNL1       -0.0526
      5 C          -3.9369    0.3770    0.4863 C.3     1  UNL1       -0.0507
      6 C          -5.2342    0.9679   -0.1158 C.3     1  UNL1       -0.0467
      7 C          -6.3176    0.7076    0.8991 C.3     1  UNL1       -0.0627
      8 C          -4.9969    2.4457   -0.3459 C.3     1  UNL1       -0.0627
      9 C          -0.3754   -1.7859    1.2469 C.3     1  UNL1       -0.0505
     10 C           1.0263   -1.8743    0.8569 C.3     1  UNL1       -0.0526
     11 C           1.7502   -0.6752    0.3559 C.3     1  UNL1       -0.0504
     12 C           3.1997   -1.1565    0.1047 C.3     1  UNL1       -0.0410
     13 C           3.1407   -2.2874   -0.9290 C.3     1  UNL1       -0.0623
     14 C           4.0546   -0.0571   -0.4489 C.3     1  UNL1       -0.0129
     15 C           4.1457    1.1247    0.4827 C.3     1  UNL1        0.1557
     16 O           4.7016    0.6652    1.6919 O.3     1  UNL1       -0.3796
     17 P           5.2255    2.4158   -0.2089 P.3     1  UNL1        0.3558
     18 O           6.8205    1.9044   -0.1221 O.3     1  UNL1       -0.3223
     19 O           5.0447    3.8483    0.6453 O.3     1  UNL1       -0.3223
     20 O           4.8481    2.6733   -1.6489 O.2     1  UNL1       -0.2561
     21 H          -2.4282   -1.6041    0.9911 H       1  UNL1        0.0298
     22 H          -1.1323   -1.7215   -1.7351 H       1  UNL1        0.0232
     23 H          -2.7721   -2.0104   -1.1994 H       1  UNL1        0.0232
     24 H          -1.5701   -3.2478   -0.8015 H       1  UNL1        0.0232
     25 H          -1.2437    0.6187    1.0061 H       1  UNL1        0.0268
     26 H          -0.7039    0.3239   -0.6757 H       1  UNL1        0.0268
     27 H          -2.9874    0.1243   -1.4453 H       1  UNL1        0.0265
     28 H          -2.6700    1.6830   -0.6093 H       1  UNL1        0.0265
     29 H          -4.1245   -0.7217    0.6664 H       1  UNL1        0.0268
     30 H          -3.8173    0.8927    1.4578 H       1  UNL1        0.0268
     31 H          -5.4053    0.4233   -1.0694 H       1  UNL1        0.0295
     32 H          -7.2381    0.4477    0.3494 H       1  UNL1        0.0232
     33 H          -6.4627    1.6212    1.4925 H       1  UNL1        0.0232
     34 H          -6.0623   -0.0998    1.6166 H       1  UNL1        0.0232
     35 H          -4.6837    2.6449   -1.3922 H       1  UNL1        0.0232
     36 H          -4.2223    2.8432    0.3508 H       1  UNL1        0.0232
     37 H          -5.9568    2.9796   -0.1182 H       1  UNL1        0.0232
     38 H          -0.6242   -2.8004    1.7268 H       1  UNL1        0.0268
     39 H          -0.3942   -1.1341    2.1917 H       1  UNL1        0.0268
     40 H           1.2755   -2.7581    0.2062 H       1  UNL1        0.0265
     41 H           1.5961   -2.1526    1.8096 H       1  UNL1        0.0265
     42 H           1.4456   -0.2979   -0.6384 H       1  UNL1        0.0268
     43 H           1.7799    0.1275    1.0820 H       1  UNL1        0.0268
     44 H           3.6428   -1.5956    1.0168 H       1  UNL1        0.0299
     45 H           3.9860   -2.1939   -1.6507 H       1  UNL1        0.0232
     46 H           2.2121   -2.2176   -1.5329 H       1  UNL1        0.0232
     47 H           3.1508   -3.2590   -0.4198 H       1  UNL1        0.0232
     48 H           3.5883    0.2974   -1.4177 H       1  UNL1        0.0299
     49 H           5.0742   -0.4274   -0.7097 H       1  UNL1        0.0299
     50 H           3.1485    1.5181    0.7108 H       1  UNL1        0.0720
     51 H           5.3112   -0.0767    1.4667 H       1  UNL1        0.2106
     52 H           6.8942    0.9352    0.0726 H       1  UNL1        0.2198
     53 H           5.8079    4.4551    0.4807 H       1  UNL1        0.2198
@<TRIPOS>BOND
     1     1     2    1
     2     1     3    1
     3     3     4    1
     4     4     5    1
     5     5     6    1
     6     6     7    1
     7     6     8    1
     8     1     9    1
     9     9    10    1
    10    10    11    1
    11    11    12    1
    12    12    13    1
    13    12    14    1
    14    14    15    1
    15    15    16    1
    16    15    17    1
    17    17    18    1
    18    17    19    1
    19    17    20    2
    20     1    21    1
    21     2    22    1
    22     2    23    1
    23     2    24    1
    24     3    25    1
    25     3    26    1
    26     4    27    1
    27     4    28    1
    28     5    29    1
    29     5    30    1
    30     6    31    1
    31     7    32    1
    32     7    33    1
    33     7    34    1
    34     8    35    1
    35     8    36    1
    36     8    37    1
    37     9    38    1
    38     9    39    1
    39    10    40    1
    40    10    41    1
    41    11    42    1
    42    11    43    1
    43    12    44    1
    44    13    45    1
    45    13    46    1
    46    13    47    1
    47    14    48    1
    48    14    49    1
    49    15    50    1
    50    16    51    1
    51    18    52    1
    52    19    53    1
