@<TRIPOS>MOLECULE
*****
 26 26 0 0 0
SMALL
GASTEIGER

@<TRIPOS>ATOM
      1 C          -3.2856    1.2729    1.1881 C.3     1  UNL1       -0.0397
      2 C          -2.3518    0.3976    0.4298 C.ar    1  UNL1       -0.0502
      3 C          -2.8511   -0.7819   -0.0394 C.ar    1  UNL1       -0.0588
      4 C          -2.0809   -1.6792   -0.7579 C.ar    1  UNL1       -0.0613
      5 C          -0.7584   -1.3680   -1.0085 C.ar    1  UNL1       -0.0585
      6 C          -0.2294   -0.1628   -0.5351 C.ar    1  UNL1       -0.0451
      7 C           1.1759    0.1492   -0.8113 C.3     1  UNL1       -0.0020
      8 CA          2.1559   -0.3220    0.2141 C.3     1  UNL1        0.1072
      9 N           1.9738    0.1935    1.5133 N.3     1  UNL1       -0.3181
     10 C           3.5126    0.0507   -0.2724 C.2     1  UNL1        0.3220
     11 O           4.0424   -0.2861   -1.5153 O.3     1  UNL1       -0.4795
     12 OXT         4.3887    0.7200    0.3494 O.2     1  UNL1       -0.2492
     13 C          -1.0419    0.7134    0.1855 C.ar    1  UNL1       -0.0556
     14 H          -3.8917    1.8341    0.4481 H       1  UNL1        0.0278
     15 H          -3.8956    0.6927    1.9111 H       1  UNL1        0.0278
     16 H          -2.6418    2.0480    1.6883 H       1  UNL1        0.0278
     17 H          -3.8810   -1.0692    0.1319 H       1  UNL1        0.0620
     18 H          -2.4836   -2.6133   -1.1272 H       1  UNL1        0.0618
     19 H          -0.1580   -2.0676   -1.5688 H       1  UNL1        0.0620
     20 H           1.4513   -0.2359   -1.8091 H       1  UNL1        0.0334
     21 H           1.2508    1.2568   -0.8942 H       1  UNL1        0.0334
     22 HA          2.1256   -1.4390    0.2780 H       1  UNL1        0.0577
     23 H1          1.5062    1.0897    1.6350 H       1  UNL1        0.1190
     24 H2          2.0558   -0.4373    2.3121 H       1  UNL1        0.1190
     25 H           4.5606    0.3753   -2.1075 H       1  UNL1        0.2951
     26 H          -0.6483    1.6683    0.5687 H       1  UNL1        0.0623
@<TRIPOS>BOND
     1     1     2    1
     2     2     3   ar
     3     3     4   ar
     4     4     5   ar
     5     5     6   ar
     6     6     7    1
     7     7     8    1
     8     8     9    1
     9     8    10    1
    10    10    11    1
    11    10    12    2
    12     6    13   ar
    13    13     2   ar
    14     1    14    1
    15     1    15    1
    16     1    16    1
    17     3    17    1
    18     4    18    1
    19     5    19    1
    20     7    20    1
    21     7    21    1
    22     8    22    1
    23     9    23    1
    24     9    24    1
    25    11    25    1
    26    13    26    1
