@<TRIPOS>MOLECULE
*****
 55 58 0 0 0
SMALL
GASTEIGER

@<TRIPOS>ATOM
      1 C          -6.2561    3.1413    0.8407 C.3     1  UNL1        0.0790
      2 O          -5.8197    2.2867   -0.1993 O.3     1  UNL1       -0.4914
      3 C          -4.6871    1.5179    0.0329 C.ar    1  UNL1        0.1635
      4 C          -3.9793    1.5452    1.2071 C.ar    1  UNL1        0.0098
      5 C          -2.8525    0.7878    1.4522 C.ar    1  UNL1        0.0797
      6 N          -2.1863    0.8349    2.6173 N.ar    1  UNL1       -0.2352
      7 C          -1.0912    0.0897    2.8534 C.ar    1  UNL1        0.1187
      8 N          -0.6599   -0.7231    1.8844 N.ar    1  UNL1       -0.2201
      9 C          -1.2752   -0.8346    0.6682 C.ar    1  UNL1        0.1324
     10 N          -0.7217   -1.7097   -0.2964 N.pl3   1  UNL1       -0.3116
     11 C          -0.1135   -1.1962   -1.5016 C.3     1  UNL1        0.0293
     12 C           1.2658   -1.8745   -1.6462 C.3     1  UNL1        0.0296
     13 N           1.5623   -2.4614   -0.3765 N.am    1  UNL1       -0.3097
     14 C           2.4722   -2.0772    0.6070 C.2     1  UNL1        0.1332
     15 S           2.5403   -3.0438    1.9949 S.2     1  UNL1       -0.0187
     16 N           3.3386   -1.0084    0.6137 N.am    1  UNL1       -0.3223
     17 C           3.5379   -0.0236   -0.3734 C.3     1  UNL1        0.0359
     18 C           4.5223    1.0261    0.1528 C.ar    1  UNL1       -0.0304
     19 C           5.8711    0.8810   -0.0500 C.ar    1  UNL1       -0.0571
     20 C           6.7445    1.8470    0.4378 C.ar    1  UNL1       -0.0615
     21 C           6.2603    2.9416    1.1194 C.ar    1  UNL1       -0.0617
     22 C           4.9075    3.0994    1.3298 C.ar    1  UNL1       -0.0615
     23 C           4.0664    2.1229    0.8332 C.ar    1  UNL1       -0.0571
     24 C           0.7082   -3.6790   -0.1058 C.3     1  UNL1        0.0296
     25 C          -0.7260   -3.1352   -0.1057 C.3     1  UNL1        0.0293
     26 C          -2.3956   -0.0647    0.4448 C.ar    1  UNL1        0.0440
     27 C          -3.0796   -0.1203   -0.7474 C.ar    1  UNL1       -0.0038
     28 C          -4.2003    0.6524   -0.9520 C.ar    1  UNL1        0.1623
     29 O          -4.8935    0.5972   -2.1589 O.3     1  UNL1       -0.4914
     30 C          -4.4306   -0.2653   -3.1782 C.3     1  UNL1        0.0790
     31 H          -7.1254    3.7499    0.5494 H       1  UNL1        0.0660
     32 H          -6.4533    2.5253    1.7507 H       1  UNL1        0.0660
     33 H          -5.3844    3.7916    1.1134 H       1  UNL1        0.0660
     34 H          -4.3429    2.2136    1.9873 H       1  UNL1        0.0677
     35 H          -0.5649    0.1495    3.8217 H       1  UNL1        0.1048
     36 H          -0.6871   -1.4184   -2.4042 H       1  UNL1        0.0480
     37 H           0.0579   -0.1070   -1.4404 H       1  UNL1        0.0480
     38 H           1.9785   -1.1375   -1.9761 H       1  UNL1        0.0480
     39 H           1.1346   -2.6839   -2.4355 H       1  UNL1        0.0480
     40 H           3.9593   -0.8978    1.4928 H       1  UNL1        0.1481
     41 H           2.6549    0.5816   -0.6404 H       1  UNL1        0.0511
     42 H           3.9824   -0.4062   -1.3392 H       1  UNL1        0.0511
     43 H           6.2324    0.0112   -0.5896 H       1  UNL1        0.0621
     44 H           7.8055    1.7431    0.2842 H       1  UNL1        0.0618
     45 H           6.9521    3.6970    1.5002 H       1  UNL1        0.0618
     46 H           4.5725    3.9714    1.8686 H       1  UNL1        0.0618
     47 H           3.0047    2.2270    0.9870 H       1  UNL1        0.0621
     48 H           0.8456   -4.3206   -0.9935 H       1  UNL1        0.0480
     49 H           0.9962   -4.1353    0.8424 H       1  UNL1        0.0480
     50 H          -1.1464   -3.4226    0.8987 H       1  UNL1        0.0480
     51 H          -1.3091   -3.6636   -0.8939 H       1  UNL1        0.0480
     52 H          -2.7260   -0.7838   -1.5116 H       1  UNL1        0.0663
     53 H          -3.3432   -0.0201   -3.3160 H       1  UNL1        0.0660
     54 H          -5.0173   -0.0468   -4.0941 H       1  UNL1        0.0660
     55 H          -4.5059   -1.3284   -2.8601 H       1  UNL1        0.0660
@<TRIPOS>BOND
     1     1     2    1
     2     2     3    1
     3     3     4   ar
     4     4     5   ar
     5     5     6   ar
     6     6     7   ar
     7     7     8   ar
     8     8     9   ar
     9     9    10    1
    10    10    11    1
    11    11    12    1
    12    12    13    1
    13    13    14    1
    14    14    15    2
    15    14    16    1
    16    16    17    1
    17    17    18    1
    18    18    19   ar
    19    19    20   ar
    20    20    21   ar
    21    21    22   ar
    22    22    23   ar
    23    13    24    1
    24    24    25    1
    25     9    26   ar
    26    26    27   ar
    27    27    28   ar
    28    28    29    1
    29    29    30    1
    30    28     3   ar
    31    26     5   ar
    32    25    10    1
    33    23    18   ar
    34     1    31    1
    35     1    32    1
    36     1    33    1
    37     4    34    1
    38     7    35    1
    39    11    36    1
    40    11    37    1
    41    12    38    1
    42    12    39    1
    43    16    40    1
    44    17    41    1
    45    17    42    1
    46    19    43    1
    47    20    44    1
    48    21    45    1
    49    22    46    1
    50    23    47    1
    51    24    48    1
    52    24    49    1
    53    25    50    1
    54    25    51    1
    55    27    52    1
    56    30    53    1
    57    30    54    1
    58    30    55    1
