@<TRIPOS>MOLECULE
*****
 63 65 0 0 0
SMALL
GASTEIGER

@<TRIPOS>ATOM
      1 C          -3.6567   -0.6643    0.5531 C.3     1  UNL1        0.0042
      2 C          -4.0015   -2.0734    0.1202 C.3     1  UNL1        0.0132
      3 C          -5.4217   -2.0419   -0.3308 C.2     1  UNL1        0.1340
      4 O          -5.8983   -2.6398   -1.2862 O.2     1  UNL1       -0.2974
      5 C          -6.2358   -1.1630    0.5483 C.3     1  UNL1        0.0062
      6 C          -5.8496    0.3084    0.3506 C.3     1  UNL1       -0.0394
      7 C          -4.4759    0.2748   -0.2995 C.3     1  UNL1        0.0062
      8 C          -3.8949    1.6197   -0.5099 C.3     1  UNL1        0.1085
      9 C          -3.5231    1.7504   -1.9945 C.3     1  UNL1       -0.0249
     10 C          -4.8629    2.7468   -0.2155 C.3     1  UNL1       -0.0249
     11 O          -2.7006    1.8859    0.1959 O.3     1  UNL1       -0.4855
     12 C          -1.7638    0.8865    0.3726 C.ar    1  UNL1        0.1285
     13 C          -0.4414    1.2616    0.3561 C.ar    1  UNL1       -0.0157
     14 C           0.5450    0.3269    0.5251 C.ar    1  UNL1       -0.0348
     15 C           0.1163   -0.9946    0.7089 C.ar    1  UNL1       -0.0160
     16 C          -1.2388   -1.3491    0.7211 C.ar    1  UNL1        0.1241
     17 O          -1.6722   -2.6627    0.9037 O.3     1  UNL1       -0.5064
     18 C          -2.2185   -0.3999    0.5507 C.ar    1  UNL1        0.0395
     19 C           2.0523    0.3565    0.5877 C.3     1  UNL1       -0.0096
     20 C           2.4848    1.7754    0.6835 C.3     1  UNL1       -0.0558
     21 C           2.4207   -0.3229    1.9065 C.3     1  UNL1       -0.0558
     22 C           2.5775   -0.3983   -0.5783 C.3     1  UNL1       -0.0439
     23 C           4.0486   -0.5598   -0.7665 C.3     1  UNL1       -0.0523
     24 C           4.8616    0.6447   -0.9540 C.3     1  UNL1       -0.0530
     25 C           6.2963    0.4226   -1.2651 C.3     1  UNL1       -0.0533
     26 C           7.1191   -0.3043   -0.2796 C.3     1  UNL1       -0.0559
     27 C           6.8353   -1.7324    0.0064 C.3     1  UNL1       -0.0653
     28 H          -4.0186   -0.6035    1.6237 H       1  UNL1        0.0359
     29 H          -3.3338   -2.3818   -0.7044 H       1  UNL1        0.0348
     30 H          -3.9928   -2.7813    0.9904 H       1  UNL1        0.0348
     31 H          -6.1205   -1.4569    1.6148 H       1  UNL1        0.0342
     32 H          -7.2960   -1.3484    0.2922 H       1  UNL1        0.0342
     33 H          -6.6259    0.7268   -0.2920 H       1  UNL1        0.0273
     34 H          -5.8116    0.7649    1.3627 H       1  UNL1        0.0273
     35 H          -4.6707   -0.2244   -1.2965 H       1  UNL1        0.0345
     36 H          -3.8125    2.7142   -2.4232 H       1  UNL1        0.0268
     37 H          -4.0112    0.9486   -2.5948 H       1  UNL1        0.0268
     38 H          -2.4333    1.5915   -2.1449 H       1  UNL1        0.0268
     39 H          -4.8181    3.0160    0.8578 H       1  UNL1        0.0268
     40 H          -5.8571    2.5884   -0.6278 H       1  UNL1        0.0268
     41 H          -4.4510    3.6400   -0.7700 H       1  UNL1        0.0268
     42 H          -0.0636    2.2557    0.2078 H       1  UNL1        0.0657
     43 H           0.7397   -1.8887    0.8632 H       1  UNL1        0.0657
     44 H          -1.1333   -3.4629    0.6639 H       1  UNL1        0.2921
     45 H           2.7305    2.2446   -0.2801 H       1  UNL1        0.0238
     46 H           1.6135    2.3791    1.1042 H       1  UNL1        0.0238
     47 H           3.2665    1.9314    1.4728 H       1  UNL1        0.0238
     48 H           3.3538    0.1248    2.3099 H       1  UNL1        0.0238
     49 H           1.5765   -0.1972    2.6126 H       1  UNL1        0.0238
     50 H           2.5240   -1.4049    1.7093 H       1  UNL1        0.0238
     51 H           2.1816    0.0563   -1.5438 H       1  UNL1        0.0274
     52 H           2.1307   -1.4413   -0.5264 H       1  UNL1        0.0274
     53 H           4.1890   -1.2590   -1.6241 H       1  UNL1        0.0266
     54 H           4.4711   -1.1065    0.1338 H       1  UNL1        0.0266
     55 H           4.8344    1.2320    0.0316 H       1  UNL1        0.0265
     56 H           4.3913    1.3336   -1.7348 H       1  UNL1        0.0265
     57 H           6.7397    1.4697   -1.4281 H       1  UNL1        0.0265
     58 H           6.4247   -0.0393   -2.2961 H       1  UNL1        0.0265
     59 H           8.2254   -0.1899   -0.5454 H       1  UNL1        0.0263
     60 H           7.0983    0.2225    0.7419 H       1  UNL1        0.0263
     61 H           6.2334   -2.1769   -0.8055 H       1  UNL1        0.0230
     62 H           7.8492   -2.2915    0.0082 H       1  UNL1        0.0230
     63 H           6.3745   -1.9398    0.9824 H       1  UNL1        0.0230
@<TRIPOS>BOND
     1     1     2    1
     2     2     3    1
     3     3     4    2
     4     3     5    1
     5     5     6    1
     6     6     7    1
     7     7     8    1
     8     8     9    1
     9     8    10    1
    10     8    11    1
    11    11    12    1
    12    12    13   ar
    13    13    14   ar
    14    14    15   ar
    15    15    16   ar
    16    16    17    1
    17    16    18   ar
    18    14    19    1
    19    19    20    1
    20    19    21    1
    21    19    22    1
    22    22    23    1
    23    23    24    1
    24    24    25    1
    25    25    26    1
    26    26    27    1
    27     7     1    1
    28    18    12   ar
    29    18     1    1
    30     1    28    1
    31     2    29    1
    32     2    30    1
    33     5    31    1
    34     5    32    1
    35     6    33    1
    36     6    34    1
    37     7    35    1
    38     9    36    1
    39     9    37    1
    40     9    38    1
    41    10    39    1
    42    10    40    1
    43    10    41    1
    44    13    42    1
    45    15    43    1
    46    17    44    1
    47    20    45    1
    48    20    46    1
    49    20    47    1
    50    21    48    1
    51    21    49    1
    52    21    50    1
    53    22    51    1
    54    22    52    1
    55    23    53    1
    56    23    54    1
    57    24    55    1
    58    24    56    1
    59    25    57    1
    60    25    58    1
    61    26    59    1
    62    26    60    1
    63    27    61    1
    64    27    62    1
    65    27    63    1
