@<TRIPOS>MOLECULE
*****
 38 41 0 0 0
SMALL
GASTEIGER

@<TRIPOS>ATOM
      1 C          -6.0460   -0.3720   -0.2831 C.3     1  UNL1        0.0119
      2 N          -4.8404   -0.8897    0.3544 N.ar    1  UNL1       -0.3497
      3 C          -4.7859   -1.8849    1.2560 C.ar    1  UNL1        0.0054
      4 C          -3.4814   -2.1043    1.6398 C.ar    1  UNL1       -0.0364
      5 C          -2.7103   -1.2024    0.9401 C.ar    1  UNL1        0.0016
      6 C          -1.3648   -0.9102    0.8702 C.ar    1  UNL1       -0.0308
      7 C          -0.8611    0.0827    0.0506 C.ar    1  UNL1        0.0416
      8 C          -1.7827    0.7908   -0.7173 C.ar    1  UNL1       -0.0224
      9 C          -3.1361    0.5367   -0.6828 C.ar    1  UNL1       -0.0326
     10 C          -3.5772   -0.4699    0.1582 C.ar    1  UNL1        0.0492
     11 C          -1.0241    1.7925   -1.5096 C.3     1  UNL1       -0.0096
     12 C           0.2959    1.8808   -0.8189 C.3     1  UNL1        0.0253
     13 N           0.4423    0.5786   -0.2072 N.am    1  UNL1       -0.2547
     14 C           1.6579   -0.1403    0.1097 C.2     1  UNL1        0.3108
     15 O           1.6113   -1.2678    0.6424 O.2     1  UNL1       -0.2519
     16 N           2.9243    0.4246   -0.1799 N.am    1  UNL1       -0.2677
     17 C           4.1891   -0.1560    0.0708 C.ar    1  UNL1        0.0529
     18 C           5.2933    0.6229   -0.3166 C.ar    1  UNL1       -0.0375
     19 C           6.5916    0.2075   -0.1444 C.ar    1  UNL1       -0.0418
     20 C           6.7809   -1.0255    0.4336 C.ar    1  UNL1        0.0277
     21 N           5.7327   -1.7710    0.8043 N.ar    1  UNL1       -0.2614
     22 C           4.4415   -1.3635    0.6357 C.ar    1  UNL1        0.0488
     23 H          -5.9549    0.6952   -0.5529 H       1  UNL1        0.0456
     24 H          -6.2468   -0.9160   -1.2433 H       1  UNL1        0.0456
     25 H          -6.8972   -0.4845    0.3942 H       1  UNL1        0.0456
     26 H          -5.6507   -2.4433    1.6338 H       1  UNL1        0.0809
     27 H          -3.0892   -2.8266    2.3446 H       1  UNL1        0.0639
     28 H          -0.6645   -1.4709    1.4741 H       1  UNL1        0.0643
     29 H          -3.8451    1.1096   -1.2988 H       1  UNL1        0.0642
     30 H          -1.5186    2.7843   -1.4640 H       1  UNL1        0.0329
     31 H          -0.8448    1.4654   -2.5529 H       1  UNL1        0.0329
     32 H           1.1480    1.9958   -1.5346 H       1  UNL1        0.0472
     33 H           0.3303    2.6427   -0.0163 H       1  UNL1        0.0472
     34 H           2.8762    1.3897   -0.6343 H       1  UNL1        0.1564
     35 H           5.1533    1.5967   -0.7733 H       1  UNL1        0.0637
     36 H           7.4494    0.7922   -0.4357 H       1  UNL1        0.0633
     37 H           7.7733   -1.4377    0.6099 H       1  UNL1        0.0829
     38 H           3.6304   -1.9844    0.9433 H       1  UNL1        0.0848
@<TRIPOS>BOND
     1     1     2    1
     2     2     3   ar
     3     3     4   ar
     4     4     5   ar
     5     5     6   ar
     6     6     7   ar
     7     7     8   ar
     8     8     9   ar
     9     9    10   ar
    10     8    11    1
    11    11    12    1
    12    12    13    1
    13    13    14   am
    14    14    15    2
    15    14    16   am
    16    16    17    1
    17    17    18   ar
    18    18    19   ar
    19    19    20   ar
    20    20    21   ar
    21    21    22   ar
    22    10     2   ar
    23    22    17   ar
    24    10     5   ar
    25    13     7    1
    26     1    23    1
    27     1    24    1
    28     1    25    1
    29     3    26    1
    30     4    27    1
    31     6    28    1
    32     9    29    1
    33    11    30    1
    34    11    31    1
    35    12    32    1
    36    12    33    1
    37    16    34    1
    38    18    35    1
    39    19    36    1
    40    20    37    1
    41    22    38    1
