
     RDKit          3D

 61 68  0  0  0  0  0  0  0  0999 V2000
   -4.6688    1.7433   -1.5625 C   0  0  0  0  0  0  0  0  0  0  0  0
   -4.1305    0.4133   -1.2755 N   0  0  0  0  0  0  0  0  0  0  0  0
   -3.1657    0.5888   -0.2123 C   0  0  2  0  0  0  0  0  0  0  0  0
   -2.0628    1.5272   -0.6550 C   0  0  0  0  0  0  0  0  0  0  0  0
   -1.1908    1.7628    0.5602 C   0  0  1  0  0  0  0  0  0  0  0  0
   -1.3424    0.8768    1.5601 O   0  0  0  0  0  0  0  0  0  0  0  0
   -1.4891   -0.4705    1.2267 C   0  0  1  0  0  0  0  0  0  0  0  0
   -1.9999   -1.0904    2.5452 C   0  0  0  0  0  0  0  0  0  0  0  0
   -2.4826   -0.7230    0.1503 C   0  0  2  0  0  0  0  0  0  0  0  0
   -1.9629   -1.2255   -1.0222 O   0  0  0  0  0  0  0  0  0  0  0  0
   -2.6679   -2.3785   -1.3592 C   0  0  0  0  0  0  0  0  0  0  0  0
   -0.2153   -1.0882    0.9365 N   0  0  0  0  0  0  0  0  0  0  0  0
    0.1171   -2.3864    1.0892 C   0  0  0  0  0  0  0  0  0  0  0  0
   -0.6072   -3.4851    1.4714 C   0  0  0  0  0  0  0  0  0  0  0  0
    0.0126   -4.7249    1.5263 C   0  0  0  0  0  0  0  0  0  0  0  0
    1.3410   -4.8844    1.2052 C   0  0  0  0  0  0  0  0  0  0  0  0
    2.0951   -3.7892    0.8143 C   0  0  0  0  0  0  0  0  0  0  0  0
    1.4562   -2.5829    0.7706 C   0  0  0  0  0  0  0  0  0  0  0  0
    1.9342   -1.3549    0.4104 C   0  0  0  0  0  0  0  0  0  0  0  0
    3.1659   -0.8608   -0.0160 C   0  0  0  0  0  0  0  0  0  0  0  0
    3.3867    0.4649   -0.3341 C   0  0  0  0  0  0  0  0  0  0  0  0
    2.3304    1.3500   -0.2257 C   0  0  0  0  0  0  0  0  0  0  0  0
    2.1792    2.6776   -0.4710 C   0  0  0  0  0  0  0  0  0  0  0  0
    3.0295    3.6647   -0.9021 C   0  0  0  0  0  0  0  0  0  0  0  0
    2.4915    4.9527   -1.0396 C   0  0  0  0  0  0  0  0  0  0  0  0
    1.1765    5.2317   -0.7603 C   0  0  0  0  0  0  0  0  0  0  0  0
    0.3477    4.2207   -0.3296 C   0  0  0  0  0  0  0  0  0  0  0  0
    0.8566    2.9578   -0.1899 C   0  0  0  0  0  0  0  0  0  0  0  0
    0.2054    1.8524    0.2158 N   0  0  0  0  0  0  0  0  0  0  0  0
    1.1099    0.8627    0.1974 C   0  0  0  0  0  0  0  0  0  0  0  0
    0.9083   -0.4799    0.5176 C   0  0  0  0  0  0  0  0  0  0  0  0
    4.7757    0.6077   -0.7339 C   0  0  0  0  0  0  0  0  0  0  0  0
    5.4035    1.6308   -1.1015 O   0  0  0  0  0  0  0  0  0  0  0  0
    5.3617   -0.7098   -0.6338 N   0  0  0  0  0  0  0  0  0  0  0  0
    4.4004   -1.6748   -0.1847 C   0  0  0  0  0  0  0  0  0  0  0  0
   -4.6003    2.3757   -0.6365 H   0  0  0  0  0  0  0  0  0  0  0  0
   -5.7232    1.6739   -1.9000 H   0  0  0  0  0  0  0  0  0  0  0  0
   -4.0717    2.2713   -2.3257 H   0  0  0  0  0  0  0  0  0  0  0  0
   -3.5579    0.1707   -2.1396 H   0  0  0  0  0  0  0  0  0  0  0  0
   -3.6604    1.0243    0.6645 H   0  0  0  0  0  0  0  0  0  0  0  0
   -2.4946    2.4627   -1.0416 H   0  0  0  0  0  0  0  0  0  0  0  0
   -1.4293    1.0117   -1.4206 H   0  0  0  0  0  0  0  0  0  0  0  0
   -1.4986    2.7771    0.9506 H   0  0  0  0  0  0  0  0  0  0  0  0
   -2.3051   -0.2601    3.2727 H   0  0  0  0  0  0  0  0  0  0  0  0
   -2.9538   -1.6284    2.3952 H   0  0  0  0  0  0  0  0  0  0  0  0
   -1.2192   -1.6157    3.0996 H   0  0  0  0  0  0  0  0  0  0  0  0
   -3.3280   -1.3710    0.5285 H   0  0  0  0  0  0  0  0  0  0  0  0
   -2.6085   -3.1689   -0.5946 H   0  0  0  0  0  0  0  0  0  0  0  0
   -2.2601   -2.8219   -2.3124 H   0  0  0  0  0  0  0  0  0  0  0  0
   -3.7424   -2.1599   -1.6024 H   0  0  0  0  0  0  0  0  0  0  0  0
   -1.6649   -3.3853    1.7082 H   0  0  0  0  0  0  0  0  0  0  0  0
   -0.6083   -5.5753    1.8388 H   0  0  0  0  0  0  0  0  0  0  0  0
    1.8237   -5.8568    1.2494 H   0  0  0  0  0  0  0  0  0  0  0  0
    3.1314   -3.8901    0.5589 H   0  0  0  0  0  0  0  0  0  0  0  0
    4.0584    3.4996   -1.1313 H   0  0  0  0  0  0  0  0  0  0  0  0
    3.1761    5.7155   -1.3799 H   0  0  0  0  0  0  0  0  0  0  0  0
    0.7747    6.2460   -0.8743 H   0  0  0  0  0  0  0  0  0  0  0  0
   -0.7064    4.4223   -0.1009 H   0  0  0  0  0  0  0  0  0  0  0  0
    6.3886   -0.8679   -0.8803 H   0  0  0  0  0  0  0  0  0  0  0  0
    4.3146   -2.4505   -0.9476 H   0  0  0  0  0  0  0  0  0  0  0  0
    4.6657   -2.0756    0.8327 H   0  0  0  0  0  0  0  0  0  0  0  0
  1  2  1  0
  2  3  1  0
  3  4  1  0
  4  5  1  0
  5  6  1  0
  6  7  1  0
  7  8  1  1
  7  9  1  0
  9 10  1  0
 10 11  1  0
  7 12  1  0
 12 13  1  0
 13 14  2  0
 14 15  1  0
 15 16  2  0
 16 17  1  0
 17 18  2  0
 18 19  1  0
 19 20  2  0
 20 21  1  0
 21 22  2  0
 22 23  1  0
 23 24  2  0
 24 25  1  0
 25 26  2  0
 26 27  1  0
 27 28  2  0
 28 29  1  0
 29 30  1  0
 30 31  2  0
 21 32  1  0
 32 33  2  0
 32 34  1  0
 34 35  1  0
  9  3  1  0
 31 12  1  0
 29  5  1  0
 18 13  1  0
 31 19  1  0
 35 20  1  0
 30 22  1  0
 28 23  1  0
  1 36  1  0
  1 37  1  0
  1 38  1  0
  2 39  1  0
  3 40  1  1
  4 41  1  0
  4 42  1  0
  5 43  1  1
  8 44  1  0
  8 45  1  0
  8 46  1  0
  9 47  1  1
 11 48  1  0
 11 49  1  0
 11 50  1  0
 14 51  1  0
 15 52  1  0
 16 53  1  0
 17 54  1  0
 24 55  1  0
 25 56  1  0
 26 57  1  0
 27 58  1  0
 34 59  1  0
 35 60  1  0
 35 61  1  0
M  END
$$$$
