@<TRIPOS>MOLECULE
*****
 61 68 0 0 0
SMALL
GASTEIGER

@<TRIPOS>ATOM
      1 C          -4.6688    1.7433   -1.5625 C.3     1  UNL1       -0.0155
      2 N          -4.1305    0.4133   -1.2755 N.3     1  UNL1       -0.3136
      3 C          -3.1657    0.5888   -0.2123 C.3     1  UNL1        0.0423
      4 C          -2.0628    1.5272   -0.6550 C.3     1  UNL1        0.0107
      5 C          -1.1908    1.7628    0.5602 C.3     1  UNL1        0.1402
      6 O          -1.3424    0.8768    1.5601 O.3     1  UNL1       -0.3282
      7 C          -1.4891   -0.4705    1.2267 C.3     1  UNL1        0.1741
      8 C          -1.9999   -1.0904    2.5452 C.3     1  UNL1       -0.0136
      9 C          -2.4826   -0.7230    0.1503 C.3     1  UNL1        0.1214
     10 O          -1.9629   -1.2255   -1.0222 O.3     1  UNL1       -0.3735
     11 C          -2.6679   -2.3785   -1.3592 C.3     1  UNL1        0.0371
     12 N          -0.2153   -1.0882    0.9365 N.ar    1  UNL1       -0.3070
     13 C           0.1171   -2.3864    1.0892 C.ar    1  UNL1        0.0527
     14 C          -0.6072   -3.4851    1.4714 C.ar    1  UNL1       -0.0375
     15 C           0.0126   -4.7249    1.5263 C.ar    1  UNL1       -0.0598
     16 C           1.3410   -4.8844    1.2052 C.ar    1  UNL1       -0.0611
     17 C           2.0951   -3.7892    0.8143 C.ar    1  UNL1       -0.0520
     18 C           1.4562   -2.5829    0.7706 C.ar    1  UNL1        0.0081
     19 C           1.9342   -1.3549    0.4104 C.ar    1  UNL1        0.0151
     20 C           3.1659   -0.8608   -0.0160 C.ar    1  UNL1       -0.0078
     21 C           3.3867    0.4649   -0.3341 C.ar    1  UNL1        0.0518
     22 C           2.3304    1.3500   -0.2257 C.ar    1  UNL1        0.0221
     23 C           2.1792    2.6776   -0.4710 C.ar    1  UNL1        0.0085
     24 C           3.0295    3.6647   -0.9021 C.ar    1  UNL1       -0.0520
     25 C           2.4915    4.9527   -1.0396 C.ar    1  UNL1       -0.0611
     26 C           1.1765    5.2317   -0.7603 C.ar    1  UNL1       -0.0598
     27 C           0.3477    4.2207   -0.3296 C.ar    1  UNL1       -0.0375
     28 C           0.8566    2.9578   -0.1899 C.ar    1  UNL1        0.0524
     29 N           0.2054    1.8524    0.2158 N.ar    1  UNL1       -0.3115
     30 C           1.1099    0.8627    0.1974 C.ar    1  UNL1        0.0774
     31 C           0.9083   -0.4799    0.5176 C.ar    1  UNL1        0.0772
     32 C           4.7757    0.6077   -0.7339 C.2     1  UNL1        0.2453
     33 O           5.4035    1.6308   -1.1015 O.2     1  UNL1       -0.2702
     34 N           5.3617   -0.7098   -0.6338 N.am    1  UNL1       -0.3072
     35 C           4.4004   -1.6748   -0.1847 C.3     1  UNL1        0.0385
     36 H          -4.6003    2.3757   -0.6365 H       1  UNL1        0.0388
     37 H          -5.7232    1.6739   -1.9000 H       1  UNL1        0.0388
     38 H          -4.0717    2.2713   -2.3257 H       1  UNL1        0.0388
     39 H          -3.5579    0.1707   -2.1396 H       1  UNL1        0.1220
     40 H          -3.6604    1.0243    0.6645 H       1  UNL1        0.0489
     41 H          -2.4946    2.4627   -1.0416 H       1  UNL1        0.0325
     42 H          -1.4293    1.0117   -1.4206 H       1  UNL1        0.0325
     43 H          -1.4986    2.7771    0.9506 H       1  UNL1        0.0839
     44 H          -2.3051   -0.2601    3.2727 H       1  UNL1        0.0277
     45 H          -2.9538   -1.6284    2.3952 H       1  UNL1        0.0277
     46 H          -1.2192   -1.6157    3.0996 H       1  UNL1        0.0277
     47 H          -3.3280   -1.3710    0.5285 H       1  UNL1        0.0660
     48 H          -2.6085   -3.1689   -0.5946 H       1  UNL1        0.0524
     49 H          -2.2601   -2.8219   -2.3124 H       1  UNL1        0.0524
     50 H          -3.7424   -2.1599   -1.6024 H       1  UNL1        0.0524
     51 H          -1.6649   -3.3853    1.7082 H       1  UNL1        0.0638
     52 H          -0.6083   -5.5753    1.8388 H       1  UNL1        0.0618
     53 H           1.8237   -5.8568    1.2494 H       1  UNL1        0.0618
     54 H           3.1314   -3.8901    0.5589 H       1  UNL1        0.0624
     55 H           4.0584    3.4996   -1.1313 H       1  UNL1        0.0624
     56 H           3.1761    5.7155   -1.3799 H       1  UNL1        0.0618
     57 H           0.7747    6.2460   -0.8743 H       1  UNL1        0.0618
     58 H          -0.7064    4.4223   -0.1009 H       1  UNL1        0.0638
     59 H           6.3886   -0.8679   -0.8803 H       1  UNL1        0.1493
     60 H           4.3146   -2.4505   -0.9476 H       1  UNL1        0.0512
     61 H           4.6657   -2.0756    0.8327 H       1  UNL1        0.0512
@<TRIPOS>BOND
     1     1     2    1
     2     2     3    1
     3     3     4    1
     4     4     5    1
     5     5     6    1
     6     6     7    1
     7     7     8    1
     8     7     9    1
     9     9    10    1
    10    10    11    1
    11     7    12    1
    12    12    13   ar
    13    13    14   ar
    14    14    15   ar
    15    15    16   ar
    16    16    17   ar
    17    17    18   ar
    18    18    19   ar
    19    19    20   ar
    20    20    21   ar
    21    21    22   ar
    22    22    23   ar
    23    23    24   ar
    24    24    25   ar
    25    25    26   ar
    26    26    27   ar
    27    27    28   ar
    28    28    29   ar
    29    29    30   ar
    30    30    31   ar
    31    21    32    1
    32    32    33    2
    33    32    34   am
    34    34    35    1
    35     9     3    1
    36    31    12   ar
    37    29     5    1
    38    18    13   ar
    39    31    19   ar
    40    35    20    1
    41    30    22   ar
    42    28    23   ar
    43     1    36    1
    44     1    37    1
    45     1    38    1
    46     2    39    1
    47     3    40    1
    48     4    41    1
    49     4    42    1
    50     5    43    1
    51     8    44    1
    52     8    45    1
    53     8    46    1
    54     9    47    1
    55    11    48    1
    56    11    49    1
    57    11    50    1
    58    14    51    1
    59    15    52    1
    60    16    53    1
    61    17    54    1
    62    24    55    1
    63    25    56    1
    64    26    57    1
    65    27    58    1
    66    34    59    1
    67    35    60    1
    68    35    61    1
