
     RDKit          3D

 56 60  0  0  0  0  0  0  0  0999 V2000
    7.4845    1.9522    0.7131 C   0  0  0  0  0  0  0  0  0  0  0  0
    6.1460    1.3128    0.8085 C   0  0  0  0  0  0  0  0  0  0  0  0
    5.7569    0.5130    1.8549 C   0  0  0  0  0  0  0  0  0  0  0  0
    4.5057   -0.0604    1.9038 C   0  0  0  0  0  0  0  0  0  0  0  0
    3.6114    0.1677    0.8803 C   0  0  0  0  0  0  0  0  0  0  0  0
    2.2818   -0.4422    0.9341 C   0  0  0  0  0  0  0  0  0  0  0  0
    1.3300   -0.2690   -0.0399 C   0  0  0  0  0  0  0  0  0  0  0  0
    0.2085   -1.0007    0.3662 C   0  0  0  0  0  0  0  0  0  0  0  0
   -1.0756   -1.1091   -0.3796 C   0  0  0  0  0  0  0  0  0  0  0  0
   -2.2333   -0.5567    0.3998 C   0  0  0  0  0  0  0  0  0  0  0  0
   -2.2573    0.9267    0.3021 C   0  0  0  0  0  0  0  0  0  0  0  0
   -2.4592    1.5545   -0.9320 C   0  0  0  0  0  0  0  0  0  0  0  0
   -2.4888    2.9237   -1.0690 C   0  0  0  0  0  0  0  0  0  0  0  0
   -2.3151    3.7258    0.0394 C   0  0  0  0  0  0  0  0  0  0  0  0
   -2.3395    5.2142   -0.0618 C   0  0  0  0  0  0  0  0  0  0  0  0
   -2.1157    3.0887    1.2575 C   0  0  0  0  0  0  0  0  0  0  0  0
   -2.0846    1.7298    1.4042 C   0  0  0  0  0  0  0  0  0  0  0  0
   -3.5628   -1.1088    0.0052 C   0  0  0  0  0  0  0  0  0  0  0  0
   -3.5106   -2.4851   -0.5889 C   0  0  0  0  0  0  0  0  0  0  0  0
   -3.0982   -3.4591    0.4658 C   0  0  0  0  0  0  0  0  0  0  0  0
   -1.5863   -3.4683    0.3274 C   0  0  0  0  0  0  0  0  0  0  0  0
   -1.2892   -2.5416   -0.8082 C   0  0  0  0  0  0  0  0  0  0  0  0
   -2.5095   -2.5330   -1.6323 N   0  0  0  0  0  0  0  0  0  0  0  0
   -2.5998   -3.7196   -2.4381 C   0  0  0  0  0  0  0  0  0  0  0  0
    0.5190   -1.5614    1.5208 O   0  0  0  0  0  0  0  0  0  0  0  0
    1.7285   -1.2389    1.8576 N   0  0  0  0  0  0  0  0  0  0  0  0
    4.0054    0.9683   -0.1638 C   0  0  0  0  0  0  0  0  0  0  0  0
    5.2461    1.5385   -0.2151 C   0  0  0  0  0  0  0  0  0  0  0  0
    8.1731    1.2886    0.1530 H   0  0  0  0  0  0  0  0  0  0  0  0
    7.3411    2.9333    0.2308 H   0  0  0  0  0  0  0  0  0  0  0  0
    7.8275    2.1468    1.7428 H   0  0  0  0  0  0  0  0  0  0  0  0
    6.4697    0.3398    2.6563 H   0  0  0  0  0  0  0  0  0  0  0  0
    4.2187   -0.6992    2.7567 H   0  0  0  0  0  0  0  0  0  0  0  0
    1.3774    0.3076   -0.9629 H   0  0  0  0  0  0  0  0  0  0  0  0
   -0.9852   -0.5096   -1.3072 H   0  0  0  0  0  0  0  0  0  0  0  0
   -2.0598   -0.8055    1.4665 H   0  0  0  0  0  0  0  0  0  0  0  0
   -2.5979    0.9431   -1.8159 H   0  0  0  0  0  0  0  0  0  0  0  0
   -2.6490    3.3780   -2.0504 H   0  0  0  0  0  0  0  0  0  0  0  0
   -2.9734    5.5552   -0.8969 H   0  0  0  0  0  0  0  0  0  0  0  0
   -2.7446    5.6227    0.9032 H   0  0  0  0  0  0  0  0  0  0  0  0
   -1.3117    5.5894   -0.1450 H   0  0  0  0  0  0  0  0  0  0  0  0
   -1.9761    3.7129    2.1475 H   0  0  0  0  0  0  0  0  0  0  0  0
   -1.9227    1.2936    2.3960 H   0  0  0  0  0  0  0  0  0  0  0  0
   -4.0332   -0.4405   -0.7524 H   0  0  0  0  0  0  0  0  0  0  0  0
   -4.2609   -1.1451    0.8703 H   0  0  0  0  0  0  0  0  0  0  0  0
   -4.5187   -2.7469   -0.9449 H   0  0  0  0  0  0  0  0  0  0  0  0
   -3.5467   -4.4558    0.2987 H   0  0  0  0  0  0  0  0  0  0  0  0
   -3.3773   -3.1189    1.4888 H   0  0  0  0  0  0  0  0  0  0  0  0
   -1.2967   -4.5109    0.0749 H   0  0  0  0  0  0  0  0  0  0  0  0
   -1.1302   -3.1978    1.2832 H   0  0  0  0  0  0  0  0  0  0  0  0
   -0.4746   -2.8539   -1.4593 H   0  0  0  0  0  0  0  0  0  0  0  0
   -3.3441   -3.5605   -3.2332 H   0  0  0  0  0  0  0  0  0  0  0  0
   -2.7470   -4.6361   -1.8491 H   0  0  0  0  0  0  0  0  0  0  0  0
   -1.6094   -3.8348   -2.9661 H   0  0  0  0  0  0  0  0  0  0  0  0
    3.3091    1.1666   -0.9951 H   0  0  0  0  0  0  0  0  0  0  0  0
    5.5443    2.1759   -1.0573 H   0  0  0  0  0  0  0  0  0  0  0  0
  1  2  1  0
  2  3  2  0
  3  4  1  0
  4  5  2  0
  5  6  1  0
  6  7  1  0
  7  8  2  0
  8  9  1  0
  9 10  1  0
 10 11  1  0
 11 12  2  0
 12 13  1  0
 13 14  2  0
 14 15  1  0
 14 16  1  0
 16 17  2  0
 10 18  1  0
 18 19  1  0
 19 20  1  0
 20 21  1  0
 21 22  1  0
 22 23  1  0
 23 24  1  0
  8 25  1  0
 25 26  1  0
  5 27  1  0
 27 28  2  0
 28  2  1  0
 26  6  2  0
 22  9  1  0
 17 11  1  0
 23 19  1  0
  1 29  1  0
  1 30  1  0
  1 31  1  0
  3 32  1  0
  4 33  1  0
  7 34  1  0
  9 35  1  0
 10 36  1  0
 12 37  1  0
 13 38  1  0
 15 39  1  0
 15 40  1  0
 15 41  1  0
 16 42  1  0
 17 43  1  0
 18 44  1  0
 18 45  1  0
 19 46  1  0
 20 47  1  0
 20 48  1  0
 21 49  1  0
 21 50  1  0
 22 51  1  0
 24 52  1  0
 24 53  1  0
 24 54  1  0
 27 55  1  0
 28 56  1  0
M  END
$$$$
