@<TRIPOS>MOLECULE
*****
 56 60 0 0 0
SMALL
GASTEIGER

@<TRIPOS>ATOM
      1 C           7.4845    1.9522    0.7131 C.3     1  UNL1       -0.0397
      2 C           6.1460    1.3128    0.8085 C.ar    1  UNL1       -0.0504
      3 C           5.7569    0.5130    1.8549 C.ar    1  UNL1       -0.0582
      4 C           4.5057   -0.0604    1.9038 C.ar    1  UNL1       -0.0522
      5 C           3.6114    0.1677    0.8803 C.ar    1  UNL1        0.0037
      6 C           2.2818   -0.4422    0.9341 C.ar    1  UNL1        0.1136
      7 C           1.3300   -0.2690   -0.0399 C.ar    1  UNL1        0.0085
      8 C           0.2085   -1.0007    0.3662 C.ar    1  UNL1        0.1430
      9 C          -1.0756   -1.1091   -0.3796 C.3     1  UNL1        0.0422
     10 C          -2.2333   -0.5567    0.3998 C.3     1  UNL1       -0.0032
     11 C          -2.2573    0.9267    0.3021 C.ar    1  UNL1       -0.0435
     12 C          -2.4592    1.5545   -0.9320 C.ar    1  UNL1       -0.0580
     13 C          -2.4888    2.9237   -1.0690 C.ar    1  UNL1       -0.0586
     14 C          -2.3151    3.7258    0.0394 C.ar    1  UNL1       -0.0504
     15 C          -2.3395    5.2142   -0.0618 C.3     1  UNL1       -0.0397
     16 C          -2.1157    3.0887    1.2575 C.ar    1  UNL1       -0.0586
     17 C          -2.0846    1.7298    1.4042 C.ar    1  UNL1       -0.0580
     18 C          -3.5628   -1.1088    0.0052 C.3     1  UNL1       -0.0298
     19 C          -3.5106   -2.4851   -0.5889 C.3     1  UNL1        0.0110
     20 C          -3.0982   -3.4591    0.4658 C.3     1  UNL1       -0.0359
     21 C          -1.5863   -3.4683    0.3274 C.3     1  UNL1       -0.0352
     22 C          -1.2892   -2.5416   -0.8082 C.3     1  UNL1        0.0208
     23 N          -2.5095   -2.5330   -1.6323 N.3     1  UNL1       -0.2988
     24 C          -2.5998   -3.7196   -2.4381 C.3     1  UNL1       -0.0122
     25 O           0.5190   -1.5614    1.5208 O.2     1  UNL1       -0.3587
     26 N           1.7285   -1.2389    1.8576 N.ar    1  UNL1       -0.0781
     27 C           4.0054    0.9683   -0.1638 C.ar    1  UNL1       -0.0522
     28 C           5.2461    1.5385   -0.2151 C.ar    1  UNL1       -0.0582
     29 H           8.1731    1.2886    0.1530 H       1  UNL1        0.0278
     30 H           7.3411    2.9333    0.2308 H       1  UNL1        0.0278
     31 H           7.8275    2.1468    1.7428 H       1  UNL1        0.0278
     32 H           6.4697    0.3398    2.6563 H       1  UNL1        0.0620
     33 H           4.2187   -0.6992    2.7567 H       1  UNL1        0.0624
     34 H           1.3774    0.3076   -0.9629 H       1  UNL1        0.0674
     35 H          -0.9852   -0.5096   -1.3072 H       1  UNL1        0.0401
     36 H          -2.0598   -0.8055    1.4665 H       1  UNL1        0.0357
     37 H          -2.5979    0.9431   -1.8159 H       1  UNL1        0.0620
     38 H          -2.6490    3.3780   -2.0504 H       1  UNL1        0.0620
     39 H          -2.9734    5.5552   -0.8969 H       1  UNL1        0.0278
     40 H          -2.7446    5.6227    0.9032 H       1  UNL1        0.0278
     41 H          -1.3117    5.5894   -0.1450 H       1  UNL1        0.0278
     42 H          -1.9761    3.7129    2.1475 H       1  UNL1        0.0620
     43 H          -1.9227    1.2936    2.3960 H       1  UNL1        0.0620
     44 H          -4.0332   -0.4405   -0.7524 H       1  UNL1        0.0286
     45 H          -4.2609   -1.1451    0.8703 H       1  UNL1        0.0286
     46 H          -4.5187   -2.7469   -0.9449 H       1  UNL1        0.0463
     47 H          -3.5467   -4.4558    0.2987 H       1  UNL1        0.0281
     48 H          -3.3773   -3.1189    1.4888 H       1  UNL1        0.0281
     49 H          -1.2967   -4.5109    0.0749 H       1  UNL1        0.0281
     50 H          -1.1302   -3.1978    1.2832 H       1  UNL1        0.0281
     51 H          -0.4746   -2.8539   -1.4593 H       1  UNL1        0.0470
     52 H          -3.3441   -3.5605   -3.2332 H       1  UNL1        0.0391
     53 H          -2.7470   -4.6361   -1.8491 H       1  UNL1        0.0391
     54 H          -1.6094   -3.8348   -2.9661 H       1  UNL1        0.0391
     55 H           3.3091    1.1666   -0.9951 H       1  UNL1        0.0624
     56 H           5.5443    2.1759   -1.0573 H       1  UNL1        0.0620
@<TRIPOS>BOND
     1     1     2    1
     2     2     3   ar
     3     3     4   ar
     4     4     5   ar
     5     5     6    1
     6     6     7   ar
     7     7     8   ar
     8     8     9    1
     9     9    10    1
    10    10    11    1
    11    11    12   ar
    12    12    13   ar
    13    13    14   ar
    14    14    15    1
    15    14    16   ar
    16    16    17   ar
    17    10    18    1
    18    18    19    1
    19    19    20    1
    20    20    21    1
    21    21    22    1
    22    22    23    1
    23    23    24    1
    24     8    25   ar
    25    25    26   ar
    26     5    27   ar
    27    27    28   ar
    28    28     2   ar
    29    26     6   ar
    30    22     9    1
    31    17    11   ar
    32    23    19    1
    33     1    29    1
    34     1    30    1
    35     1    31    1
    36     3    32    1
    37     4    33    1
    38     7    34    1
    39     9    35    1
    40    10    36    1
    41    12    37    1
    42    13    38    1
    43    15    39    1
    44    15    40    1
    45    15    41    1
    46    16    42    1
    47    17    43    1
    48    18    44    1
    49    18    45    1
    50    19    46    1
    51    20    47    1
    52    20    48    1
    53    21    49    1
    54    21    50    1
    55    22    51    1
    56    24    52    1
    57    24    53    1
    58    24    54    1
    59    27    55    1
    60    28    56    1
