@<TRIPOS>MOLECULE
*****
 28 29 0 0 0
SMALL
GASTEIGER

@<TRIPOS>ATOM
      1 N           4.3539    1.0443   -1.0957 N.pl3   1  UNL1       -0.3580
      2 C           3.2919    0.3737   -0.4362 C.ar    1  UNL1        0.0247
      3 C           3.0515    0.4031    0.9201 C.ar    1  UNL1       -0.0392
      4 C           1.9762   -0.3013    1.4167 C.ar    1  UNL1       -0.0333
      5 C           1.0940   -1.0544    0.6583 C.ar    1  UNL1        0.1087
      6 C           1.3684   -1.0558   -0.6729 C.ar    1  UNL1       -0.0333
      7 C           2.4311   -0.3664   -1.2108 C.ar    1  UNL1       -0.0392
      8 S          -0.1661   -1.8523    1.5521 S.O2    1  UNL1        0.0735
      9 O           0.4054   -2.3177    2.8474 O.2     1  UNL1       -0.1499
     10 O          -0.7306   -3.0098    0.7534 O.2     1  UNL1       -0.1499
     11 N          -1.4223   -0.7113    1.8474 N.pl3   1  UNL1       -0.1995
     12 C          -2.2561    0.0125    0.9607 C.ar    1  UNL1        0.1377
     13 C          -2.1946   -0.1134   -0.4089 C.ar    1  UNL1       -0.0204
     14 C          -2.9776    0.5508   -1.3258 C.ar    1  UNL1       -0.0570
     15 C          -3.9163    1.4282   -0.8298 C.ar    1  UNL1       -0.0435
     16 C          -3.9762    1.5522    0.5406 C.ar    1  UNL1        0.0297
     17 N          -3.1999    0.8919    1.4096 N.ar    1  UNL1       -0.2390
     18 H           4.2363    2.0678   -0.9694 H       1  UNL1        0.1423
     19 H           5.0547    0.4333   -1.5819 H       1  UNL1        0.1423
     20 H           3.7202    0.9801    1.5362 H       1  UNL1        0.0636
     21 H           1.8779   -0.2088    2.5074 H       1  UNL1        0.0638
     22 H           0.6668   -1.6617   -1.2665 H       1  UNL1        0.0638
     23 H           2.5718   -0.4270   -2.2933 H       1  UNL1        0.0636
     24 H          -1.6252   -0.4968    2.8734 H       1  UNL1        0.1752
     25 H          -1.4892   -0.7852   -0.8629 H       1  UNL1        0.0652
     26 H          -2.8883    0.4153   -2.3947 H       1  UNL1        0.0619
     27 H          -4.5604    1.9787   -1.5008 H       1  UNL1        0.0633
     28 H          -4.6972    2.2302    1.0039 H       1  UNL1        0.0830
@<TRIPOS>BOND
     1     1     2    1
     2     2     3   ar
     3     3     4   ar
     4     4     5   ar
     5     5     6   ar
     6     6     7   ar
     7     5     8    1
     8     8     9    2
     9     8    10    2
    10     8    11    1
    11    11    12    1
    12    12    13   ar
    13    13    14   ar
    14    14    15   ar
    15    15    16   ar
    16    16    17   ar
    17     7     2   ar
    18    17    12   ar
    19     1    18    1
    20     1    19    1
    21     3    20    1
    22     4    21    1
    23     6    22    1
    24     7    23    1
    25    11    24    1
    26    13    25    1
    27    14    26    1
    28    15    27    1
    29    16    28    1
