
     RDKit          3D

 28 29  0  0  0  0  0  0  0  0999 V2000
    4.3539    1.0443   -1.0957 N   0  0  0  0  0  0  0  0  0  0  0  0
    3.2919    0.3737   -0.4362 C   0  0  0  0  0  0  0  0  0  0  0  0
    3.0515    0.4031    0.9201 C   0  0  0  0  0  0  0  0  0  0  0  0
    1.9762   -0.3013    1.4167 C   0  0  0  0  0  0  0  0  0  0  0  0
    1.0940   -1.0544    0.6583 C   0  0  0  0  0  0  0  0  0  0  0  0
    1.3684   -1.0558   -0.6729 C   0  0  0  0  0  0  0  0  0  0  0  0
    2.4311   -0.3664   -1.2108 C   0  0  0  0  0  0  0  0  0  0  0  0
   -0.1661   -1.8523    1.5521 S   0  0  0  0  0  0  0  0  0  0  0  0
    0.4054   -2.3177    2.8474 O   0  0  0  0  0  0  0  0  0  0  0  0
   -0.7306   -3.0098    0.7534 O   0  0  0  0  0  0  0  0  0  0  0  0
   -1.4223   -0.7113    1.8474 N   0  0  0  0  0  0  0  0  0  0  0  0
   -2.2561    0.0125    0.9607 C   0  0  0  0  0  0  0  0  0  0  0  0
   -2.1946   -0.1134   -0.4089 C   0  0  0  0  0  0  0  0  0  0  0  0
   -2.9776    0.5508   -1.3258 C   0  0  0  0  0  0  0  0  0  0  0  0
   -3.9163    1.4282   -0.8298 C   0  0  0  0  0  0  0  0  0  0  0  0
   -3.9762    1.5522    0.5406 C   0  0  0  0  0  0  0  0  0  0  0  0
   -3.1999    0.8919    1.4096 N   0  0  0  0  0  0  0  0  0  0  0  0
    4.2363    2.0678   -0.9694 H   0  0  0  0  0  0  0  0  0  0  0  0
    5.0547    0.4333   -1.5819 H   0  0  0  0  0  0  0  0  0  0  0  0
    3.7202    0.9801    1.5362 H   0  0  0  0  0  0  0  0  0  0  0  0
    1.8779   -0.2088    2.5074 H   0  0  0  0  0  0  0  0  0  0  0  0
    0.6668   -1.6617   -1.2665 H   0  0  0  0  0  0  0  0  0  0  0  0
    2.5718   -0.4270   -2.2933 H   0  0  0  0  0  0  0  0  0  0  0  0
   -1.6252   -0.4968    2.8734 H   0  0  0  0  0  0  0  0  0  0  0  0
   -1.4892   -0.7852   -0.8629 H   0  0  0  0  0  0  0  0  0  0  0  0
   -2.8883    0.4153   -2.3947 H   0  0  0  0  0  0  0  0  0  0  0  0
   -4.5604    1.9787   -1.5008 H   0  0  0  0  0  0  0  0  0  0  0  0
   -4.6972    2.2302    1.0039 H   0  0  0  0  0  0  0  0  0  0  0  0
  1  2  1  0
  2  3  2  0
  3  4  1  0
  4  5  2  0
  5  6  1  0
  6  7  2  0
  5  8  1  0
  8  9  2  0
  8 10  2  0
  8 11  1  0
 11 12  1  0
 12 13  2  0
 13 14  1  0
 14 15  2  0
 15 16  1  0
 16 17  2  0
  7  2  1  0
 17 12  1  0
  1 18  1  0
  1 19  1  0
  3 20  1  0
  4 21  1  0
  6 22  1  0
  7 23  1  0
 11 24  1  0
 13 25  1  0
 14 26  1  0
 15 27  1  0
 16 28  1  0
M  END
$$$$
