
     RDKit          3D

 44 48  0  0  0  0  0  0  0  0999 V2000
    5.3962    1.3402   -3.8523 O   0  0  0  0  0  0  0  0  0  0  0  0
    5.2976    1.1064   -2.6293 C   0  0  0  0  0  0  0  0  0  0  0  0
    6.3025    1.1275   -1.6298 N   0  0  0  0  0  0  0  0  0  0  0  0
    5.7070    0.7935   -0.3778 C   0  0  0  0  0  0  0  0  0  0  0  0
    6.3015    0.7089    0.8685 C   0  0  0  0  0  0  0  0  0  0  0  0
    5.5006    0.3872    1.9446 C   0  0  0  0  0  0  0  0  0  0  0  0
    4.1555    0.1595    1.7824 C   0  0  0  0  0  0  0  0  0  0  0  0
    3.5500    0.2438    0.5181 C   0  0  0  0  0  0  0  0  0  0  0  0
    4.3399    0.5577   -0.5442 C   0  0  0  0  0  0  0  0  0  0  0  0
    4.0202    0.7393   -1.9564 C   0  0  0  0  0  0  0  0  0  0  0  0
    2.8540    0.6500   -2.5456 C   0  0  0  0  0  0  0  0  0  0  0  0
    1.6338    0.2785   -1.8704 C   0  0  0  0  0  0  0  0  0  0  0  0
    0.6033    1.2163   -1.7245 C   0  0  0  0  0  0  0  0  0  0  0  0
   -0.6181    0.8762   -1.1740 C   0  0  0  0  0  0  0  0  0  0  0  0
   -0.8863   -0.3938   -0.7418 C   0  0  0  0  0  0  0  0  0  0  0  0
   -1.9921   -0.9834   -0.1639 C   0  0  0  0  0  0  0  0  0  0  0  0
   -3.2898   -0.3399    0.1478 C   0  0  0  0  0  0  0  0  0  0  0  0
   -4.1874   -1.0890    0.7291 C   0  0  0  0  0  0  0  0  0  0  0  0
   -5.4973   -0.5677    1.0816 C   0  0  0  0  0  0  0  0  0  0  0  0
   -6.4237   -1.3867    1.7420 C   0  0  0  0  0  0  0  0  0  0  0  0
   -7.6653   -0.9110    2.0706 C   0  0  0  0  0  0  0  0  0  0  0  0
   -8.0540    0.3530    1.7781 N   0  0  0  0  0  0  0  0  0  0  0  0
   -7.1908    1.1629    1.1460 C   0  0  0  0  0  0  0  0  0  0  0  0
   -5.9191    0.7178    0.7953 C   0  0  0  0  0  0  0  0  0  0  0  0
   -1.6388   -2.2639    0.0400 N   0  0  0  0  0  0  0  0  0  0  0  0
   -0.4021   -2.4720   -0.3769 N   0  0  0  0  0  0  0  0  0  0  0  0
    0.1192   -1.3345   -0.8767 C   0  0  0  0  0  0  0  0  0  0  0  0
    1.3487   -1.0020   -1.4290 C   0  0  0  0  0  0  0  0  0  0  0  0
    7.3046    1.3583   -1.8385 H   0  0  0  0  0  0  0  0  0  0  0  0
    7.3660    0.8980    0.9513 H   0  0  0  0  0  0  0  0  0  0  0  0
    5.9942    0.3279    2.9022 H   0  0  0  0  0  0  0  0  0  0  0  0
    3.5859   -0.0888    2.6761 H   0  0  0  0  0  0  0  0  0  0  0  0
    2.5078    0.0806    0.5210 H   0  0  0  0  0  0  0  0  0  0  0  0
    2.8517    0.8833   -3.6259 H   0  0  0  0  0  0  0  0  0  0  0  0
    0.7948    2.2086   -2.0548 H   0  0  0  0  0  0  0  0  0  0  0  0
   -1.4279    1.6087   -1.0578 H   0  0  0  0  0  0  0  0  0  0  0  0
   -3.4394    0.6731   -0.1026 H   0  0  0  0  0  0  0  0  0  0  0  0
   -3.9726   -2.1232    0.9621 H   0  0  0  0  0  0  0  0  0  0  0  0
   -6.1224   -2.3758    1.9738 H   0  0  0  0  0  0  0  0  0  0  0  0
   -8.3569   -1.5687    2.5809 H   0  0  0  0  0  0  0  0  0  0  0  0
   -7.4462    2.1761    0.8879 H   0  0  0  0  0  0  0  0  0  0  0  0
   -5.2599    1.3898    0.2909 H   0  0  0  0  0  0  0  0  0  0  0  0
    0.1299   -3.3789   -0.3393 H   0  0  0  0  0  0  0  0  0  0  0  0
    2.1251   -1.7438   -1.5290 H   0  0  0  0  0  0  0  0  0  0  0  0
  1  2  2  0
  2  3  1  0
  3  4  1  0
  4  5  2  0
  5  6  1  0
  6  7  2  0
  7  8  1  0
  8  9  2  0
  9 10  1  0
 10 11  2  0
 11 12  1  0
 12 13  2  0
 13 14  1  0
 14 15  2  0
 15 16  1  0
 16 17  1  0
 17 18  2  0
 18 19  1  0
 19 20  2  0
 20 21  1  0
 21 22  2  0
 22 23  1  0
 23 24  2  0
 16 25  2  0
 25 26  1  0
 26 27  1  0
 27 28  2  0
 10  2  1  0
 28 12  1  0
  9  4  1  0
 27 15  1  0
 24 19  1  0
  3 29  1  0
  5 30  1  0
  6 31  1  0
  7 32  1  0
  8 33  1  0
 11 34  1  0
 13 35  1  0
 14 36  1  0
 17 37  1  0
 18 38  1  0
 20 39  1  0
 21 40  1  0
 23 41  1  0
 24 42  1  0
 26 43  1  0
 28 44  1  0
M  END
$$$$
