@<TRIPOS>MOLECULE
*****
 44 48 0 0 0
SMALL
GASTEIGER

@<TRIPOS>ATOM
      1 O           5.3962    1.3402   -3.8523 O.2     1  UNL1       -0.2698
      2 C           5.2976    1.1064   -2.6293 C.2     1  UNL1        0.2489
      3 N           6.3025    1.1275   -1.6298 N.am    1  UNL1       -0.2809
      4 C           5.7070    0.7935   -0.3778 C.ar    1  UNL1        0.0416
      5 C           6.3015    0.7089    0.8685 C.ar    1  UNL1       -0.0399
      6 C           5.5006    0.3872    1.9446 C.ar    1  UNL1       -0.0600
      7 C           4.1555    0.1595    1.7824 C.ar    1  UNL1       -0.0611
      8 C           3.5500    0.2438    0.5181 C.ar    1  UNL1       -0.0521
      9 C           4.3399    0.5577   -0.5442 C.ar    1  UNL1        0.0083
     10 C           4.0202    0.7393   -1.9564 C.2     1  UNL1        0.0465
     11 C           2.8540    0.6500   -2.5456 C.2     1  UNL1       -0.0418
     12 C           1.6338    0.2785   -1.8704 C.ar    1  UNL1       -0.0223
     13 C           0.6033    1.2163   -1.7245 C.ar    1  UNL1       -0.0538
     14 C          -0.6181    0.8762   -1.1740 C.ar    1  UNL1       -0.0499
     15 C          -0.8863   -0.3938   -0.7418 C.ar    1  UNL1        0.0268
     16 C          -1.9921   -0.9834   -0.1639 C.ar    1  UNL1        0.0931
     17 C          -3.2898   -0.3399    0.1478 C.2     1  UNL1       -0.0334
     18 C          -4.1874   -1.0890    0.7291 C.2     1  UNL1       -0.0524
     19 C          -5.4973   -0.5677    1.0816 C.ar    1  UNL1       -0.0221
     20 C          -6.4237   -1.3867    1.7420 C.ar    1  UNL1       -0.0364
     21 C          -7.6653   -0.9110    2.0706 C.ar    1  UNL1        0.0281
     22 N          -8.0540    0.3530    1.7781 N.ar    1  UNL1       -0.2632
     23 C          -7.1908    1.1629    1.1460 C.ar    1  UNL1        0.0281
     24 C          -5.9191    0.7178    0.7953 C.ar    1  UNL1       -0.0364
     25 N          -1.6388   -2.2639    0.0400 N.ar    1  UNL1       -0.1733
     26 N          -0.4021   -2.4720   -0.3769 N.ar    1  UNL1       -0.2764
     27 C           0.1192   -1.3345   -0.8767 C.ar    1  UNL1        0.0669
     28 C           1.3487   -1.0020   -1.4290 C.ar    1  UNL1       -0.0291
     29 H           7.3046    1.3583   -1.8385 H       1  UNL1        0.1552
     30 H           7.3660    0.8980    0.9513 H       1  UNL1        0.0636
     31 H           5.9942    0.3279    2.9022 H       1  UNL1        0.0618
     32 H           3.5859   -0.0888    2.6761 H       1  UNL1        0.0618
     33 H           2.5078    0.0806    0.5210 H       1  UNL1        0.0624
     34 H           2.8517    0.8833   -3.6259 H       1  UNL1        0.0631
     35 H           0.7948    2.2086   -2.0548 H       1  UNL1        0.0624
     36 H          -1.4279    1.6087   -1.0578 H       1  UNL1        0.0625
     37 H          -3.4394    0.6731   -0.1026 H       1  UNL1        0.0640
     38 H          -3.9726   -2.1232    0.9621 H       1  UNL1        0.0624
     39 H          -6.1224   -2.3758    1.9738 H       1  UNL1        0.0639
     40 H          -8.3569   -1.5687    2.5809 H       1  UNL1        0.0830
     41 H          -7.4462    2.1761    0.8879 H       1  UNL1        0.0830
     42 H          -5.2599    1.3898    0.2909 H       1  UNL1        0.0639
     43 H           0.1299   -3.3789   -0.3393 H       1  UNL1        0.1889
     44 H           2.1251   -1.7438   -1.5290 H       1  UNL1        0.0645
@<TRIPOS>BOND
     1     1     2    2
     2     2     3   am
     3     3     4    1
     4     4     5   ar
     5     5     6   ar
     6     6     7   ar
     7     7     8   ar
     8     8     9   ar
     9     9    10    1
    10    10    11    2
    11    11    12    1
    12    12    13   ar
    13    13    14   ar
    14    14    15   ar
    15    15    16   ar
    16    16    17    1
    17    17    18    2
    18    18    19    1
    19    19    20   ar
    20    20    21   ar
    21    21    22   ar
    22    22    23   ar
    23    23    24   ar
    24    16    25   ar
    25    25    26   ar
    26    26    27   ar
    27    27    28   ar
    28    10     2    1
    29    28    12   ar
    30     9     4   ar
    31    27    15   ar
    32    24    19   ar
    33     3    29    1
    34     5    30    1
    35     6    31    1
    36     7    32    1
    37     8    33    1
    38    11    34    1
    39    13    35    1
    40    14    36    1
    41    17    37    1
    42    18    38    1
    43    20    39    1
    44    21    40    1
    45    23    41    1
    46    24    42    1
    47    26    43    1
    48    28    44    1
