
     RDKit          3D

 57 61  0  0  0  0  0  0  0  0999 V2000
   -0.2660   -2.4802   -0.4176 C   0  0  0  0  0  0  0  0  0  0  0  0
   -0.3602   -1.9211    1.0969 C   0  0  2  0  0  0  0  0  0  0  0  0
    1.0697   -1.6026    1.3907 C   0  0  0  0  0  0  0  0  0  0  0  0
    1.9288   -1.1940    0.3452 C   0  0  0  0  0  0  0  0  0  0  0  0
    3.1980   -0.6710    0.6150 C   0  0  0  0  0  0  0  0  0  0  0  0
    3.9816   -0.1269   -0.3861 C   0  0  0  0  0  0  0  0  0  0  0  0
    4.4000   -0.3697   -1.6017 C   0  0  0  0  0  0  0  0  0  0  0  0
    3.9320   -1.6181   -2.0524 F   0  0  0  0  0  0  0  0  0  0  0  0
    4.9986    0.6180   -2.4900 C   0  0  0  0  0  0  0  0  0  0  0  0
    5.4843    0.2787   -3.7350 C   0  0  0  0  0  0  0  0  0  0  0  0
    5.8625    1.2575   -4.5952 C   0  0  0  0  0  0  0  0  0  0  0  0
    5.7756    2.6507   -4.2812 C   0  0  0  0  0  0  0  0  0  0  0  0
    6.0341    3.6844   -5.1071 C   0  0  0  0  0  0  0  0  0  0  0  0
    6.2659    4.6895   -5.9157 N   0  0  0  0  0  0  0  0  0  0  0  0
    5.2721    2.8579   -2.9732 C   0  0  0  0  0  0  0  0  0  0  0  0
    4.9203    1.8606   -2.1608 N   0  0  0  0  0  0  0  0  0  0  0  0
    3.5993   -0.5694    1.9614 C   0  0  0  0  0  0  0  0  0  0  0  0
    2.7056   -0.9873    2.8678 C   0  0  0  0  0  0  0  0  0  0  0  0
    1.4808   -1.4952    2.7487 C   0  0  0  0  0  0  0  0  0  0  0  0
    0.6910   -1.8972    3.7545 F   0  0  0  0  0  0  0  0  0  0  0  0
   -0.7619   -3.0741    1.8220 N   0  0  0  0  0  0  0  0  0  0  0  0
   -1.9668   -3.4212    2.0669 C   0  0  0  0  0  0  0  0  0  0  0  0
   -2.3588   -4.5649    2.7838 N   0  0  0  0  0  0  0  0  0  0  0  0
   -3.2763   -2.3891    1.4429 S   0  0  0  0  0  0  0  0  0  0  0  0
   -2.6285   -0.7719    1.0515 C   0  0  1  0  0  0  0  0  0  0  0  0
   -3.3657    0.1052    0.1550 C   0  0  0  0  0  0  0  0  0  0  0  0
   -3.1569    0.0018   -1.1233 O   0  0  0  0  0  0  0  0  0  0  0  0
   -4.3048    1.1209    0.4706 N   0  0  0  0  0  0  0  0  0  0  0  0
   -4.7545    1.4481    1.8061 C   0  0  0  0  0  0  0  0  0  0  0  0
   -5.9929    2.2816    1.6571 C   0  0  0  0  0  0  0  0  0  0  0  0
   -6.2271    2.4369    0.1788 C   0  0  0  0  0  0  0  0  0  0  0  0
   -4.9152    2.0157   -0.4562 C   0  0  0  0  0  0  0  0  0  0  0  0
   -1.8127   -0.0074    2.1228 C   0  0  0  0  0  0  0  0  0  0  0  0
   -1.1341   -0.7004    1.0164 C   0  0  1  0  0  0  0  0  0  0  0  0
   -1.1874   -3.0364   -0.5764 H   0  0  0  0  0  0  0  0  0  0  0  0
    0.5764   -3.1625   -0.3226 H   0  0  0  0  0  0  0  0  0  0  0  0
   -0.1905   -1.6373   -1.0668 H   0  0  0  0  0  0  0  0  0  0  0  0
    1.6626   -1.2634   -0.6705 H   0  0  0  0  0  0  0  0  0  0  0  0
    4.4905    0.9126   -0.0691 H   0  0  0  0  0  0  0  0  0  0  0  0
    5.5424   -0.7788   -4.0047 H   0  0  0  0  0  0  0  0  0  0  0  0
    6.2495    1.0856   -5.5948 H   0  0  0  0  0  0  0  0  0  0  0  0
    5.1875    3.9219   -2.7042 H   0  0  0  0  0  0  0  0  0  0  0  0
    4.5914   -0.1501    2.1108 H   0  0  0  0  0  0  0  0  0  0  0  0
    3.0621   -0.8993    3.9644 H   0  0  0  0  0  0  0  0  0  0  0  0
   -2.8902   -4.5115    3.6762 H   0  0  0  0  0  0  0  0  0  0  0  0
   -2.1327   -5.5066    2.4254 H   0  0  0  0  0  0  0  0  0  0  0  0
   -3.9931    1.9589    2.4154 H   0  0  0  0  0  0  0  0  0  0  0  0
   -5.0155    0.4528    2.2636 H   0  0  0  0  0  0  0  0  0  0  0  0
   -5.9249    3.2709    2.1696 H   0  0  0  0  0  0  0  0  0  0  0  0
   -6.8260    1.7418    2.1378 H   0  0  0  0  0  0  0  0  0  0  0  0
   -6.5544    3.4421   -0.0638 H   0  0  0  0  0  0  0  0  0  0  0  0
   -7.0352    1.7303   -0.1028 H   0  0  0  0  0  0  0  0  0  0  0  0
   -5.1269    1.4952   -1.3987 H   0  0  0  0  0  0  0  0  0  0  0  0
   -4.2871    2.9257   -0.6223 H   0  0  0  0  0  0  0  0  0  0  0  0
   -1.9607   -0.4892    3.1120 H   0  0  0  0  0  0  0  0  0  0  0  0
   -1.7983    1.0582    2.1669 H   0  0  0  0  0  0  0  0  0  0  0  0
   -0.7573   -0.0067    0.1884 H   0  0  0  0  0  0  0  0  0  0  0  0
  2  1  1  6
  2  3  1  0
  3  4  2  0
  4  5  1  0
  5  6  1  0
  6  7  2  0
  7  8  1  0
  7  9  1  0
  9 10  2  0
 10 11  1  0
 11 12  2  0
 12 13  1  0
 13 14  3  0
 12 15  1  0
 15 16  2  0
  5 17  2  0
 17 18  1  0
 18 19  2  0
 19 20  1  0
  2 21  1  0
 21 22  2  0
 22 23  1  0
 22 24  1  0
 24 25  1  0
 25 26  1  6
 26 27  2  0
 26 28  1  0
 28 29  1  0
 29 30  1  0
 30 31  1  0
 31 32  1  0
 25 33  1  0
 33 34  1  0
 34  2  1  0
 19  3  1  0
 34 25  1  0
 16  9  1  0
 32 28  1  0
  1 35  1  0
  1 36  1  0
  1 37  1  0
  4 38  1  0
  6 39  1  0
 10 40  1  0
 11 41  1  0
 15 42  1  0
 17 43  1  0
 18 44  1  0
 23 45  1  0
 23 46  1  0
 29 47  1  0
 29 48  1  0
 30 49  1  0
 30 50  1  0
 31 51  1  0
 31 52  1  0
 32 53  1  0
 32 54  1  0
 33 55  1  0
 33 56  1  0
 34 57  1  6
M  END
$$$$
