@<TRIPOS>MOLECULE
*****
 57 61 0 0 0
SMALL
GASTEIGER

@<TRIPOS>ATOM
      1 C          -0.2660   -2.4802   -0.4176 C.3     1  UNL1       -0.0351
      2 C          -0.3602   -1.9211    1.0969 C.3     1  UNL1        0.0935
      3 C           1.0697   -1.6026    1.3907 C.ar    1  UNL1        0.0158
      4 C           1.9288   -1.1940    0.3452 C.ar    1  UNL1       -0.0463
      5 C           3.1980   -0.6710    0.6150 C.ar    1  UNL1       -0.0217
      6 C           3.9816   -0.1269   -0.3861 C.2     1  UNL1       -0.0172
      7 C           4.4000   -0.3697   -1.6017 C.2     1  UNL1        0.1492
      8 F           3.9320   -1.6181   -2.0524 F       1  UNL1       -0.2032
      9 C           4.9986    0.6180   -2.4900 C.ar    1  UNL1        0.0990
     10 C           5.4843    0.2787   -3.7350 C.ar    1  UNL1       -0.0322
     11 C           5.8625    1.2575   -4.5952 C.ar    1  UNL1       -0.0408
     12 C           5.7756    2.6507   -4.2812 C.ar    1  UNL1        0.0699
     13 C           6.0341    3.6844   -5.1071 C.1     1  UNL1        0.1007
     14 N           6.2659    4.6895   -5.9157 N.1     1  UNL1       -0.1908
     15 C           5.2721    2.8579   -2.9732 C.ar    1  UNL1        0.0457
     16 N           4.9203    1.8606   -2.1608 N.ar    1  UNL1       -0.2514
     17 C           3.5993   -0.5694    1.9614 C.ar    1  UNL1       -0.0518
     18 C           2.7056   -0.9873    2.8678 C.ar    1  UNL1       -0.0255
     19 C           1.4808   -1.4952    2.7487 C.ar    1  UNL1        0.1289
     20 F           0.6910   -1.8972    3.7545 F       1  UNL1       -0.2051
     21 N          -0.7619   -3.0741    1.8220 N.2     1  UNL1       -0.2521
     22 C          -1.9668   -3.4212    2.0669 C.2     1  UNL1        0.1485
     23 N          -2.3588   -4.5649    2.7838 N.pl3   1  UNL1       -0.3380
     24 S          -3.2763   -2.3891    1.4429 S.3     1  UNL1       -0.0746
     25 C          -2.6285   -0.7719    1.0515 C.3     1  UNL1        0.1054
     26 C          -3.3657    0.1052    0.1550 C.2     1  UNL1        0.2324
     27 O          -3.1569    0.0018   -1.1233 O.2     1  UNL1       -0.2741
     28 N          -4.3048    1.1209    0.4706 N.am    1  UNL1       -0.3003
     29 C          -4.7545    1.4481    1.8061 C.3     1  UNL1        0.0148
     30 C          -5.9929    2.2816    1.6571 C.3     1  UNL1       -0.0357
     31 C          -6.2271    2.4369    0.1788 C.3     1  UNL1       -0.0357
     32 C          -4.9152    2.0157   -0.4562 C.3     1  UNL1        0.0148
     33 C          -1.8127   -0.0074    2.1228 C.3     1  UNL1       -0.0220
     34 C          -1.1341   -0.7004    1.0164 C.3     1  UNL1        0.0134
     35 H          -1.1874   -3.0364   -0.5764 H       1  UNL1        0.0256
     36 H           0.5764   -3.1625   -0.3226 H       1  UNL1        0.0256
     37 H          -0.1905   -1.6373   -1.0668 H       1  UNL1        0.0256
     38 H           1.6626   -1.2634   -0.6705 H       1  UNL1        0.0628
     39 H           4.4905    0.9126   -0.0691 H       1  UNL1        0.0653
     40 H           5.5424   -0.7788   -4.0047 H       1  UNL1        0.0640
     41 H           6.2495    1.0856   -5.5948 H       1  UNL1        0.0631
     42 H           5.1875    3.9219   -2.7042 H       1  UNL1        0.0843
     43 H           4.5914   -0.1501    2.1108 H       1  UNL1        0.0624
     44 H           3.0621   -0.8993    3.9644 H       1  UNL1        0.0646
     45 H          -2.8902   -4.5115    3.6762 H       1  UNL1        0.1442
     46 H          -2.1327   -5.5066    2.4254 H       1  UNL1        0.1442
     47 H          -3.9931    1.9589    2.4154 H       1  UNL1        0.0464
     48 H          -5.0155    0.4528    2.2636 H       1  UNL1        0.0464
     49 H          -5.9249    3.2709    2.1696 H       1  UNL1        0.0281
     50 H          -6.8260    1.7418    2.1378 H       1  UNL1        0.0281
     51 H          -6.5544    3.4421   -0.0638 H       1  UNL1        0.0281
     52 H          -7.0352    1.7303   -0.1028 H       1  UNL1        0.0281
     53 H          -5.1269    1.4952   -1.3987 H       1  UNL1        0.0464
     54 H          -4.2871    2.9257   -0.6223 H       1  UNL1        0.0464
     55 H          -1.9607   -0.4892    3.1120 H       1  UNL1        0.0287
     56 H          -1.7983    1.0582    2.1669 H       1  UNL1        0.0287
     57 H          -0.7573   -0.0067    0.1884 H       1  UNL1        0.0346
@<TRIPOS>BOND
     1     2     1    1
     2     2     3    1
     3     3     4   ar
     4     4     5   ar
     5     5     6    1
     6     6     7    2
     7     7     8    1
     8     7     9    1
     9     9    10   ar
    10    10    11   ar
    11    11    12   ar
    12    12    13    1
    13    13    14    3
    14    12    15   ar
    15    15    16   ar
    16     5    17   ar
    17    17    18   ar
    18    18    19   ar
    19    19    20    1
    20     2    21    1
    21    21    22    2
    22    22    23    1
    23    22    24    1
    24    24    25    1
    25    25    26    1
    26    26    27    2
    27    26    28   am
    28    28    29    1
    29    29    30    1
    30    30    31    1
    31    31    32    1
    32    25    33    1
    33    33    34    1
    34    34     2    1
    35    19     3   ar
    36    34    25    1
    37    16     9   ar
    38    32    28    1
    39     1    35    1
    40     1    36    1
    41     1    37    1
    42     4    38    1
    43     6    39    1
    44    10    40    1
    45    11    41    1
    46    15    42    1
    47    17    43    1
    48    18    44    1
    49    23    45    1
    50    23    46    1
    51    29    47    1
    52    29    48    1
    53    30    49    1
    54    30    50    1
    55    31    51    1
    56    31    52    1
    57    32    53    1
    58    32    54    1
    59    33    55    1
    60    33    56    1
    61    34    57    1
