
     RDKit          3D

 48 51  0  0  0  0  0  0  0  0999 V2000
   -3.1040    3.7857    1.9173 C   0  0  0  0  0  0  0  0  0  0  0  0
   -2.5796    2.4943    1.9521 O   0  0  0  0  0  0  0  0  0  0  0  0
   -1.8739    2.0093    0.8371 C   0  0  0  0  0  0  0  0  0  0  0  0
   -1.7073    2.7829   -0.2487 N   0  0  0  0  0  0  0  0  0  0  0  0
   -1.0408    2.3504   -1.3285 C   0  0  0  0  0  0  0  0  0  0  0  0
   -0.5173    1.0883   -1.3241 C   0  0  0  0  0  0  0  0  0  0  0  0
   -0.6660    0.2715   -0.2387 C   0  0  0  0  0  0  0  0  0  0  0  0
   -0.1311   -1.0739   -0.2262 C   0  0  0  0  0  0  0  0  0  0  0  0
   -0.9230   -2.2215   -0.2638 C   0  0  0  0  0  0  0  0  0  0  0  0
   -2.3750   -2.1807   -0.3151 C   0  0  0  0  0  0  0  0  0  0  0  0
   -3.0544   -1.5962   -1.3636 C   0  0  0  0  0  0  0  0  0  0  0  0
   -4.4332   -1.5765   -1.3790 C   0  0  0  0  0  0  0  0  0  0  0  0
   -5.2029   -2.1243   -0.3757 C   0  0  0  0  0  0  0  0  0  0  0  0
   -6.5554   -2.0767   -0.4419 F   0  0  0  0  0  0  0  0  0  0  0  0
   -4.5344   -2.7140    0.6826 C   0  0  0  0  0  0  0  0  0  0  0  0
   -3.1540   -2.7341    0.6988 C   0  0  0  0  0  0  0  0  0  0  0  0
   -0.0622   -3.2495   -0.2372 N   0  0  0  0  0  0  0  0  0  0  0  0
    1.2016   -2.7985   -0.1853 C   0  0  0  0  0  0  0  0  0  0  0  0
    1.1651   -1.4228   -0.1779 N   0  0  0  0  0  0  0  0  0  0  0  0
    2.3610   -0.6510   -0.1219 C   0  0  1  0  0  0  0  0  0  0  0  0
    2.9399   -0.4794   -1.5078 C   0  0  0  0  0  0  0  0  0  0  0  0
    3.9485    0.6478   -1.4995 C   0  0  0  0  0  0  0  0  0  0  0  0
    4.6650    0.7752   -0.1797 C   0  0  2  0  0  0  0  0  0  0  0  0
    5.4166   -0.3852    0.0085 O   0  0  0  0  0  0  0  0  0  0  0  0
    3.7471    0.9856    0.9940 C   0  0  0  0  0  0  0  0  0  0  0  0
    2.2934    0.6337    0.6335 C   0  0  0  0  0  0  0  0  0  0  0  0
   -1.3543    0.7775    0.8229 N   0  0  0  0  0  0  0  0  0  0  0  0
   -4.0263    3.8348    2.5593 H   0  0  0  0  0  0  0  0  0  0  0  0
   -2.4466    4.5774    2.2935 H   0  0  0  0  0  0  0  0  0  0  0  0
   -3.4639    4.0845    0.9073 H   0  0  0  0  0  0  0  0  0  0  0  0
   -0.9448    3.0329   -2.1720 H   0  0  0  0  0  0  0  0  0  0  0  0
    0.0137    0.7343   -2.1819 H   0  0  0  0  0  0  0  0  0  0  0  0
   -2.4464   -1.1639   -2.1568 H   0  0  0  0  0  0  0  0  0  0  0  0
   -4.9463   -1.1128   -2.2135 H   0  0  0  0  0  0  0  0  0  0  0  0
   -5.1296   -3.1467    1.4746 H   0  0  0  0  0  0  0  0  0  0  0  0
   -2.6037   -3.1904    1.5188 H   0  0  0  0  0  0  0  0  0  0  0  0
    2.0607   -3.4427   -0.1537 H   0  0  0  0  0  0  0  0  0  0  0  0
    3.1389   -1.2751    0.4302 H   0  0  0  0  0  0  0  0  0  0  0  0
    3.4857   -1.4046   -1.7941 H   0  0  0  0  0  0  0  0  0  0  0  0
    2.1637   -0.2883   -2.2557 H   0  0  0  0  0  0  0  0  0  0  0  0
    3.4523    1.5894   -1.8165 H   0  0  0  0  0  0  0  0  0  0  0  0
    4.7274    0.4148   -2.2594 H   0  0  0  0  0  0  0  0  0  0  0  0
    5.3842    1.6149   -0.3002 H   0  0  0  0  0  0  0  0  0  0  0  0
    5.5167   -0.6046    0.9625 H   0  0  0  0  0  0  0  0  0  0  0  0
    3.7778    2.0548    1.2637 H   0  0  0  0  0  0  0  0  0  0  0  0
    4.0960    0.3950    1.8545 H   0  0  0  0  0  0  0  0  0  0  0  0
    1.9406    1.5071    0.0566 H   0  0  0  0  0  0  0  0  0  0  0  0
    1.7805    0.4711    1.5867 H   0  0  0  0  0  0  0  0  0  0  0  0
  1  2  1  0
  2  3  1  0
  3  4  2  0
  4  5  1  0
  5  6  2  0
  6  7  1  0
  7  8  1  0
  8  9  2  0
  9 10  1  0
 10 11  2  0
 11 12  1  0
 12 13  2  0
 13 14  1  0
 13 15  1  0
 15 16  2  0
  9 17  1  0
 17 18  2  0
 18 19  1  0
 19 20  1  0
 20 21  1  0
 21 22  1  0
 22 23  1  0
 23 24  1  0
 23 25  1  0
 25 26  1  0
  7 27  2  0
 27  3  1  0
 19  8  1  0
 26 20  1  0
 16 10  1  0
  1 28  1  0
  1 29  1  0
  1 30  1  0
  5 31  1  0
  6 32  1  0
 11 33  1  0
 12 34  1  0
 15 35  1  0
 16 36  1  0
 18 37  1  0
 20 38  1  1
 21 39  1  0
 21 40  1  0
 22 41  1  0
 22 42  1  0
 23 43  1  6
 24 44  1  0
 25 45  1  0
 25 46  1  0
 26 47  1  0
 26 48  1  0
M  END
$$$$
