@<TRIPOS>MOLECULE
*****
 48 51 0 0 0
SMALL
GASTEIGER

@<TRIPOS>ATOM
      1 C          -3.1040    3.7857    1.9173 C.3     1  UNL1        0.0819
      2 O          -2.5796    2.4943    1.9521 O.3     1  UNL1       -0.4657
      3 C          -1.8739    2.0093    0.8371 C.ar    1  UNL1        0.3182
      4 N          -1.7073    2.7829   -0.2487 N.ar    1  UNL1       -0.2033
      5 C          -1.0408    2.3504   -1.3285 C.ar    1  UNL1        0.0350
      6 C          -0.5173    1.0883   -1.3241 C.ar    1  UNL1       -0.0158
      7 C          -0.6660    0.2715   -0.2387 C.ar    1  UNL1        0.0962
      8 C          -0.1311   -1.0739   -0.2262 C.ar    1  UNL1        0.0953
      9 C          -0.9230   -2.2215   -0.2638 C.ar    1  UNL1        0.0982
     10 C          -2.3750   -2.1807   -0.3151 C.ar    1  UNL1        0.0027
     11 C          -3.0544   -1.5962   -1.3636 C.ar    1  UNL1       -0.0498
     12 C          -4.4332   -1.5765   -1.3790 C.ar    1  UNL1       -0.0258
     13 C          -5.2029   -2.1243   -0.3757 C.ar    1  UNL1        0.1234
     14 F          -6.5554   -2.0767   -0.4419 F       1  UNL1       -0.2055
     15 C          -4.5344   -2.7140    0.6826 C.ar    1  UNL1       -0.0258
     16 C          -3.1540   -2.7341    0.6988 C.ar    1  UNL1       -0.0498
     17 N          -0.0622   -3.2495   -0.2372 N.ar    1  UNL1       -0.2351
     18 C           1.2016   -2.7985   -0.1853 C.ar    1  UNL1        0.0974
     19 N           1.1651   -1.4228   -0.1779 N.ar    1  UNL1       -0.3253
     20 C           2.3610   -0.6510   -0.1219 C.3     1  UNL1        0.0362
     21 C           2.9399   -0.4794   -1.5078 C.3     1  UNL1       -0.0297
     22 C           3.9485    0.6478   -1.4995 C.3     1  UNL1       -0.0250
     23 C           4.6650    0.7752   -0.1797 C.3     1  UNL1        0.0554
     24 O           5.4166   -0.3852    0.0085 O.3     1  UNL1       -0.3918
     25 C           3.7471    0.9856    0.9940 C.3     1  UNL1       -0.0250
     26 C           2.2934    0.6337    0.6335 C.3     1  UNL1       -0.0297
     27 N          -1.3543    0.7775    0.8229 N.ar    1  UNL1       -0.1934
     28 H          -4.0263    3.8348    2.5593 H       1  UNL1        0.0661
     29 H          -2.4466    4.5774    2.2935 H       1  UNL1        0.0661
     30 H          -3.4639    4.0845    0.9073 H       1  UNL1        0.0661
     31 H          -0.9448    3.0329   -2.1720 H       1  UNL1        0.0832
     32 H           0.0137    0.7343   -2.1819 H       1  UNL1        0.0655
     33 H          -2.4464   -1.1639   -2.1568 H       1  UNL1        0.0625
     34 H          -4.9463   -1.1128   -2.2135 H       1  UNL1        0.0646
     35 H          -5.1296   -3.1467    1.4746 H       1  UNL1        0.0646
     36 H          -2.6037   -3.1904    1.5188 H       1  UNL1        0.0625
     37 H           2.0607   -3.4427   -0.1537 H       1  UNL1        0.1029
     38 H           3.1389   -1.2751    0.4302 H       1  UNL1        0.0528
     39 H           3.4857   -1.4046   -1.7941 H       1  UNL1        0.0286
     40 H           2.1637   -0.2883   -2.2557 H       1  UNL1        0.0286
     41 H           3.4523    1.5894   -1.8165 H       1  UNL1        0.0291
     42 H           4.7274    0.4148   -2.2594 H       1  UNL1        0.0291
     43 H           5.3842    1.6149   -0.3002 H       1  UNL1        0.0593
     44 H           5.5167   -0.6046    0.9625 H       1  UNL1        0.2098
     45 H           3.7778    2.0548    1.2637 H       1  UNL1        0.0291
     46 H           4.0960    0.3950    1.8545 H       1  UNL1        0.0291
     47 H           1.9406    1.5071    0.0566 H       1  UNL1        0.0286
     48 H           1.7805    0.4711    1.5867 H       1  UNL1        0.0286
@<TRIPOS>BOND
     1     1     2    1
     2     2     3    1
     3     3     4   ar
     4     4     5   ar
     5     5     6   ar
     6     6     7   ar
     7     7     8    1
     8     8     9   ar
     9     9    10    1
    10    10    11   ar
    11    11    12   ar
    12    12    13   ar
    13    13    14    1
    14    13    15   ar
    15    15    16   ar
    16     9    17   ar
    17    17    18   ar
    18    18    19   ar
    19    19    20    1
    20    20    21    1
    21    21    22    1
    22    22    23    1
    23    23    24    1
    24    23    25    1
    25    25    26    1
    26     7    27   ar
    27    27     3   ar
    28    19     8   ar
    29    26    20    1
    30    16    10   ar
    31     1    28    1
    32     1    29    1
    33     1    30    1
    34     5    31    1
    35     6    32    1
    36    11    33    1
    37    12    34    1
    38    15    35    1
    39    16    36    1
    40    18    37    1
    41    20    38    1
    42    21    39    1
    43    21    40    1
    44    22    41    1
    45    22    42    1
    46    23    43    1
    47    24    44    1
    48    25    45    1
    49    25    46    1
    50    26    47    1
    51    26    48    1
