@<TRIPOS>MOLECULE
*****
 22 23 0 0 0
SMALL
GASTEIGER

@<TRIPOS>ATOM
      1 O           4.8749   -1.0319    0.0672 O.3     1  UNL1       -0.4771
      2 C           3.6473   -1.1322    0.6669 C.2     1  UNL1        0.3398
      3 O           3.6112   -1.6988    1.7896 O.2     1  UNL1       -0.2450
      4 C           2.4167   -0.6231    0.0729 C.ar    1  UNL1        0.0966
      5 C           1.1724   -0.7090    0.6500 C.ar    1  UNL1        0.0452
      6 N           0.3083   -0.1269   -0.2074 N.ar    1  UNL1       -0.2391
      7 N           0.9956    0.2920   -1.2543 N.ar    1  UNL1       -0.1740
      8 C           2.3039    0.0168   -1.1445 C.ar    1  UNL1        0.0638
      9 C          -1.1024    0.0964   -0.1817 C.ar    1  UNL1        0.0654
     10 C          -1.4172    1.4585   -0.1049 C.ar    1  UNL1       -0.0363
     11 C          -2.7188    1.8982   -0.0686 C.ar    1  UNL1       -0.0598
     12 C          -3.7411    0.9550   -0.1098 C.ar    1  UNL1       -0.0616
     13 C          -3.4307   -0.3875   -0.1855 C.ar    1  UNL1       -0.0598
     14 C          -2.1230   -0.8255   -0.2218 C.ar    1  UNL1       -0.0363
     15 H           5.7090   -0.7800    0.5825 H       1  UNL1        0.2954
     16 H           0.8422   -1.1247    1.5734 H       1  UNL1        0.0839
     17 H           3.0902    0.2538   -1.8672 H       1  UNL1        0.0856
     18 H          -0.6912    2.2607   -0.0685 H       1  UNL1        0.0639
     19 H          -2.9948    2.9453   -0.0092 H       1  UNL1        0.0618
     20 H          -4.7775    1.2773   -0.0824 H       1  UNL1        0.0618
     21 H          -4.1997   -1.1657   -0.2202 H       1  UNL1        0.0618
     22 H          -1.7753   -1.8490   -0.2806 H       1  UNL1        0.0639
@<TRIPOS>BOND
     1     1     2    1
     2     2     3    2
     3     2     4    1
     4     4     5   ar
     5     5     6   ar
     6     6     7   ar
     7     7     8   ar
     8     6     9    1
     9     9    10   ar
    10    10    11   ar
    11    11    12   ar
    12    12    13   ar
    13    13    14   ar
    14     8     4   ar
    15    14     9   ar
    16     1    15    1
    17     5    16    1
    18     8    17    1
    19    10    18    1
    20    11    19    1
    21    12    20    1
    22    13    21    1
    23    14    22    1
