@<TRIPOS>MOLECULE
*****
 56 58 0 0 0
SMALL
GASTEIGER

@<TRIPOS>ATOM
      1 C           0.1034   -2.5824   -1.4541 C.3     0  UNK0       -0.0585
      2 C           1.4509   -2.6401   -0.8091 C.3     0  UNK0       -0.0183
      3 C           1.6003   -3.5857    0.3244 C.3     0  UNK0       -0.0585
      4 C           2.1138   -1.3619   -0.5733 C.ar    0  UNK0       -0.0056
      5 C           3.5128   -1.3358   -0.7306 C.ar    0  UNK0        0.0334
      6 N           4.2235   -0.2232   -0.5540 N.ar    0  UNK0       -0.2545
      7 C           3.6753    0.9778   -0.2098 C.ar    0  UNK0        0.0755
      8 C           4.5989    2.0915   -0.0583 C.ar    0  UNK0        0.0369
      9 C           5.9661    1.8747   -0.2690 C.ar    0  UNK0       -0.0314
     10 C           6.9069    2.8683   -0.1475 C.ar    0  UNK0        0.0418
     11 CL          8.5964    2.5187   -0.4268 Cl      0  UNK0       -0.0835
     12 C           6.5467    4.1498    0.1935 C.ar    0  UNK0       -0.0406
     13 C           5.2133    4.3972    0.4073 C.ar    0  UNK0       -0.0244
     14 C           4.2579    3.3757    0.2810 C.ar    0  UNK0        0.1326
     15 F           2.9601    3.6793    0.5038 F       0  UNK0       -0.2048
     16 C           2.3358    0.9904   -0.0499 C.ar    0  UNK0       -0.0141
     17 C           1.5599   -0.1674   -0.2289 C.ar    0  UNK0        0.0383
     18 N           0.1584   -0.0389   -0.1193 N.pl3   0  UNK0       -0.3135
     19 C          -0.5408   -0.5988    0.9516 C.ar    0  UNK0        0.0465
     20 C           0.1931   -1.1801    1.9626 C.ar    0  UNK0       -0.0217
     21 C          -0.3533   -1.7711    3.0721 C.ar    0  UNK0        0.0293
     22 N          -1.6818   -1.7812    3.1745 N.ar    0  UNK0       -0.2624
     23 C          -2.4339   -1.2282    2.2158 C.ar    0  UNK0        0.0415
     24 C          -1.9158   -0.6165    1.0702 C.ar    0  UNK0        0.0758
     25 C          -2.7875   -0.0452    0.0649 C.2     0  UNK0        0.2477
     26 O          -2.3890    0.4899   -0.9882 O.2     0  UNK0       -0.2701
     27 N          -4.1955   -0.0713    0.2441 N.am    1  SER1       -0.3040
     28 CA         -5.0925    0.5045   -0.7679 C.3     1  SER1        0.0695
     29 CB         -5.8694    1.6711   -0.1633 C.3     1  SER1        0.0647
     30 OG         -6.6353    1.2389    0.9255 O.3     1  SER1       -0.3931
     31 C          -6.0875   -0.5127   -1.2230 C.3     1  SER1        0.0647
     32 O          -6.9131    0.0677   -2.1747 O.3     1  SER1       -0.3931
     33 H          -0.0589   -1.6240   -1.9457 H       0  UNK0        0.0235
     34 H          -0.7157   -2.8910   -0.7602 H       0  UNK0        0.0235
     35 H           0.0611   -3.3515   -2.2636 H       0  UNK0        0.0235
     36 H           2.1066   -3.1302   -1.6462 H       0  UNK0        0.0344
     37 H           2.2707   -3.2232    1.1365 H       0  UNK0        0.0235
     38 H           2.0309   -4.5918    0.0420 H       0  UNK0        0.0235
     39 H           0.6165   -3.7917    0.8014 H       0  UNK0        0.0235
     40 H           4.0205   -2.2631   -1.0061 H       0  UNK0        0.0833
     41 H           6.2898    0.8614   -0.5431 H       0  UNK0        0.0639
     42 H           7.2530    4.9605    0.2998 H       0  UNK0        0.0633
     43 H           4.8941    5.3812    0.6741 H       0  UNK0        0.0647
     44 H           1.8450    1.9131    0.2227 H       0  UNK0        0.0658
     45 H          -0.2823    0.5063   -0.8903 H       0  UNK0        0.1522
     46 H           1.2874   -1.1856    1.9101 H       0  UNK0        0.0651
     47 H           0.2218   -2.2280    3.8666 H       0  UNK0        0.0830
     48 H          -3.5191   -1.2719    2.3630 H       0  UNK0        0.0838
     49 H          -4.6763   -0.4773    1.0612 H       1  SER1        0.1495
     50 HA         -4.4591    0.8965   -1.5716 H       1  SER1        0.0544
     51 HB1        -5.2029    2.5155    0.1031 H       1  SER1        0.0576
     52 HB2        -6.5926    2.0478   -0.9143 H       1  SER1        0.0576
     53 H          -7.6033    1.1727    0.7021 H       1  SER1        0.2095
     54 H1         -6.7146   -0.7947   -0.3423 H       1  SER1        0.0576
     55 H2         -5.6273   -1.4550   -1.5758 H       1  SER1        0.0576
     56 H          -6.5231    0.8691   -2.6009 H       1  SER1        0.2095
@<TRIPOS>BOND
     1     1     2    1
     2     2     3    1
     3     2     4    1
     4     4     5   ar
     5     5     6   ar
     6     6     7   ar
     7     7     8    1
     8     8     9   ar
     9     9    10   ar
    10    10    11    1
    11    10    12   ar
    12    12    13   ar
    13    13    14   ar
    14    14    15    1
    15     7    16   ar
    16    16    17   ar
    17    17    18    1
    18    18    19    1
    19    19    20   ar
    20    20    21   ar
    21    21    22   ar
    22    22    23   ar
    23    23    24   ar
    24    24    25    1
    25    25    26    2
    26    25    27   am
    27    27    28    1
    28    28    29    1
    29    29    30    1
    30    28    31    1
    31    31    32    1
    32    17     4   ar
    33    24    19   ar
    34    14     8   ar
    35     1    33    1
    36     1    34    1
    37     1    35    1
    38     2    36    1
    39     3    37    1
    40     3    38    1
    41     3    39    1
    42     5    40    1
    43     9    41    1
    44    12    42    1
    45    13    43    1
    46    16    44    1
    47    18    45    1
    48    20    46    1
    49    21    47    1
    50    23    48    1
    51    27    49    1
    52    28    50    1
    53    29    51    1
    54    29    52    1
    55    30    53    1
    56    31    54    1
    57    31    55    1
    58    32    56    1
