
     RDKit          3D

 56 58  0  0  0  0  0  0  0  0999 V2000
    0.1034   -2.5824   -1.4541 C   0  0  0  0  0  0  0  0  0  0  0  0
    1.4509   -2.6401   -0.8091 C   0  0  0  0  0  0  0  0  0  0  0  0
    1.6003   -3.5857    0.3244 C   0  0  0  0  0  0  0  0  0  0  0  0
    2.1138   -1.3619   -0.5733 C   0  0  0  0  0  0  0  0  0  0  0  0
    3.5128   -1.3358   -0.7306 C   0  0  0  0  0  0  0  0  0  0  0  0
    4.2235   -0.2232   -0.5540 N   0  0  0  0  0  0  0  0  0  0  0  0
    3.6753    0.9778   -0.2098 C   0  0  0  0  0  0  0  0  0  0  0  0
    4.5989    2.0915   -0.0583 C   0  0  0  0  0  0  0  0  0  0  0  0
    5.9661    1.8747   -0.2690 C   0  0  0  0  0  0  0  0  0  0  0  0
    6.9069    2.8683   -0.1475 C   0  0  0  0  0  0  0  0  0  0  0  0
    8.5964    2.5187   -0.4268 Cl  0  0  0  0  0  0  0  0  0  0  0  0
    6.5467    4.1498    0.1935 C   0  0  0  0  0  0  0  0  0  0  0  0
    5.2133    4.3972    0.4073 C   0  0  0  0  0  0  0  0  0  0  0  0
    4.2579    3.3757    0.2810 C   0  0  0  0  0  0  0  0  0  0  0  0
    2.9601    3.6793    0.5038 F   0  0  0  0  0  0  0  0  0  0  0  0
    2.3358    0.9904   -0.0499 C   0  0  0  0  0  0  0  0  0  0  0  0
    1.5599   -0.1674   -0.2289 C   0  0  0  0  0  0  0  0  0  0  0  0
    0.1584   -0.0389   -0.1193 N   0  0  0  0  0  0  0  0  0  0  0  0
   -0.5408   -0.5988    0.9516 C   0  0  0  0  0  0  0  0  0  0  0  0
    0.1931   -1.1801    1.9626 C   0  0  0  0  0  0  0  0  0  0  0  0
   -0.3533   -1.7711    3.0721 C   0  0  0  0  0  0  0  0  0  0  0  0
   -1.6818   -1.7812    3.1745 N   0  0  0  0  0  0  0  0  0  0  0  0
   -2.4339   -1.2282    2.2158 C   0  0  0  0  0  0  0  0  0  0  0  0
   -1.9158   -0.6165    1.0702 C   0  0  0  0  0  0  0  0  0  0  0  0
   -2.7875   -0.0452    0.0649 C   0  0  0  0  0  0  0  0  0  0  0  0
   -2.3890    0.4899   -0.9882 O   0  0  0  0  0  0  0  0  0  0  0  0
   -4.1955   -0.0713    0.2441 N   0  0  0  0  0  0  0  0  0  0  0  0
   -5.0925    0.5045   -0.7679 C   0  0  0  0  0  0  0  0  0  0  0  0
   -5.8694    1.6711   -0.1633 C   0  0  0  0  0  0  0  0  0  0  0  0
   -6.6353    1.2389    0.9255 O   0  0  0  0  0  0  0  0  0  0  0  0
   -6.0875   -0.5127   -1.2230 C   0  0  0  0  0  0  0  0  0  0  0  0
   -6.9131    0.0677   -2.1747 O   0  0  0  0  0  0  0  0  0  0  0  0
   -0.0589   -1.6240   -1.9457 H   0  0  0  0  0  0  0  0  0  0  0  0
   -0.7157   -2.8910   -0.7602 H   0  0  0  0  0  0  0  0  0  0  0  0
    0.0611   -3.3515   -2.2636 H   0  0  0  0  0  0  0  0  0  0  0  0
    2.1066   -3.1302   -1.6462 H   0  0  0  0  0  0  0  0  0  0  0  0
    2.2707   -3.2232    1.1365 H   0  0  0  0  0  0  0  0  0  0  0  0
    2.0309   -4.5918    0.0420 H   0  0  0  0  0  0  0  0  0  0  0  0
    0.6165   -3.7917    0.8014 H   0  0  0  0  0  0  0  0  0  0  0  0
    4.0205   -2.2631   -1.0061 H   0  0  0  0  0  0  0  0  0  0  0  0
    6.2898    0.8614   -0.5431 H   0  0  0  0  0  0  0  0  0  0  0  0
    7.2530    4.9605    0.2998 H   0  0  0  0  0  0  0  0  0  0  0  0
    4.8941    5.3812    0.6741 H   0  0  0  0  0  0  0  0  0  0  0  0
    1.8450    1.9131    0.2227 H   0  0  0  0  0  0  0  0  0  0  0  0
   -0.2823    0.5063   -0.8903 H   0  0  0  0  0  0  0  0  0  0  0  0
    1.2874   -1.1856    1.9101 H   0  0  0  0  0  0  0  0  0  0  0  0
    0.2218   -2.2280    3.8666 H   0  0  0  0  0  0  0  0  0  0  0  0
   -3.5191   -1.2719    2.3630 H   0  0  0  0  0  0  0  0  0  0  0  0
   -4.6763   -0.4773    1.0612 H   0  0  0  0  0  0  0  0  0  0  0  0
   -4.4591    0.8965   -1.5716 H   0  0  0  0  0  0  0  0  0  0  0  0
   -5.2029    2.5155    0.1031 H   0  0  0  0  0  0  0  0  0  0  0  0
   -6.5926    2.0478   -0.9143 H   0  0  0  0  0  0  0  0  0  0  0  0
   -7.6033    1.1727    0.7021 H   0  0  0  0  0  0  0  0  0  0  0  0
   -6.7146   -0.7947   -0.3423 H   0  0  0  0  0  0  0  0  0  0  0  0
   -5.6273   -1.4550   -1.5758 H   0  0  0  0  0  0  0  0  0  0  0  0
   -6.5231    0.8691   -2.6009 H   0  0  0  0  0  0  0  0  0  0  0  0
  1  2  1  0
  2  3  1  0
  2  4  1  0
  4  5  2  0
  5  6  1  0
  6  7  2  0
  7  8  1  0
  8  9  2  0
  9 10  1  0
 10 11  1  0
 10 12  2  0
 12 13  1  0
 13 14  2  0
 14 15  1  0
  7 16  1  0
 16 17  2  0
 17 18  1  0
 18 19  1  0
 19 20  2  0
 20 21  1  0
 21 22  2  0
 22 23  1  0
 23 24  2  0
 24 25  1  0
 25 26  2  0
 25 27  1  0
 27 28  1  0
 28 29  1  0
 29 30  1  0
 28 31  1  0
 31 32  1  0
 17  4  1  0
 24 19  1  0
 14  8  1  0
  1 33  1  0
  1 34  1  0
  1 35  1  0
  2 36  1  0
  3 37  1  0
  3 38  1  0
  3 39  1  0
  5 40  1  0
  9 41  1  0
 12 42  1  0
 13 43  1  0
 16 44  1  0
 18 45  1  0
 20 46  1  0
 21 47  1  0
 23 48  1  0
 27 49  1  0
 28 50  1  0
 29 51  1  0
 29 52  1  0
 30 53  1  0
 31 54  1  0
 31 55  1  0
 32 56  1  0
M  END
$$$$
