@<TRIPOS>MOLECULE
*****
 60 62 0 0 0
SMALL
GASTEIGER

@<TRIPOS>ATOM
      1 C          -5.2319    4.1617   -2.2943 C.3     1  UNL1        0.0817
      2 O          -5.0891    3.0484   -1.4310 O.3     1  UNL1       -0.4668
      3 C          -3.9039    2.7329   -0.7828 C.2     1  UNL1        0.3243
      4 O          -2.8029    3.3503   -0.8455 O.2     1  UNL1       -0.2491
      5 C          -3.9502    1.5355    0.0752 C.3     1  UNL1        0.1129
      6 C          -5.0447    1.7257    1.1008 C.3     1  UNL1       -0.0388
      7 N          -2.6416    1.3521    0.6705 N.3     1  UNL1       -0.1988
      8 P          -2.5994   -0.0548    1.7125 P.3     1  UNL1        0.4624
      9 O          -3.1833    0.3572    3.0449 O.2     1  UNL1       -0.2281
     10 O          -1.0508   -0.6703    1.8562 O.3     1  UNL1       -0.2843
     11 C          -0.1054    0.2909    2.1878 C.3     1  UNL1        0.0878
     12 C           1.2174   -0.4042    2.2794 C.3     1  UNL1        0.1108
     13 O           1.5874   -1.0141    1.0829 O.3     1  UNL1       -0.3483
     14 C           2.9336   -1.2559    1.1334 C.3     1  UNL1        0.1422
     15 C           3.4935   -0.4533    2.2988 C.3     1  UNL1        0.0214
     16 C           2.3756    0.5625    2.4471 C.3     1  UNL1        0.0877
     17 O           2.3821    1.1848    3.6774 O.3     1  UNL1       -0.3890
     18 N           3.6050   -0.7691   -0.0590 N.ar    1  UNL1       -0.2734
     19 C           4.9301   -0.9212   -0.1420 C.ar    1  UNL1        0.0242
     20 C           5.6372   -0.4839   -1.2440 C.ar    1  UNL1        0.0562
     21 C           7.0749   -0.6651   -1.3010 C.2     1  UNL1       -0.0412
     22 C           7.9731   -0.3562   -2.1977 C.2     1  UNL1       -0.0178
     23 BR          9.8325   -0.6985   -2.0511 Br      1  UNL1       -0.0587
     24 C           4.8433    0.1000   -2.1998 C.ar    1  UNL1        0.2611
     25 O           5.3784    0.5356   -3.2473 O.2     1  UNL1       -0.2671
     26 N           3.5154    0.2631   -2.1384 N.ar    1  UNL1       -0.2744
     27 C           2.8913   -0.1860   -1.0368 C.ar    1  UNL1        0.3314
     28 O           1.6482   -0.0550   -0.9352 O.2     1  UNL1       -0.2464
     29 O          -3.6210   -1.2939    1.1239 O.3     1  UNL1       -0.4128
     30 C          -3.3474   -2.0300   -0.0128 C.ar    1  UNL1        0.1311
     31 C          -4.0508   -3.2203   -0.1655 C.ar    1  UNL1       -0.0194
     32 C          -3.7845   -3.9605   -1.2956 C.ar    1  UNL1       -0.0583
     33 C          -2.8728   -3.6085   -2.2855 C.ar    1  UNL1       -0.0615
     34 C          -2.1819   -2.4154   -2.1115 C.ar    1  UNL1       -0.0583
     35 C          -2.4281   -1.6524   -0.9883 C.ar    1  UNL1       -0.0194
     36 H          -4.2327    4.5137   -2.6334 H       1  UNL1        0.0661
     37 H          -5.8602    3.7996   -3.1506 H       1  UNL1        0.0661
     38 H          -5.7840    4.9512   -1.7127 H       1  UNL1        0.0661
     39 H          -4.1517    0.6376   -0.5448 H       1  UNL1        0.0578
     40 H          -6.0012    1.6998    0.5309 H       1  UNL1        0.0250
     41 H          -4.8527    2.7137    1.5686 H       1  UNL1        0.0250
     42 H          -5.1093    0.9315    1.8491 H       1  UNL1        0.0250
     43 H          -2.3399    2.1919    1.2180 H       1  UNL1        0.1354
     44 H          -0.0984    1.0986    1.4404 H       1  UNL1        0.0592
     45 H          -0.3587    0.7704    3.1517 H       1  UNL1        0.0592
     46 H           1.2826   -1.1346    3.0835 H       1  UNL1        0.0646
     47 H           3.1125   -2.3423    1.2703 H       1  UNL1        0.0840
     48 H           3.5352   -1.0281    3.2309 H       1  UNL1        0.0335
     49 H           4.4550    0.0301    2.0359 H       1  UNL1        0.0335
     50 H           2.4662    1.2628    1.6027 H       1  UNL1        0.0621
     51 H           2.1124    2.1269    3.5355 H       1  UNL1        0.2099
     52 H           5.4616   -1.4057    0.6889 H       1  UNL1        0.0819
     53 H           7.5457   -1.1581   -0.4350 H       1  UNL1        0.0631
     54 H           7.5903    0.1271   -3.0700 H       1  UNL1        0.0696
     55 H           2.9713    0.7173   -2.9036 H       1  UNL1        0.1734
     56 H          -4.7695   -3.5704    0.5425 H       1  UNL1        0.0654
     57 H          -4.3044   -4.8947   -1.4629 H       1  UNL1        0.0619
     58 H          -2.7165   -4.2382   -3.1436 H       1  UNL1        0.0618
     59 H          -1.4764   -2.1132   -2.8478 H       1  UNL1        0.0619
     60 H          -1.9066   -0.7192   -0.8245 H       1  UNL1        0.0654
@<TRIPOS>BOND
     1     1     2    1
     2     2     3    1
     3     3     4    2
     4     3     5    1
     5     5     6    1
     6     5     7    1
     7     7     8    1
     8     8     9    2
     9     8    10    1
    10    10    11    1
    11    11    12    1
    12    12    13    1
    13    13    14    1
    14    14    15    1
    15    15    16    1
    16    16    17    1
    17    14    18    1
    18    18    19   ar
    19    19    20   ar
    20    20    21    1
    21    21    22    2
    22    22    23    1
    23    20    24   ar
    24    24    25    2
    25    24    26   ar
    26    26    27   ar
    27    27    28    2
    28     8    29    1
    29    29    30    1
    30    30    31   ar
    31    31    32   ar
    32    32    33   ar
    33    33    34   ar
    34    34    35   ar
    35    16    12    1
    36    27    18   ar
    37    35    30   ar
    38     1    36    1
    39     1    37    1
    40     1    38    1
    41     5    39    1
    42     6    40    1
    43     6    41    1
    44     6    42    1
    45     7    43    1
    46    11    44    1
    47    11    45    1
    48    12    46    1
    49    14    47    1
    50    15    48    1
    51    15    49    1
    52    16    50    1
    53    17    51    1
    54    19    52    1
    55    21    53    1
    56    22    54    1
    57    26    55    1
    58    31    56    1
    59    32    57    1
    60    33    58    1
    61    34    59    1
    62    35    60    1
