
     RDKit          3D

 56 58  0  0  0  0  0  0  0  0999 V2000
    6.7091    0.1855    1.5238 C   0  0  0  0  0  0  0  0  0  0  0  0
    5.2652    0.5925    1.3432 C   0  0  0  0  0  0  0  0  0  0  0  0
    4.6080   -0.0264    0.2606 N   0  0  0  0  0  0  0  0  0  0  0  0
    5.0028    0.3252   -1.0570 C   0  0  0  0  0  0  0  0  0  0  0  0
    6.3598   -0.1141   -1.4947 C   0  0  0  0  0  0  0  0  0  0  0  0
    4.2779   -1.4058    0.4308 C   0  0  0  0  0  0  0  0  0  0  0  0
    3.1831   -1.5732    1.4414 C   0  0  0  0  0  0  0  0  0  0  0  0
    1.9426   -0.9158    1.1132 N   0  0  0  0  0  0  0  0  0  0  0  0
    1.2566   -1.1993   -0.0679 C   0  0  0  0  0  0  0  0  0  0  0  0
    1.7237   -2.0440   -0.9066 O   0  0  0  0  0  0  0  0  0  0  0  0
   -0.0107   -0.5542   -0.3984 C   0  0  0  0  0  0  0  0  0  0  0  0
   -0.2219    0.4815   -1.2752 C   0  0  0  0  0  0  0  0  0  0  0  0
    0.8114    1.2470   -2.0255 C   0  0  0  0  0  0  0  0  0  0  0  0
   -1.5448    0.7495   -1.3838 N   0  0  0  0  0  0  0  0  0  0  0  0
   -2.2081   -0.0867   -0.5978 C   0  0  0  0  0  0  0  0  0  0  0  0
   -3.6250   -0.2629   -0.3471 C   0  0  0  0  0  0  0  0  0  0  0  0
   -4.5097    0.6279   -0.0495 C   0  0  0  0  0  0  0  0  0  0  0  0
   -4.2764    2.0333    0.1110 C   0  0  0  0  0  0  0  0  0  0  0  0
   -3.1840    2.6154    0.0221 O   0  0  0  0  0  0  0  0  0  0  0  0
   -5.5521    2.6180    0.3935 N   0  0  0  0  0  0  0  0  0  0  0  0
   -6.5613    1.6218    0.4134 C   0  0  0  0  0  0  0  0  0  0  0  0
   -7.9204    1.7159    0.6365 C   0  0  0  0  0  0  0  0  0  0  0  0
   -8.7029    0.5899    0.5978 C   0  0  0  0  0  0  0  0  0  0  0  0
   -8.1127   -0.6299    0.3334 C   0  0  0  0  0  0  0  0  0  0  0  0
   -8.8947   -1.7381    0.3002 F   0  0  0  0  0  0  0  0  0  0  0  0
   -6.7559   -0.7053    0.1137 C   0  0  0  0  0  0  0  0  0  0  0  0
   -5.9512    0.4121    0.1478 C   0  0  0  0  0  0  0  0  0  0  0  0
   -1.2731   -0.9188    0.0385 C   0  0  0  0  0  0  0  0  0  0  0  0
   -1.5622   -2.0006    1.0143 C   0  0  0  0  0  0  0  0  0  0  0  0
    6.9222    0.2451    2.6345 H   0  0  0  0  0  0  0  0  0  0  0  0
    7.4110    0.9299    1.0874 H   0  0  0  0  0  0  0  0  0  0  0  0
    6.9190   -0.8432    1.2368 H   0  0  0  0  0  0  0  0  0  0  0  0
    4.7126    0.4224    2.2810 H   0  0  0  0  0  0  0  0  0  0  0  0
    5.2641    1.6940    1.1854 H   0  0  0  0  0  0  0  0  0  0  0  0
    4.8836    1.4165   -1.1651 H   0  0  0  0  0  0  0  0  0  0  0  0
    4.2216   -0.1162   -1.7499 H   0  0  0  0  0  0  0  0  0  0  0  0
    6.6632   -1.1033   -1.1227 H   0  0  0  0  0  0  0  0  0  0  0  0
    6.3546   -0.1918   -2.6235 H   0  0  0  0  0  0  0  0  0  0  0  0
    7.1052    0.6655   -1.2768 H   0  0  0  0  0  0  0  0  0  0  0  0
    5.1704   -2.0269    0.7080 H   0  0  0  0  0  0  0  0  0  0  0  0
    3.9453   -1.7927   -0.5420 H   0  0  0  0  0  0  0  0  0  0  0  0
    3.4974   -1.1752    2.4535 H   0  0  0  0  0  0  0  0  0  0  0  0
    3.0287   -2.6744    1.6354 H   0  0  0  0  0  0  0  0  0  0  0  0
    1.5197   -0.1985    1.7569 H   0  0  0  0  0  0  0  0  0  0  0  0
    1.6667    0.5942   -2.2808 H   0  0  0  0  0  0  0  0  0  0  0  0
    1.1861    2.1039   -1.3934 H   0  0  0  0  0  0  0  0  0  0  0  0
    0.3943    1.6992   -2.9363 H   0  0  0  0  0  0  0  0  0  0  0  0
   -1.9913    1.4793   -2.0006 H   0  0  0  0  0  0  0  0  0  0  0  0
   -3.9879   -1.3059   -0.4295 H   0  0  0  0  0  0  0  0  0  0  0  0
   -5.6981    3.6361    0.5595 H   0  0  0  0  0  0  0  0  0  0  0  0
   -8.3787    2.6680    0.8424 H   0  0  0  0  0  0  0  0  0  0  0  0
   -9.7617    0.6761    0.7736 H   0  0  0  0  0  0  0  0  0  0  0  0
   -6.2858   -1.6552   -0.0936 H   0  0  0  0  0  0  0  0  0  0  0  0
   -1.4242   -2.9906    0.5747 H   0  0  0  0  0  0  0  0  0  0  0  0
   -2.6424   -1.9318    1.3330 H   0  0  0  0  0  0  0  0  0  0  0  0
   -0.9685   -1.8647    1.9594 H   0  0  0  0  0  0  0  0  0  0  0  0
  1  2  1  0
  2  3  1  0
  3  4  1  0
  4  5  1  0
  3  6  1  0
  6  7  1  0
  7  8  1  0
  8  9  1  0
  9 10  2  0
  9 11  1  0
 11 12  2  0
 12 13  1  0
 12 14  1  0
 14 15  1  0
 15 16  1  0
 16 17  2  0
 17 18  1  0
 18 19  2  0
 18 20  1  0
 20 21  1  0
 21 22  2  0
 22 23  1  0
 23 24  2  0
 24 25  1  0
 24 26  1  0
 26 27  2  0
 15 28  2  0
 28 29  1  0
 28 11  1  0
 27 17  1  0
 27 21  1  0
  1 30  1  0
  1 31  1  0
  1 32  1  0
  2 33  1  0
  2 34  1  0
  4 35  1  0
  4 36  1  0
  5 37  1  0
  5 38  1  0
  5 39  1  0
  6 40  1  0
  6 41  1  0
  7 42  1  0
  7 43  1  0
  8 44  1  0
 13 45  1  0
 13 46  1  0
 13 47  1  0
 14 48  1  0
 16 49  1  0
 20 50  1  0
 22 51  1  0
 23 52  1  0
 26 53  1  0
 29 54  1  0
 29 55  1  0
 29 56  1  0
M  END
$$$$
