@<TRIPOS>MOLECULE
*****
 56 58 0 0 0
SMALL
GASTEIGER

@<TRIPOS>ATOM
      1 C           6.7091    0.1855    1.5238 C.3     1  UNL1       -0.0524
      2 C           5.2652    0.5925    1.3432 C.3     1  UNL1       -0.0039
      3 N           4.6080   -0.0264    0.2606 N.3     1  UNL1       -0.3014
      4 C           5.0028    0.3252   -1.0570 C.3     1  UNL1       -0.0039
      5 C           6.3598   -0.1141   -1.4947 C.3     1  UNL1       -0.0524
      6 C           4.2779   -1.4058    0.4308 C.3     1  UNL1        0.0145
      7 C           3.1831   -1.5732    1.4414 C.3     1  UNL1        0.0247
      8 N           1.9426   -0.9158    1.1132 N.am    1  UNL1       -0.3101
      9 C           1.2566   -1.1993   -0.0679 C.2     1  UNL1        0.2461
     10 O           1.7237   -2.0440   -0.9066 O.2     1  UNL1       -0.2701
     11 C          -0.0107   -0.5542   -0.3984 C.ar    1  UNL1        0.0604
     12 C          -0.2219    0.4815   -1.2752 C.ar    1  UNL1        0.0257
     13 C           0.8114    1.2470   -2.0255 C.3     1  UNL1       -0.0237
     14 N          -1.5448    0.7495   -1.3838 N.ar    1  UNL1       -0.3578
     15 C          -2.2081   -0.0867   -0.5978 C.ar    1  UNL1        0.0438
     16 C          -3.6250   -0.2629   -0.3471 C.2     1  UNL1       -0.0253
     17 C          -4.5097    0.6279   -0.0495 C.2     1  UNL1        0.0479
     18 C          -4.2764    2.0333    0.1110 C.2     1  UNL1        0.2490
     19 O          -3.1840    2.6154    0.0221 O.2     1  UNL1       -0.2698
     20 N          -5.5521    2.6180    0.3935 N.am    1  UNL1       -0.2809
     21 C          -6.5613    1.6218    0.4134 C.ar    1  UNL1        0.0417
     22 C          -7.9204    1.7159    0.6365 C.ar    1  UNL1       -0.0372
     23 C          -8.7029    0.5899    0.5978 C.ar    1  UNL1       -0.0247
     24 C          -8.1127   -0.6299    0.3334 C.ar    1  UNL1        0.1241
     25 F          -8.8947   -1.7381    0.3002 F       1  UNL1       -0.2055
     26 C          -6.7559   -0.7053    0.1137 C.ar    1  UNL1       -0.0168
     27 C          -5.9512    0.4121    0.1478 C.ar    1  UNL1        0.0111
     28 C          -1.2731   -0.9188    0.0385 C.ar    1  UNL1       -0.0134
     29 C          -1.5622   -2.0006    1.0143 C.3     1  UNL1       -0.0370
     30 H           6.9222    0.2451    2.6345 H       1  UNL1        0.0242
     31 H           7.4110    0.9299    1.0874 H       1  UNL1        0.0242
     32 H           6.9190   -0.8432    1.2368 H       1  UNL1        0.0242
     33 H           4.7126    0.4224    2.2810 H       1  UNL1        0.0424
     34 H           5.2641    1.6940    1.1854 H       1  UNL1        0.0424
     35 H           4.8836    1.4165   -1.1651 H       1  UNL1        0.0424
     36 H           4.2216   -0.1162   -1.7499 H       1  UNL1        0.0424
     37 H           6.6632   -1.1033   -1.1227 H       1  UNL1        0.0242
     38 H           6.3546   -0.1918   -2.6235 H       1  UNL1        0.0242
     39 H           7.1052    0.6655   -1.2768 H       1  UNL1        0.0242
     40 H           5.1704   -2.0269    0.7080 H       1  UNL1        0.0442
     41 H           3.9453   -1.7927   -0.5420 H       1  UNL1        0.0442
     42 H           3.4974   -1.1752    2.4535 H       1  UNL1        0.0475
     43 H           3.0287   -2.6744    1.6354 H       1  UNL1        0.0475
     44 H           1.5197   -0.1985    1.7569 H       1  UNL1        0.1491
     45 H           1.6667    0.5942   -2.2808 H       1  UNL1        0.0292
     46 H           1.1861    2.1039   -1.3934 H       1  UNL1        0.0292
     47 H           0.3943    1.6992   -2.9363 H       1  UNL1        0.0292
     48 H          -1.9913    1.4793   -2.0006 H       1  UNL1        0.1656
     49 H          -3.9879   -1.3059   -0.4295 H       1  UNL1        0.0646
     50 H          -5.6981    3.6361    0.5595 H       1  UNL1        0.1552
     51 H          -8.3787    2.6680    0.8424 H       1  UNL1        0.0637
     52 H          -9.7617    0.6761    0.7736 H       1  UNL1        0.0647
     53 H          -6.2858   -1.6552   -0.0936 H       1  UNL1        0.0653
     54 H          -1.4242   -2.9906    0.5747 H       1  UNL1        0.0278
     55 H          -2.6424   -1.9318    1.3330 H       1  UNL1        0.0278
     56 H          -0.9685   -1.8647    1.9594 H       1  UNL1        0.0278
@<TRIPOS>BOND
     1     1     2    1
     2     2     3    1
     3     3     4    1
     4     4     5    1
     5     3     6    1
     6     6     7    1
     7     7     8    1
     8     8     9   am
     9     9    10    2
    10     9    11    1
    11    11    12   ar
    12    12    13    1
    13    12    14   ar
    14    14    15   ar
    15    15    16    1
    16    16    17    2
    17    17    18    1
    18    18    19    2
    19    18    20   am
    20    20    21    1
    21    21    22   ar
    22    22    23   ar
    23    23    24   ar
    24    24    25    1
    25    24    26   ar
    26    26    27   ar
    27    15    28   ar
    28    28    29    1
    29    28    11   ar
    30    27    17    1
    31    27    21   ar
    32     1    30    1
    33     1    31    1
    34     1    32    1
    35     2    33    1
    36     2    34    1
    37     4    35    1
    38     4    36    1
    39     5    37    1
    40     5    38    1
    41     5    39    1
    42     6    40    1
    43     6    41    1
    44     7    42    1
    45     7    43    1
    46     8    44    1
    47    13    45    1
    48    13    46    1
    49    13    47    1
    50    14    48    1
    51    16    49    1
    52    20    50    1
    53    22    51    1
    54    23    52    1
    55    26    53    1
    56    29    54    1
    57    29    55    1
    58    29    56    1
