@<TRIPOS>MOLECULE
*****
 68 74 0 0 0
SMALL
GASTEIGER

@<TRIPOS>ATOM
      1 C          -4.6158    3.5448   -1.8397 C.3     1  UNL1        0.0788
      2 O          -4.7462    2.1942   -1.5501 O.3     1  UNL1       -0.4951
      3 C          -5.6193    1.6139   -0.6492 C.ar    1  UNL1        0.1205
      4 C          -6.4862    2.3837    0.0823 C.ar    1  UNL1       -0.0182
      5 C          -7.3236    1.7369    0.9562 C.ar    1  UNL1       -0.0367
      6 C          -7.3255    0.3599    1.1239 C.ar    1  UNL1        0.0378
      7 C          -6.4594   -0.4243    0.3967 C.ar    1  UNL1       -0.0072
      8 C          -5.6206    0.2255   -0.4801 C.ar    1  UNL1       -0.0140
      9 C          -6.6567   -1.8094    0.7726 C.3     1  UNL1        0.0813
     10 C          -6.6854   -2.9491   -0.1724 C.3     1  UNL1       -0.0262
     11 C          -5.5943   -2.8360    0.8977 C.3     1  UNL1        0.0035
     12 C          -4.2099   -2.5876    0.4766 C.ar    1  UNL1       -0.0409
     13 C          -3.2487   -2.1470    1.3837 C.ar    1  UNL1       -0.0575
     14 C          -1.9330   -1.9363    1.0297 C.ar    1  UNL1       -0.0502
     15 C          -1.5216   -2.1606   -0.2622 C.ar    1  UNL1        0.0268
     16 C          -0.3148   -2.0416   -0.8913 C.ar    1  UNL1        0.0931
     17 C           0.9448   -1.6088   -0.2858 C.2     1  UNL1       -0.0334
     18 C           2.0658   -1.5213   -0.9668 C.2     1  UNL1       -0.0525
     19 C           3.3473   -1.1031   -0.4410 C.ar    1  UNL1       -0.0249
     20 C           3.5514   -0.7395    0.8683 C.ar    1  UNL1       -0.0543
     21 C           4.8053   -0.3560    1.2869 C.ar    1  UNL1       -0.0568
     22 C           5.8660   -0.3269    0.4230 C.ar    1  UNL1       -0.0333
     23 C           7.2005    0.0941    0.9455 C.3     1  UNL1        0.0242
     24 N           7.3043    1.5136    0.8057 N.3     1  UNL1       -0.2938
     25 C           7.1870    2.0084   -0.5323 C.3     1  UNL1        0.0228
     26 C           7.0893    3.5374   -0.4340 C.3     1  UNL1        0.0604
     27 O           8.1669    4.0860    0.2118 O.3     1  UNL1       -0.3772
     28 C           8.4268    3.5230    1.4486 C.3     1  UNL1        0.0604
     29 C           8.5764    2.0215    1.3223 C.3     1  UNL1        0.0228
     30 C           5.6927   -0.6868   -0.9005 C.ar    1  UNL1       -0.0568
     31 C           4.4328   -1.0672   -1.2996 C.ar    1  UNL1       -0.0543
     32 N          -0.5228   -2.4041   -2.1763 N.ar    1  UNL1       -0.1733
     33 N          -1.8104   -2.7374   -2.3458 N.ar    1  UNL1       -0.2764
     34 C          -2.4488   -2.5950   -1.1761 C.ar    1  UNL1        0.0666
     35 C          -3.7573   -2.8005   -0.8067 C.ar    1  UNL1       -0.0328
     36 C          -7.7703   -1.7876    1.7352 C.2     1  UNL1        0.2284
     37 O          -8.2875   -2.7981    2.2590 O.2     1  UNL1       -0.2745
     38 N          -8.1453   -0.4601    1.9600 N.am    1  UNL1       -0.2845
     39 H          -5.5081    4.1559   -1.6587 H       1  UNL1        0.0660
     40 H          -3.7308    4.0188   -1.3233 H       1  UNL1        0.0660
     41 H          -4.3741    3.6403   -2.9367 H       1  UNL1        0.0660
     42 H          -6.4897    3.4463   -0.0416 H       1  UNL1        0.0655
     43 H          -8.0240    2.3253    1.5512 H       1  UNL1        0.0637
     44 H          -4.9065   -0.2868   -1.1068 H       1  UNL1        0.0658
     45 H          -7.4264   -3.7712    0.0196 H       1  UNL1        0.0285
     46 H          -6.4231   -2.8558   -1.2230 H       1  UNL1        0.0285
     47 H          -5.7225   -3.4416    1.8528 H       1  UNL1        0.0362
     48 H          -3.5847   -1.9730    2.4011 H       1  UNL1        0.0621
     49 H          -1.1942   -1.5940    1.7426 H       1  UNL1        0.0625
     50 H           0.9642   -1.3483    0.7607 H       1  UNL1        0.0640
     51 H           1.9815   -1.7981   -2.0259 H       1  UNL1        0.0624
     52 H           2.7175   -0.7579    1.5659 H       1  UNL1        0.0624
     53 H           4.9073   -0.0757    2.3457 H       1  UNL1        0.0621
     54 H           8.0101   -0.4622    0.4270 H       1  UNL1        0.0476
     55 H           7.2222   -0.1533    2.0229 H       1  UNL1        0.0476
     56 H           6.2813    1.6923   -1.0650 H       1  UNL1        0.0449
     57 H           8.0803    1.7372   -1.1525 H       1  UNL1        0.0449
     58 H           6.1193    3.7362    0.0810 H       1  UNL1        0.0572
     59 H           7.0156    3.9843   -1.4345 H       1  UNL1        0.0572
     60 H           9.3945    3.9465    1.7955 H       1  UNL1        0.0572
     61 H           7.6316    3.6990    2.1957 H       1  UNL1        0.0572
     62 H           8.8313    1.6199    2.3026 H       1  UNL1        0.0449
     63 H           9.3840    1.8448    0.5591 H       1  UNL1        0.0449
     64 H           6.5355   -0.6581   -1.5661 H       1  UNL1        0.0621
     65 H           4.2847   -1.3541   -2.3445 H       1  UNL1        0.0624
     66 H          -2.1904   -3.0488   -3.2641 H       1  UNL1        0.1889
     67 H          -4.4417   -3.1402   -1.5559 H       1  UNL1        0.0642
     68 H          -8.8984   -0.0865    2.6239 H       1  UNL1        0.1548
@<TRIPOS>BOND
     1     1     2    1
     2     2     3    1
     3     3     4   ar
     4     4     5   ar
     5     5     6   ar
     6     6     7   ar
     7     7     8   ar
     8     7     9    1
     9     9    10    1
    10    10    11    1
    11    11    12    1
    12    12    13   ar
    13    13    14   ar
    14    14    15   ar
    15    15    16   ar
    16    16    17    1
    17    17    18    2
    18    18    19    1
    19    19    20   ar
    20    20    21   ar
    21    21    22   ar
    22    22    23    1
    23    23    24    1
    24    24    25    1
    25    25    26    1
    26    26    27    1
    27    27    28    1
    28    28    29    1
    29    22    30   ar
    30    30    31   ar
    31    16    32   ar
    32    32    33   ar
    33    33    34   ar
    34    34    35   ar
    35     9    36    1
    36    36    37    2
    37    36    38   am
    38     8     3   ar
    39    11     9    1
    40    35    12   ar
    41    38     6    1
    42    34    15   ar
    43    31    19   ar
    44    29    24    1
    45     1    39    1
    46     1    40    1
    47     1    41    1
    48     4    42    1
    49     5    43    1
    50     8    44    1
    51    10    45    1
    52    10    46    1
    53    11    47    1
    54    13    48    1
    55    14    49    1
    56    17    50    1
    57    18    51    1
    58    20    52    1
    59    21    53    1
    60    23    54    1
    61    23    55    1
    62    25    56    1
    63    25    57    1
    64    26    58    1
    65    26    59    1
    66    28    60    1
    67    28    61    1
    68    29    62    1
    69    29    63    1
    70    30    64    1
    71    31    65    1
    72    33    66    1
    73    35    67    1
    74    38    68    1
