
     RDKit          3D

 68 74  0  0  0  0  0  0  0  0999 V2000
   -4.6158    3.5448   -1.8397 C   0  0  0  0  0  0  0  0  0  0  0  0
   -4.7462    2.1942   -1.5501 O   0  0  0  0  0  0  0  0  0  0  0  0
   -5.6193    1.6139   -0.6492 C   0  0  0  0  0  0  0  0  0  0  0  0
   -6.4862    2.3837    0.0823 C   0  0  0  0  0  0  0  0  0  0  0  0
   -7.3236    1.7369    0.9562 C   0  0  0  0  0  0  0  0  0  0  0  0
   -7.3255    0.3599    1.1239 C   0  0  0  0  0  0  0  0  0  0  0  0
   -6.4594   -0.4243    0.3967 C   0  0  0  0  0  0  0  0  0  0  0  0
   -5.6206    0.2255   -0.4801 C   0  0  0  0  0  0  0  0  0  0  0  0
   -6.6567   -1.8094    0.7726 C   0  0  1  0  0  0  0  0  0  0  0  0
   -6.6854   -2.9491   -0.1724 C   0  0  0  0  0  0  0  0  0  0  0  0
   -5.5943   -2.8360    0.8977 C   0  0  1  0  0  0  0  0  0  0  0  0
   -4.2099   -2.5876    0.4766 C   0  0  0  0  0  0  0  0  0  0  0  0
   -3.2487   -2.1470    1.3837 C   0  0  0  0  0  0  0  0  0  0  0  0
   -1.9330   -1.9363    1.0297 C   0  0  0  0  0  0  0  0  0  0  0  0
   -1.5216   -2.1606   -0.2622 C   0  0  0  0  0  0  0  0  0  0  0  0
   -0.3148   -2.0416   -0.8913 C   0  0  0  0  0  0  0  0  0  0  0  0
    0.9448   -1.6088   -0.2858 C   0  0  0  0  0  0  0  0  0  0  0  0
    2.0658   -1.5213   -0.9668 C   0  0  0  0  0  0  0  0  0  0  0  0
    3.3473   -1.1031   -0.4410 C   0  0  0  0  0  0  0  0  0  0  0  0
    3.5514   -0.7395    0.8683 C   0  0  0  0  0  0  0  0  0  0  0  0
    4.8053   -0.3560    1.2869 C   0  0  0  0  0  0  0  0  0  0  0  0
    5.8660   -0.3269    0.4230 C   0  0  0  0  0  0  0  0  0  0  0  0
    7.2005    0.0941    0.9455 C   0  0  0  0  0  0  0  0  0  0  0  0
    7.3043    1.5136    0.8057 N   0  0  0  0  0  0  0  0  0  0  0  0
    7.1870    2.0084   -0.5323 C   0  0  0  0  0  0  0  0  0  0  0  0
    7.0893    3.5374   -0.4340 C   0  0  0  0  0  0  0  0  0  0  0  0
    8.1669    4.0860    0.2118 O   0  0  0  0  0  0  0  0  0  0  0  0
    8.4268    3.5230    1.4486 C   0  0  0  0  0  0  0  0  0  0  0  0
    8.5764    2.0215    1.3223 C   0  0  0  0  0  0  0  0  0  0  0  0
    5.6927   -0.6868   -0.9005 C   0  0  0  0  0  0  0  0  0  0  0  0
    4.4328   -1.0672   -1.2996 C   0  0  0  0  0  0  0  0  0  0  0  0
   -0.5228   -2.4041   -2.1763 N   0  0  0  0  0  0  0  0  0  0  0  0
   -1.8104   -2.7374   -2.3458 N   0  0  0  0  0  0  0  0  0  0  0  0
   -2.4488   -2.5950   -1.1761 C   0  0  0  0  0  0  0  0  0  0  0  0
   -3.7573   -2.8005   -0.8067 C   0  0  0  0  0  0  0  0  0  0  0  0
   -7.7703   -1.7876    1.7352 C   0  0  0  0  0  0  0  0  0  0  0  0
   -8.2875   -2.7981    2.2590 O   0  0  0  0  0  0  0  0  0  0  0  0
   -8.1453   -0.4601    1.9600 N   0  0  0  0  0  0  0  0  0  0  0  0
   -5.5081    4.1559   -1.6587 H   0  0  0  0  0  0  0  0  0  0  0  0
   -3.7308    4.0188   -1.3233 H   0  0  0  0  0  0  0  0  0  0  0  0
   -4.3741    3.6403   -2.9367 H   0  0  0  0  0  0  0  0  0  0  0  0
   -6.4897    3.4463   -0.0416 H   0  0  0  0  0  0  0  0  0  0  0  0
   -8.0240    2.3253    1.5512 H   0  0  0  0  0  0  0  0  0  0  0  0
   -4.9065   -0.2868   -1.1068 H   0  0  0  0  0  0  0  0  0  0  0  0
   -7.4264   -3.7712    0.0196 H   0  0  0  0  0  0  0  0  0  0  0  0
   -6.4231   -2.8558   -1.2230 H   0  0  0  0  0  0  0  0  0  0  0  0
   -5.7225   -3.4416    1.8528 H   0  0  0  0  0  0  0  0  0  0  0  0
   -3.5847   -1.9730    2.4011 H   0  0  0  0  0  0  0  0  0  0  0  0
   -1.1942   -1.5940    1.7426 H   0  0  0  0  0  0  0  0  0  0  0  0
    0.9642   -1.3483    0.7607 H   0  0  0  0  0  0  0  0  0  0  0  0
    1.9815   -1.7981   -2.0259 H   0  0  0  0  0  0  0  0  0  0  0  0
    2.7175   -0.7579    1.5659 H   0  0  0  0  0  0  0  0  0  0  0  0
    4.9073   -0.0757    2.3457 H   0  0  0  0  0  0  0  0  0  0  0  0
    8.0101   -0.4622    0.4270 H   0  0  0  0  0  0  0  0  0  0  0  0
    7.2222   -0.1533    2.0229 H   0  0  0  0  0  0  0  0  0  0  0  0
    6.2813    1.6923   -1.0650 H   0  0  0  0  0  0  0  0  0  0  0  0
    8.0803    1.7372   -1.1525 H   0  0  0  0  0  0  0  0  0  0  0  0
    6.1193    3.7362    0.0810 H   0  0  0  0  0  0  0  0  0  0  0  0
    7.0156    3.9843   -1.4345 H   0  0  0  0  0  0  0  0  0  0  0  0
    9.3945    3.9465    1.7955 H   0  0  0  0  0  0  0  0  0  0  0  0
    7.6316    3.6990    2.1957 H   0  0  0  0  0  0  0  0  0  0  0  0
    8.8313    1.6199    2.3026 H   0  0  0  0  0  0  0  0  0  0  0  0
    9.3840    1.8448    0.5591 H   0  0  0  0  0  0  0  0  0  0  0  0
    6.5355   -0.6581   -1.5661 H   0  0  0  0  0  0  0  0  0  0  0  0
    4.2847   -1.3541   -2.3445 H   0  0  0  0  0  0  0  0  0  0  0  0
   -2.1904   -3.0488   -3.2641 H   0  0  0  0  0  0  0  0  0  0  0  0
   -4.4417   -3.1402   -1.5559 H   0  0  0  0  0  0  0  0  0  0  0  0
   -8.8984   -0.0865    2.6239 H   0  0  0  0  0  0  0  0  0  0  0  0
  1  2  1  0
  2  3  1  0
  3  4  2  0
  4  5  1  0
  5  6  2  0
  6  7  1  0
  7  8  2  0
  7  9  1  0
  9 10  1  6
 10 11  1  0
 11 12  1  0
 12 13  2  0
 13 14  1  0
 14 15  2  0
 15 16  1  0
 16 17  1  0
 17 18  2  0
 18 19  1  0
 19 20  2  0
 20 21  1  0
 21 22  2  0
 22 23  1  0
 23 24  1  0
 24 25  1  0
 25 26  1  0
 26 27  1  0
 27 28  1  0
 28 29  1  0
 22 30  1  0
 30 31  2  0
 16 32  2  0
 32 33  1  0
 33 34  1  0
 34 35  2  0
  9 36  1  0
 36 37  2  0
 36 38  1  0
  8  3  1  0
 11  9  1  0
 35 12  1  0
 38  6  1  0
 34 15  1  0
 31 19  1  0
 29 24  1  0
  1 39  1  0
  1 40  1  0
  1 41  1  0
  4 42  1  0
  5 43  1  0
  8 44  1  0
 10 45  1  0
 10 46  1  0
 11 47  1  1
 13 48  1  0
 14 49  1  0
 17 50  1  0
 18 51  1  0
 20 52  1  0
 21 53  1  0
 23 54  1  0
 23 55  1  0
 25 56  1  0
 25 57  1  0
 26 58  1  0
 26 59  1  0
 28 60  1  0
 28 61  1  0
 29 62  1  0
 29 63  1  0
 30 64  1  0
 31 65  1  0
 33 66  1  0
 35 67  1  0
 38 68  1  0
M  END
$$$$
