
     RDKit          3D

 52 55  0  0  0  0  0  0  0  0999 V2000
   -1.3519    0.8273   -0.4931 C   0  0  2  0  0  0  0  0  0  0  0  0
   -2.1825    1.9804   -0.0182 C   0  0  0  0  0  0  0  0  0  0  0  0
   -3.5612    1.4526   -0.4382 C   0  0  0  0  0  0  0  0  0  0  0  0
   -3.4793   -0.0247   -0.0491 C   0  0  2  0  0  0  0  0  0  0  0  0
   -4.1007   -0.9224   -1.0642 C   0  0  0  0  0  0  0  0  0  0  0  0
   -4.1996   -0.1305    1.1373 O   0  0  0  0  0  0  0  0  0  0  0  0
   -2.0348   -0.3301    0.2096 C   0  0  2  0  0  0  0  0  0  0  0  0
   -1.7600   -0.4051    1.6736 C   0  0  0  0  0  0  0  0  0  0  0  0
   -1.5502   -1.5668   -0.5078 C   0  0  0  0  0  0  0  0  0  0  0  0
   -0.0655   -1.6789   -0.4199 C   0  0  0  0  0  0  0  0  0  0  0  0
    0.6881   -0.4269   -0.6823 C   0  0  1  0  0  0  0  0  0  0  0  0
    0.0686    0.8058   -0.0748 C   0  0  1  0  0  0  0  0  0  0  0  0
    0.8555    2.0110   -0.5347 C   0  0  0  0  0  0  0  0  0  0  0  0
    2.2039    1.9378    0.1538 C   0  0  0  0  0  0  0  0  0  0  0  0
    2.8979    0.7184   -0.4028 C   0  0  1  0  0  0  0  0  0  0  0  0
    4.2576    0.5598    0.2037 C   0  0  0  0  0  0  0  0  0  0  0  0
    4.8137   -0.7977   -0.0204 C   0  0  0  0  0  0  0  0  0  0  0  0
    5.7560   -1.1561    0.7299 O   0  0  0  0  0  0  0  0  0  0  0  0
    4.1707   -1.4573   -1.0587 O   0  0  0  0  0  0  0  0  0  0  0  0
    2.7641   -1.5986   -1.0891 C   0  0  0  0  0  0  0  0  0  0  0  0
    2.1052   -0.5444   -0.1879 C   0  0  2  0  0  0  0  0  0  0  0  0
    2.1851   -1.0294    1.2350 C   0  0  0  0  0  0  0  0  0  0  0  0
   -1.5250    0.7214   -1.5681 H   0  0  0  0  0  0  0  0  0  0  0  0
   -1.9874    2.9375   -0.5029 H   0  0  0  0  0  0  0  0  0  0  0  0
   -2.2218    2.1045    1.0742 H   0  0  0  0  0  0  0  0  0  0  0  0
   -3.5894    1.4382   -1.5580 H   0  0  0  0  0  0  0  0  0  0  0  0
   -4.3879    1.9812    0.0328 H   0  0  0  0  0  0  0  0  0  0  0  0
   -3.7185   -0.7597   -2.0943 H   0  0  0  0  0  0  0  0  0  0  0  0
   -5.2015   -0.8624   -1.0177 H   0  0  0  0  0  0  0  0  0  0  0  0
   -3.8335   -1.9542   -0.7969 H   0  0  0  0  0  0  0  0  0  0  0  0
   -4.4894    0.7176    1.5194 H   0  0  0  0  0  0  0  0  0  0  0  0
   -0.9890   -1.1784    1.9301 H   0  0  0  0  0  0  0  0  0  0  0  0
   -2.7067   -0.7581    2.1776 H   0  0  0  0  0  0  0  0  0  0  0  0
   -1.5145    0.5360    2.1706 H   0  0  0  0  0  0  0  0  0  0  0  0
   -1.8662   -1.4770   -1.5764 H   0  0  0  0  0  0  0  0  0  0  0  0
   -1.9975   -2.4408   -0.0225 H   0  0  0  0  0  0  0  0  0  0  0  0
    0.1905   -2.2005    0.5267 H   0  0  0  0  0  0  0  0  0  0  0  0
    0.2360   -2.4091   -1.2264 H   0  0  0  0  0  0  0  0  0  0  0  0
    0.7222   -0.2635   -1.7821 H   0  0  0  0  0  0  0  0  0  0  0  0
    0.1501    0.7400    1.0094 H   0  0  0  0  0  0  0  0  0  0  0  0
    0.3449    2.9659   -0.3900 H   0  0  0  0  0  0  0  0  0  0  0  0
    1.0770    1.8341   -1.6229 H   0  0  0  0  0  0  0  0  0  0  0  0
    2.0699    1.7833    1.2444 H   0  0  0  0  0  0  0  0  0  0  0  0
    2.8422    2.8101   -0.0785 H   0  0  0  0  0  0  0  0  0  0  0  0
    3.0307    0.8729   -1.4970 H   0  0  0  0  0  0  0  0  0  0  0  0
    4.9676    1.2534   -0.3355 H   0  0  0  0  0  0  0  0  0  0  0  0
    4.3216    0.8970    1.2616 H   0  0  0  0  0  0  0  0  0  0  0  0
    2.3593   -1.4282   -2.1178 H   0  0  0  0  0  0  0  0  0  0  0  0
    2.5068   -2.6168   -0.7413 H   0  0  0  0  0  0  0  0  0  0  0  0
    1.3528   -0.6567    1.8835 H   0  0  0  0  0  0  0  0  0  0  0  0
    3.1060   -0.6663    1.7522 H   0  0  0  0  0  0  0  0  0  0  0  0
    2.2698   -2.1457    1.2862 H   0  0  0  0  0  0  0  0  0  0  0  0
  1  2  1  0
  2  3  1  0
  3  4  1  0
  4  5  1  0
  4  6  1  1
  4  7  1  0
  7  8  1  1
  7  9  1  0
  9 10  1  0
 10 11  1  0
 11 12  1  0
 12 13  1  0
 13 14  1  0
 14 15  1  0
 15 16  1  0
 16 17  1  0
 17 18  2  0
 17 19  1  0
 19 20  1  0
 20 21  1  0
 21 22  1  1
  7  1  1  0
 21 11  1  0
 12  1  1  0
 21 15  1  0
  1 23  1  6
  2 24  1  0
  2 25  1  0
  3 26  1  0
  3 27  1  0
  5 28  1  0
  5 29  1  0
  5 30  1  0
  6 31  1  0
  8 32  1  0
  8 33  1  0
  8 34  1  0
  9 35  1  0
  9 36  1  0
 10 37  1  0
 10 38  1  0
 11 39  1  6
 12 40  1  1
 13 41  1  0
 13 42  1  0
 14 43  1  0
 14 44  1  0
 15 45  1  6
 16 46  1  0
 16 47  1  0
 20 48  1  0
 20 49  1  0
 22 50  1  0
 22 51  1  0
 22 52  1  0
M  END
$$$$
