@<TRIPOS>MOLECULE
*****
 52 55 0 0 0
SMALL
GASTEIGER

@<TRIPOS>ATOM
      1 C          -1.3519    0.8273   -0.4931 C.3     1  UNL1       -0.0298
      2 C          -2.1825    1.9804   -0.0182 C.3     1  UNL1       -0.0468
      3 C          -3.5612    1.4526   -0.4382 C.3     1  UNL1       -0.0235
      4 C          -3.4793   -0.0247   -0.0491 C.3     1  UNL1        0.0689
      5 C          -4.1007   -0.9224   -1.0642 C.3     1  UNL1       -0.0356
      6 O          -4.1996   -0.1305    1.1373 O.3     1  UNL1       -0.3883
      7 C          -2.0348   -0.3301    0.2096 C.3     1  UNL1       -0.0004
      8 C          -1.7600   -0.4051    1.6736 C.3     1  UNL1       -0.0567
      9 C          -1.5502   -1.5668   -0.5078 C.3     1  UNL1       -0.0445
     10 C          -0.0655   -1.6789   -0.4199 C.3     1  UNL1       -0.0487
     11 C           0.6881   -0.4269   -0.6823 C.3     1  UNL1       -0.0292
     12 C           0.0686    0.8058   -0.0748 C.3     1  UNL1       -0.0342
     13 C           0.8555    2.0110   -0.5347 C.3     1  UNL1       -0.0494
     14 C           2.2039    1.9378    0.1538 C.3     1  UNL1       -0.0488
     15 C           2.8979    0.7184   -0.4028 C.3     1  UNL1       -0.0222
     16 C           4.2576    0.5598    0.2037 C.3     1  UNL1        0.0484
     17 C           4.8137   -0.7977   -0.0204 C.2     1  UNL1        0.3074
     18 O           5.7560   -1.1561    0.7299 O.2     1  UNL1       -0.2508
     19 O           4.1707   -1.4573   -1.0587 O.3     1  UNL1       -0.4641
     20 C           2.7641   -1.5986   -1.0891 C.3     1  UNL1        0.0983
     21 C           2.1052   -0.5444   -0.1879 C.3     1  UNL1        0.0085
     22 C           2.1851   -1.0294    1.2350 C.3     1  UNL1       -0.0559
     23 H          -1.5250    0.7214   -1.5681 H       1  UNL1        0.0310
     24 H          -1.9874    2.9375   -0.5029 H       1  UNL1        0.0269
     25 H          -2.2218    2.1045    1.0742 H       1  UNL1        0.0269
     26 H          -3.5894    1.4382   -1.5580 H       1  UNL1        0.0293
     27 H          -4.3879    1.9812    0.0328 H       1  UNL1        0.0293
     28 H          -3.7185   -0.7597   -2.0943 H       1  UNL1        0.0257
     29 H          -5.2015   -0.8624   -1.0177 H       1  UNL1        0.0257
     30 H          -3.8335   -1.9542   -0.7969 H       1  UNL1        0.0257
     31 H          -4.4894    0.7176    1.5194 H       1  UNL1        0.2102
     32 H          -0.9890   -1.1784    1.9301 H       1  UNL1        0.0236
     33 H          -2.7067   -0.7581    2.1776 H       1  UNL1        0.0236
     34 H          -1.5145    0.5360    2.1706 H       1  UNL1        0.0236
     35 H          -1.8662   -1.4770   -1.5764 H       1  UNL1        0.0272
     36 H          -1.9975   -2.4408   -0.0225 H       1  UNL1        0.0272
     37 H           0.1905   -2.2005    0.5267 H       1  UNL1        0.0268
     38 H           0.2360   -2.4091   -1.2264 H       1  UNL1        0.0268
     39 H           0.7222   -0.2635   -1.7821 H       1  UNL1        0.0310
     40 H           0.1501    0.7400    1.0094 H       1  UNL1        0.0306
     41 H           0.3449    2.9659   -0.3900 H       1  UNL1        0.0268
     42 H           1.0770    1.8341   -1.6229 H       1  UNL1        0.0268
     43 H           2.0699    1.7833    1.2444 H       1  UNL1        0.0268
     44 H           2.8422    2.8101   -0.0785 H       1  UNL1        0.0268
     45 H           3.0307    0.8729   -1.4970 H       1  UNL1        0.0312
     46 H           4.9676    1.2534   -0.3355 H       1  UNL1        0.0380
     47 H           4.3216    0.8970    1.2616 H       1  UNL1        0.0380
     48 H           2.3593   -1.4282   -2.1178 H       1  UNL1        0.0703
     49 H           2.5068   -2.6168   -0.7413 H       1  UNL1        0.0703
     50 H           1.3528   -0.6567    1.8835 H       1  UNL1        0.0236
     51 H           3.1060   -0.6663    1.7522 H       1  UNL1        0.0236
     52 H           2.2698   -2.1457    1.2862 H       1  UNL1        0.0236
@<TRIPOS>BOND
     1     1     2    1
     2     2     3    1
     3     3     4    1
     4     4     5    1
     5     4     6    1
     6     4     7    1
     7     7     8    1
     8     7     9    1
     9     9    10    1
    10    10    11    1
    11    11    12    1
    12    12    13    1
    13    13    14    1
    14    14    15    1
    15    15    16    1
    16    16    17    1
    17    17    18    2
    18    17    19    1
    19    19    20    1
    20    20    21    1
    21    21    22    1
    22     7     1    1
    23    21    11    1
    24    12     1    1
    25    21    15    1
    26     1    23    1
    27     2    24    1
    28     2    25    1
    29     3    26    1
    30     3    27    1
    31     5    28    1
    32     5    29    1
    33     5    30    1
    34     6    31    1
    35     8    32    1
    36     8    33    1
    37     8    34    1
    38     9    35    1
    39     9    36    1
    40    10    37    1
    41    10    38    1
    42    11    39    1
    43    12    40    1
    44    13    41    1
    45    13    42    1
    46    14    43    1
    47    14    44    1
    48    15    45    1
    49    16    46    1
    50    16    47    1
    51    20    48    1
    52    20    49    1
    53    22    50    1
    54    22    51    1
    55    22    52    1
