@<TRIPOS>MOLECULE
*****
 74 78 0 0 0
SMALL
GASTEIGER

@<TRIPOS>ATOM
      1 C          -5.8242    2.6269   -2.0947 C.3     1  UNL1       -0.0045
      2 C          -6.5502    1.8539   -1.0543 C.ar    1  UNL1        0.1258
      3 O          -7.5840    1.0745   -1.2797 O.2     1  UNL1       -0.4402
      4 C          -8.0086    0.5279   -0.1633 C.ar    1  UNL1        0.2276
      5 C          -9.1277   -0.3915   -0.0064 C.ar    1  UNL1        0.0369
      6 C          -9.4475   -0.8784    1.2425 C.ar    1  UNL1       -0.0495
      7 C         -10.4989   -1.7474    1.4051 C.ar    1  UNL1       -0.0610
      8 C         -11.2381   -2.1341    0.3099 C.ar    1  UNL1       -0.0617
      9 C         -10.9492   -1.6668   -0.9660 C.ar    1  UNL1       -0.0610
     10 C          -9.8868   -0.7976   -1.0819 C.ar    1  UNL1       -0.0495
     11 N          -7.2119    0.9767    0.8225 N.ar    1  UNL1       -0.2136
     12 C          -6.2962    1.8026    0.2965 C.ar    1  UNL1        0.0860
     13 C          -5.2369    2.4869    1.0685 C.3     1  UNL1        0.0272
     14 C          -3.9020    1.7829    0.8849 C.3     1  UNL1        0.0951
     15 O          -3.5578    1.7945   -0.4786 O.3     1  UNL1       -0.4916
     16 C          -2.3784    1.2004   -0.8819 C.ar    1  UNL1        0.1208
     17 C          -1.9959    1.1861   -2.2108 C.ar    1  UNL1       -0.0199
     18 C          -0.8206    0.5836   -2.5475 C.ar    1  UNL1       -0.0580
     19 C          -0.0200   -0.0047   -1.5843 C.ar    1  UNL1       -0.0583
     20 C          -0.3734   -0.0078   -0.2464 C.ar    1  UNL1       -0.0431
     21 C           0.5171   -0.6508    0.7313 C.3     1  UNL1       -0.0142
     22 C           1.5550    0.2978    1.2956 C.3     1  UNL1        0.0693
     23 C           2.4565    0.8896    0.2951 C.2     1  UNL1        0.2263
     24 O           2.3361    1.7639   -0.6273 O.2     1  UNL1       -0.2748
     25 N           3.5639    0.1262    0.7172 N.am    1  UNL1       -0.2566
     26 C           4.9152   -0.0714    0.2410 C.ar    1  UNL1        0.0372
     27 C           5.7718   -0.8859    0.9211 C.ar    1  UNL1       -0.0400
     28 C           7.0700   -1.0613    0.4316 C.ar    1  UNL1       -0.0563
     29 C           7.5277   -0.4463   -0.7126 C.ar    1  UNL1       -0.0419
     30 C           8.9166   -0.6663   -1.1926 C.3     1  UNL1       -0.0127
     31 C           9.1974    0.1078   -2.4598 C.3     1  UNL1       -0.0560
     32 C           9.0764   -2.1493   -1.4898 C.3     1  UNL1       -0.0560
     33 C           9.8587   -0.2951   -0.0808 C.3     1  UNL1       -0.0560
     34 C           6.6353    0.3723   -1.3778 C.ar    1  UNL1       -0.0563
     35 C           5.3499    0.5559   -0.9075 C.ar    1  UNL1       -0.0400
     36 C           2.8013   -0.3759    1.8078 C.3     1  UNL1        0.1388
     37 C           2.6880   -1.8534    1.9300 C.2     1  UNL1        0.3266
     38 O           2.0500   -2.3169    2.9116 O.2     1  UNL1       -0.2489
     39 O           3.2305   -2.7533    1.0461 O.3     1  UNL1       -0.4793
     40 C          -1.5630    0.6072    0.0601 C.ar    1  UNL1       -0.0167
     41 H          -5.3080    3.5207   -1.6867 H       1  UNL1        0.0308
     42 H          -5.1537    2.0028   -2.6956 H       1  UNL1        0.0308
     43 H          -6.6071    2.9968   -2.8199 H       1  UNL1        0.0308
     44 H          -8.8836   -0.5881    2.1031 H       1  UNL1        0.0625
     45 H         -10.7428   -2.1231    2.3820 H       1  UNL1        0.0618
     46 H         -12.0685   -2.8130    0.3954 H       1  UNL1        0.0618
     47 H         -11.5415   -1.9817   -1.8155 H       1  UNL1        0.0618
     48 H          -9.6095   -0.3963   -2.0518 H       1  UNL1        0.0625
     49 H          -5.1477    3.5432    0.7176 H       1  UNL1        0.0362
     50 H          -5.4659    2.4422    2.1530 H       1  UNL1        0.0362
     51 H          -3.9150    0.7665    1.3110 H       1  UNL1        0.0700
     52 H          -3.1646    2.3882    1.4876 H       1  UNL1        0.0700
     53 H          -2.6614    1.6640   -2.9377 H       1  UNL1        0.0654
     54 H          -0.5116    0.5688   -3.5993 H       1  UNL1        0.0619
     55 H           0.8964   -0.4632   -1.9225 H       1  UNL1        0.0620
     56 H           1.0563   -1.5136    0.3094 H       1  UNL1        0.0321
     57 H          -0.0908   -1.0061    1.5674 H       1  UNL1        0.0321
     58 H           1.1247    0.9650    2.0471 H       1  UNL1        0.0421
     59 H           5.4642   -1.4020    1.8437 H       1  UNL1        0.0636
     60 H           7.7327   -1.7217    1.0011 H       1  UNL1        0.0621
     61 H          10.1739   -0.2476   -2.8683 H       1  UNL1        0.0238
     62 H           9.3283    1.1914   -2.2720 H       1  UNL1        0.0238
     63 H           8.4514   -0.0728   -3.2310 H       1  UNL1        0.0238
     64 H           9.0773   -2.6943   -0.5261 H       1  UNL1        0.0238
     65 H           8.2601   -2.4997   -2.1678 H       1  UNL1        0.0238
     66 H          10.0803   -2.3189   -1.9438 H       1  UNL1        0.0238
     67 H           9.4833    0.6278    0.4069 H       1  UNL1        0.0238
     68 H           9.7480   -1.1003    0.7022 H       1  UNL1        0.0238
     69 H          10.9127   -0.2005   -0.4137 H       1  UNL1        0.0238
     70 H           6.9255    0.8874   -2.2824 H       1  UNL1        0.0621
     71 H           4.6211    1.1923   -1.4046 H       1  UNL1        0.0636
     72 H           3.1640    0.0613    2.7665 H       1  UNL1        0.0628
     73 H           3.1850   -3.7545    1.2326 H       1  UNL1        0.2951
     74 H          -1.8589    0.6155    1.1072 H       1  UNL1        0.0657
@<TRIPOS>BOND
     1     1     2    1
     2     2     3   ar
     3     3     4   ar
     4     4     5    1
     5     5     6   ar
     6     6     7   ar
     7     7     8   ar
     8     8     9   ar
     9     9    10   ar
    10     4    11   ar
    11    11    12   ar
    12    12    13    1
    13    13    14    1
    14    14    15    1
    15    15    16    1
    16    16    17   ar
    17    17    18   ar
    18    18    19   ar
    19    19    20   ar
    20    20    21    1
    21    21    22    1
    22    22    23    1
    23    23    24    2
    24    23    25   am
    25    25    26    1
    26    26    27   ar
    27    27    28   ar
    28    28    29   ar
    29    29    30    1
    30    30    31    1
    31    30    32    1
    32    30    33    1
    33    29    34   ar
    34    34    35   ar
    35    25    36    1
    36    36    37    1
    37    37    38    2
    38    37    39    1
    39    20    40   ar
    40    12     2   ar
    41    40    16   ar
    42    10     5   ar
    43    36    22    1
    44    35    26   ar
    45     1    41    1
    46     1    42    1
    47     1    43    1
    48     6    44    1
    49     7    45    1
    50     8    46    1
    51     9    47    1
    52    10    48    1
    53    13    49    1
    54    13    50    1
    55    14    51    1
    56    14    52    1
    57    17    53    1
    58    18    54    1
    59    19    55    1
    60    21    56    1
    61    21    57    1
    62    22    58    1
    63    27    59    1
    64    28    60    1
    65    31    61    1
    66    31    62    1
    67    31    63    1
    68    32    64    1
    69    32    65    1
    70    32    66    1
    71    33    67    1
    72    33    68    1
    73    33    69    1
    74    34    70    1
    75    35    71    1
    76    36    72    1
    77    39    73    1
    78    40    74    1
