@<TRIPOS>MOLECULE
*****
 55 58 0 0 0
SMALL
GASTEIGER

@<TRIPOS>ATOM
      1 C          -5.5183    2.1233   -1.0682 C.3     1  UNL1       -0.0560
      2 C          -5.2947    1.1293    0.0531 C.3     1  UNL1       -0.0127
      3 C          -6.2790   -0.0028   -0.1546 C.3     1  UNL1       -0.0560
      4 C          -5.6873    1.8073    1.3662 C.3     1  UNL1       -0.0560
      5 C          -3.9007    0.6720    0.1271 C.ar    1  UNL1       -0.0418
      6 C          -3.5408   -0.2249    1.0849 C.ar    1  UNL1       -0.0561
      7 C          -2.2342   -0.6998    1.2101 C.ar    1  UNL1       -0.0375
      8 C          -1.2611   -0.2527    0.3380 C.ar    1  UNL1        0.0475
      9 N           0.0656   -0.7411    0.4726 N.ar    1  UNL1       -0.3004
     10 C           1.1300   -0.0897    0.9961 C.ar    1  UNL1        0.1750
     11 C           1.0583    1.2529    1.5430 C.2     1  UNL1        0.3575
     12 O           2.0307    1.8434    2.0526 O.2     1  UNL1       -0.2433
     13 O          -0.1461    1.9788    1.5263 O.3     1  UNL1       -0.4760
     14 C           2.2389   -0.8966    0.9473 C.ar    1  UNL1        0.1683
     15 O           3.5256   -0.6312    1.3633 O.3     1  UNL1       -0.4530
     16 C           4.5905   -0.2750    0.5432 C.ar    1  UNL1        0.1291
     17 C           5.5506   -1.2383    0.2064 C.ar    1  UNL1       -0.0193
     18 C           6.6075   -0.9130   -0.6021 C.ar    1  UNL1       -0.0578
     19 C           6.7392    0.3722   -1.0954 C.ar    1  UNL1       -0.0499
     20 C           5.8026    1.3198   -0.7688 C.ar    1  UNL1        0.0583
     21 C           5.8783    2.7292   -1.2636 C.3     1  UNL1        0.4175
     22 F           5.8321    3.5478   -0.1531 F       1  UNL1       -0.1659
     23 F           4.7436    2.9793   -2.0008 F       1  UNL1       -0.1659
     24 F           7.0254    2.8618   -1.9893 F       1  UNL1       -0.1659
     25 C           4.7136    1.0023    0.0582 C.ar    1  UNL1       -0.0077
     26 C           1.7815   -2.0828    0.3632 C.ar    1  UNL1        0.0448
     27 C           2.3872   -3.2801    0.0401 C.ar    1  UNL1       -0.0307
     28 C           1.6909   -4.3208   -0.5438 C.ar    1  UNL1        0.0418
     29 CL          2.5055   -5.8166   -0.9334 Cl      1  UNL1       -0.0835
     30 C           0.3493   -4.1899   -0.8242 C.ar    1  UNL1       -0.0414
     31 C          -0.2880   -3.0152   -0.5174 C.ar    1  UNL1       -0.0357
     32 C           0.4307   -1.9836    0.0684 C.ar    1  UNL1        0.0583
     33 C          -1.6226    0.6561   -0.6337 C.ar    1  UNL1       -0.0375
     34 C          -2.9164    1.1182   -0.7477 C.ar    1  UNL1       -0.0561
     35 H          -6.5856    2.4360   -0.9994 H       1  UNL1        0.0238
     36 H          -5.3133    1.6083   -2.0133 H       1  UNL1        0.0238
     37 H          -4.8777    3.0180   -0.9456 H       1  UNL1        0.0238
     38 H          -6.3539   -0.2656   -1.2301 H       1  UNL1        0.0238
     39 H          -7.2780    0.4020    0.1720 H       1  UNL1        0.0238
     40 H          -6.0322   -0.8546    0.4904 H       1  UNL1        0.0238
     41 H          -6.6717    2.2506    1.2182 H       1  UNL1        0.0238
     42 H          -5.7982    0.9960    2.1230 H       1  UNL1        0.0238
     43 H          -4.9028    2.5209    1.6809 H       1  UNL1        0.0238
     44 H          -4.2823   -0.5875    1.7758 H       1  UNL1        0.0621
     45 H          -2.0069   -1.4224    2.0032 H       1  UNL1        0.0638
     46 H          -0.1061    3.0027    1.5022 H       1  UNL1        0.2955
     47 H           5.4576   -2.2479    0.6005 H       1  UNL1        0.0654
     48 H           7.3744   -1.6511   -0.8815 H       1  UNL1        0.0619
     49 H           7.5546    0.6832   -1.7380 H       1  UNL1        0.0623
     50 H           3.9901    1.7766    0.2930 H       1  UNL1        0.0660
     51 H           3.4394   -3.3557    0.2749 H       1  UNL1        0.0640
     52 H          -0.2001   -5.0288   -1.2921 H       1  UNL1        0.0633
     53 H          -1.3254   -2.8662   -0.7153 H       1  UNL1        0.0639
     54 H          -0.8486    1.0086   -1.3234 H       1  UNL1        0.0638
     55 H          -3.2218    1.8372   -1.5098 H       1  UNL1        0.0621
@<TRIPOS>BOND
     1     1     2    1
     2     2     3    1
     3     2     4    1
     4     2     5    1
     5     5     6   ar
     6     6     7   ar
     7     7     8   ar
     8     8     9    1
     9     9    10   ar
    10    10    11    1
    11    11    12    2
    12    11    13    1
    13    10    14   ar
    14    14    15    1
    15    15    16    1
    16    16    17   ar
    17    17    18   ar
    18    18    19   ar
    19    19    20   ar
    20    20    21    1
    21    21    22    1
    22    21    23    1
    23    21    24    1
    24    20    25   ar
    25    14    26   ar
    26    26    27   ar
    27    27    28   ar
    28    28    29    1
    29    28    30   ar
    30    30    31   ar
    31    31    32   ar
    32     8    33   ar
    33    33    34   ar
    34    34     5   ar
    35    32     9   ar
    36    25    16   ar
    37    32    26   ar
    38     1    35    1
    39     1    36    1
    40     1    37    1
    41     3    38    1
    42     3    39    1
    43     3    40    1
    44     4    41    1
    45     4    42    1
    46     4    43    1
    47     6    44    1
    48     7    45    1
    49    13    46    1
    50    17    47    1
    51    18    48    1
    52    19    49    1
    53    25    50    1
    54    27    51    1
    55    30    52    1
    56    31    53    1
    57    33    54    1
    58    34    55    1
