
     RDKit          3D

 32 34  0  0  0  0  0  0  0  0999 V2000
   -4.4673    1.7223    0.2950 C   0  0  0  0  0  0  0  0  0  0  0  0
   -4.2677    0.2295    0.3504 C   0  0  0  0  0  0  0  0  0  0  0  0
   -2.8947   -0.1516    0.5051 N   0  0  0  0  0  0  0  0  0  0  0  0
   -2.3042   -0.3231    1.7110 C   0  0  0  0  0  0  0  0  0  0  0  0
   -1.0133   -0.6956    1.5604 N   0  0  0  0  0  0  0  0  0  0  0  0
   -0.7642   -0.7663    0.2462 C   0  0  0  0  0  0  0  0  0  0  0  0
    0.3875   -1.1078   -0.4705 C   0  0  0  0  0  0  0  0  0  0  0  0
    1.5857   -1.4497    0.2185 N   0  0  0  0  0  0  0  0  0  0  0  0
    2.7092   -0.6149    0.3443 C   0  0  0  0  0  0  0  0  0  0  0  0
    2.8798    0.5312   -0.4247 C   0  0  0  0  0  0  0  0  0  0  0  0
    4.0181    1.2933   -0.2309 C   0  0  0  0  0  0  0  0  0  0  0  0
    4.1601    2.4208   -1.0081 F   0  0  0  0  0  0  0  0  0  0  0  0
    4.9743    0.9440    0.6975 C   0  0  0  0  0  0  0  0  0  0  0  0
    4.8220   -0.1858    1.4666 C   0  0  0  0  0  0  0  0  0  0  0  0
    5.7340   -0.5701    2.3947 F   0  0  0  0  0  0  0  0  0  0  0  0
    3.6864   -0.9400    1.2684 C   0  0  0  0  0  0  0  0  0  0  0  0
    0.2761   -1.0817   -1.8039 N   0  0  0  0  0  0  0  0  0  0  0  0
   -0.8492   -0.7543   -2.4648 C   0  0  0  0  0  0  0  0  0  0  0  0
   -0.9087   -0.7348   -3.9015 C   0  0  0  0  0  0  0  0  0  0  0  0
   -0.9778   -0.7212   -5.0781 N   0  0  0  0  0  0  0  0  0  0  0  0
   -1.9308   -0.4344   -1.7186 N   0  0  0  0  0  0  0  0  0  0  0  0
   -1.9412   -0.4257   -0.3954 C   0  0  0  0  0  0  0  0  0  0  0  0
   -3.6823    2.1718   -0.3216 H   0  0  0  0  0  0  0  0  0  0  0  0
   -4.5225    2.1713    1.3108 H   0  0  0  0  0  0  0  0  0  0  0  0
   -5.4887    1.9240   -0.1403 H   0  0  0  0  0  0  0  0  0  0  0  0
   -4.7389   -0.2734   -0.5273 H   0  0  0  0  0  0  0  0  0  0  0  0
   -4.8945   -0.1171    1.2242 H   0  0  0  0  0  0  0  0  0  0  0  0
   -2.7717   -0.1906    2.6755 H   0  0  0  0  0  0  0  0  0  0  0  0
    1.6276   -2.4163    0.6696 H   0  0  0  0  0  0  0  0  0  0  0  0
    2.1324    0.8212   -1.1603 H   0  0  0  0  0  0  0  0  0  0  0  0
    5.8612    1.5558    0.8348 H   0  0  0  0  0  0  0  0  0  0  0  0
    3.5633   -1.8306    1.8732 H   0  0  0  0  0  0  0  0  0  0  0  0
  1  2  1  0
  2  3  1  0
  3  4  1  0
  4  5  2  0
  5  6  1  0
  6  7  2  0
  7  8  1  0
  8  9  1  0
  9 10  2  0
 10 11  1  0
 11 12  1  0
 11 13  2  0
 13 14  1  0
 14 15  1  0
 14 16  2  0
  7 17  1  0
 17 18  2  0
 18 19  1  0
 19 20  3  0
 18 21  1  0
 21 22  2  0
 22  3  1  0
 22  6  1  0
 16  9  1  0
  1 23  1  0
  1 24  1  0
  1 25  1  0
  2 26  1  0
  2 27  1  0
  4 28  1  0
  8 29  1  0
 10 30  1  0
 13 31  1  0
 16 32  1  0
M  END
$$$$
