@<TRIPOS>MOLECULE
*****
 32 34 0 0 0
SMALL
GASTEIGER

@<TRIPOS>ATOM
      1 C          -4.4673    1.7223    0.2950 C.3     1  UNL1       -0.0470
      2 C          -4.2677    0.2295    0.3504 C.3     1  UNL1        0.0232
      3 N          -2.8947   -0.1516    0.5051 N.ar    1  UNL1       -0.3151
      4 C          -2.3042   -0.3231    1.7110 C.ar    1  UNL1        0.0983
      5 N          -1.0133   -0.6956    1.5604 N.ar    1  UNL1       -0.2306
      6 C          -0.7642   -0.7663    0.2462 C.ar    1  UNL1        0.1478
      7 C           0.3875   -1.1078   -0.4705 C.ar    1  UNL1        0.1552
      8 N           1.5857   -1.4497    0.2185 N.pl3   1  UNL1       -0.2974
      9 C           2.7092   -0.6149    0.3443 C.ar    1  UNL1        0.0379
     10 C           2.8798    0.5312   -0.4247 C.ar    1  UNL1       -0.0051
     11 C           4.0181    1.2933   -0.2309 C.ar    1  UNL1        0.1279
     12 F           4.1601    2.4208   -1.0081 F       1  UNL1       -0.2053
     13 C           4.9743    0.9440    0.6975 C.ar    1  UNL1        0.0089
     14 C           4.8220   -0.1858    1.4666 C.ar    1  UNL1        0.1279
     15 F           5.7340   -0.5701    2.3947 F       1  UNL1       -0.2053
     16 C           3.6864   -0.9400    1.2684 C.ar    1  UNL1       -0.0051
     17 N           0.2761   -1.0817   -1.8039 N.ar    1  UNL1       -0.2011
     18 C          -0.8492   -0.7543   -2.4648 C.ar    1  UNL1        0.2356
     19 C          -0.9087   -0.7348   -3.9015 C.1     1  UNL1        0.1400
     20 N          -0.9778   -0.7212   -5.0781 N.1     1  UNL1       -0.1876
     21 N          -1.9308   -0.4344   -1.7186 N.ar    1  UNL1       -0.1987
     22 C          -1.9412   -0.4257   -0.3954 C.ar    1  UNL1        0.1667
     23 H          -3.6823    2.1718   -0.3216 H       1  UNL1        0.0247
     24 H          -4.5225    2.1713    1.3108 H       1  UNL1        0.0247
     25 H          -5.4887    1.9240   -0.1403 H       1  UNL1        0.0247
     26 H          -4.7389   -0.2734   -0.5273 H       1  UNL1        0.0490
     27 H          -4.8945   -0.1171    1.2242 H       1  UNL1        0.0490
     28 H          -2.7717   -0.1906    2.6755 H       1  UNL1        0.1029
     29 H           1.6276   -2.4163    0.6696 H       1  UNL1        0.1536
     30 H           2.1324    0.8212   -1.1603 H       1  UNL1        0.0665
     31 H           5.8612    1.5558    0.8348 H       1  UNL1        0.0675
     32 H           3.5633   -1.8306    1.8732 H       1  UNL1        0.0665
@<TRIPOS>BOND
     1     1     2    1
     2     2     3    1
     3     3     4   ar
     4     4     5   ar
     5     5     6   ar
     6     6     7   ar
     7     7     8    1
     8     8     9    1
     9     9    10   ar
    10    10    11   ar
    11    11    12    1
    12    11    13   ar
    13    13    14   ar
    14    14    15    1
    15    14    16   ar
    16     7    17   ar
    17    17    18   ar
    18    18    19    1
    19    19    20    3
    20    18    21   ar
    21    21    22   ar
    22    22     3   ar
    23    22     6   ar
    24    16     9   ar
    25     1    23    1
    26     1    24    1
    27     1    25    1
    28     2    26    1
    29     2    27    1
    30     4    28    1
    31     8    29    1
    32    10    30    1
    33    13    31    1
    34    16    32    1
