
     RDKit          3D

 53 56  0  0  0  0  0  0  0  0999 V2000
    9.0362   -0.1439    0.7466 O   0  0  0  0  0  0  0  0  0  0  0  0
    8.2287    0.0623   -0.2180 C   0  0  0  0  0  0  0  0  0  0  0  0
    6.8075   -0.1914    0.0108 C   0  0  0  0  0  0  0  0  0  0  0  0
    5.8584   -0.0267   -0.8782 C   0  0  0  0  0  0  0  0  0  0  0  0
    4.4397   -0.2756   -0.6644 C   0  0  0  0  0  0  0  0  0  0  0  0
    3.5111   -0.0564   -1.6741 C   0  0  0  0  0  0  0  0  0  0  0  0
    2.1497   -0.2829   -1.5056 C   0  0  0  0  0  0  0  0  0  0  0  0
    1.6938   -0.7352   -0.3147 C   0  0  0  0  0  0  0  0  0  0  0  0
    0.2203   -0.9941   -0.0804 C   0  0  0  0  0  0  0  0  0  0  0  0
   -0.2607    0.0724    0.6857 N   0  0  0  0  0  0  0  0  0  0  0  0
   -1.4028    0.0459    1.4651 C   0  0  0  0  0  0  0  0  0  0  0  0
   -2.7347   -0.0348    0.8166 C   0  0  0  0  0  0  0  0  0  0  0  0
   -3.0135   -1.2460   -0.0013 C   0  0  0  0  0  0  0  0  0  0  0  0
   -4.4154   -1.1727   -0.5941 C   0  0  0  0  0  0  0  0  0  0  0  0
   -4.6156    0.0408   -1.4425 C   0  0  0  0  0  0  0  0  0  0  0  0
   -4.2717    1.2455   -0.6163 C   0  0  0  0  0  0  0  0  0  0  0  0
   -5.2388    1.3530    0.5585 C   0  0  0  0  0  0  0  0  0  0  0  0
   -5.1420    0.0886    1.3618 C   0  0  0  0  0  0  0  0  0  0  0  0
   -5.4014   -1.1481    0.5254 C   0  0  0  0  0  0  0  0  0  0  0  0
   -3.7747   -0.0057    1.9357 C   0  0  0  0  0  0  0  0  0  0  0  0
   -2.8874    1.2101   -0.0458 C   0  0  0  0  0  0  0  0  0  0  0  0
    2.5686   -0.9633    0.7016 C   0  0  0  0  0  0  0  0  0  0  0  0
    2.0696   -1.4218    1.8934 F   0  0  0  0  0  0  0  0  0  0  0  0
    3.9147   -0.7348    0.5207 C   0  0  0  0  0  0  0  0  0  0  0  0
    8.7587    0.5206   -1.4408 N   0  0  0  0  0  0  0  0  0  0  0  0
   10.1066    0.7437   -1.6000 O   0  0  0  0  0  0  0  0  0  0  0  0
    6.4781   -0.5499    0.9995 H   0  0  0  0  0  0  0  0  0  0  0  0
    6.1581    0.3230   -1.8556 H   0  0  0  0  0  0  0  0  0  0  0  0
    3.8122    0.3017   -2.6414 H   0  0  0  0  0  0  0  0  0  0  0  0
    1.4590   -0.1009   -2.3155 H   0  0  0  0  0  0  0  0  0  0  0  0
   -0.1915   -0.9990   -1.1436 H   0  0  0  0  0  0  0  0  0  0  0  0
    0.0917   -1.9852    0.3695 H   0  0  0  0  0  0  0  0  0  0  0  0
    0.3588    0.9063    0.7574 H   0  0  0  0  0  0  0  0  0  0  0  0
   -1.4104    1.0109    2.1048 H   0  0  0  0  0  0  0  0  0  0  0  0
   -1.3697   -0.7839    2.2587 H   0  0  0  0  0  0  0  0  0  0  0  0
   -3.0711   -2.1205    0.7163 H   0  0  0  0  0  0  0  0  0  0  0  0
   -2.2772   -1.5016   -0.7473 H   0  0  0  0  0  0  0  0  0  0  0  0
   -4.5699   -2.0837   -1.2209 H   0  0  0  0  0  0  0  0  0  0  0  0
   -5.6929    0.1018   -1.6979 H   0  0  0  0  0  0  0  0  0  0  0  0
   -4.0378    0.0491   -2.3683 H   0  0  0  0  0  0  0  0  0  0  0  0
   -4.3863    2.2083   -1.1753 H   0  0  0  0  0  0  0  0  0  0  0  0
   -6.2475    1.6227    0.2545 H   0  0  0  0  0  0  0  0  0  0  0  0
   -4.8321    2.1781    1.2052 H   0  0  0  0  0  0  0  0  0  0  0  0
   -5.9402    0.1313    2.1292 H   0  0  0  0  0  0  0  0  0  0  0  0
   -6.4214   -1.1914    0.1221 H   0  0  0  0  0  0  0  0  0  0  0  0
   -5.2539   -2.0270    1.2047 H   0  0  0  0  0  0  0  0  0  0  0  0
   -3.6452   -0.9674    2.4871 H   0  0  0  0  0  0  0  0  0  0  0  0
   -3.5325    0.8491    2.5907 H   0  0  0  0  0  0  0  0  0  0  0  0
   -2.7857    2.0860    0.6253 H   0  0  0  0  0  0  0  0  0  0  0  0
   -2.0999    1.1837   -0.8225 H   0  0  0  0  0  0  0  0  0  0  0  0
    4.5623   -0.9328    1.3527 H   0  0  0  0  0  0  0  0  0  0  0  0
    8.0969    0.6870   -2.2305 H   0  0  0  0  0  0  0  0  0  0  0  0
   10.5433   -0.0124   -1.1048 H   0  0  0  0  0  0  0  0  0  0  0  0
  1  2  2  0
  2  3  1  0
  3  4  2  0
  4  5  1  0
  5  6  2  0
  6  7  1  0
  7  8  2  0
  8  9  1  0
  9 10  1  0
 10 11  1  0
 11 12  1  0
 12 13  1  0
 13 14  1  0
 14 15  1  0
 15 16  1  0
 16 17  1  0
 17 18  1  0
 18 19  1  0
 18 20  1  0
 16 21  1  0
  8 22  1  0
 22 23  1  0
 22 24  2  0
  2 25  1  0
 25 26  1  0
 24  5  1  0
 20 12  1  0
 21 12  1  0
 19 14  1  0
  3 27  1  0
  4 28  1  0
  6 29  1  0
  7 30  1  0
  9 31  1  0
  9 32  1  0
 10 33  1  0
 11 34  1  0
 11 35  1  0
 13 36  1  0
 13 37  1  0
 14 38  1  0
 15 39  1  0
 15 40  1  0
 16 41  1  0
 17 42  1  0
 17 43  1  0
 18 44  1  0
 19 45  1  0
 19 46  1  0
 20 47  1  0
 20 48  1  0
 21 49  1  0
 21 50  1  0
 24 51  1  0
 25 52  1  0
 26 53  1  0
M  END
$$$$
