@<TRIPOS>MOLECULE
*****
 53 56 0 0 0
SMALL
GASTEIGER

@<TRIPOS>ATOM
      1 O           9.0362   -0.1439    0.7466 O.2     1  UNL1       -0.2687
      2 C           8.2287    0.0623   -0.2180 C.2     1  UNL1        0.2593
      3 C           6.8075   -0.1914    0.0108 C.2     1  UNL1        0.0027
      4 C           5.8584   -0.0267   -0.8782 C.2     1  UNL1       -0.0495
      5 C           4.4397   -0.2756   -0.6644 C.ar    1  UNL1       -0.0221
      6 C           3.5111   -0.0564   -1.6741 C.ar    1  UNL1       -0.0541
      7 C           2.1497   -0.2829   -1.5056 C.ar    1  UNL1       -0.0541
      8 C           1.6938   -0.7352   -0.3147 C.ar    1  UNL1        0.0016
      9 C           0.2203   -0.9941   -0.0804 C.3     1  UNL1        0.0240
     10 N          -0.2607    0.0724    0.6857 N.3     1  UNL1       -0.3114
     11 C          -1.4028    0.0459    1.4651 C.3     1  UNL1        0.0019
     12 C          -2.7347   -0.0348    0.8166 C.3     1  UNL1       -0.0160
     13 C          -3.0135   -1.2460   -0.0013 C.3     1  UNL1       -0.0433
     14 C          -4.4154   -1.1727   -0.5941 C.3     1  UNL1       -0.0400
     15 C          -4.6156    0.0408   -1.4425 C.3     1  UNL1       -0.0473
     16 C          -4.2717    1.2455   -0.6163 C.3     1  UNL1       -0.0400
     17 C          -5.2388    1.3530    0.5585 C.3     1  UNL1       -0.0473
     18 C          -5.1420    0.0886    1.3618 C.3     1  UNL1       -0.0400
     19 C          -5.4014   -1.1481    0.5254 C.3     1  UNL1       -0.0473
     20 C          -3.7747   -0.0057    1.9357 C.3     1  UNL1       -0.0433
     21 C          -2.8874    1.2101   -0.0458 C.3     1  UNL1       -0.0433
     22 C           2.5686   -0.9633    0.7016 C.ar    1  UNL1        0.1283
     23 F           2.0696   -1.4218    1.8934 F       1  UNL1       -0.2051
     24 C           3.9147   -0.7348    0.5207 C.ar    1  UNL1       -0.0190
     25 N           8.7587    0.5206   -1.4408 N.am    1  UNL1       -0.1940
     26 O          10.1066    0.7437   -1.6000 O.3     1  UNL1       -0.2949
     27 H           6.4781   -0.5499    0.9995 H       1  UNL1        0.0670
     28 H           6.1581    0.3230   -1.8556 H       1  UNL1        0.0625
     29 H           3.8122    0.3017   -2.6414 H       1  UNL1        0.0624
     30 H           1.4590   -0.1009   -2.3155 H       1  UNL1        0.0622
     31 H          -0.1915   -0.9990   -1.1436 H       1  UNL1        0.0474
     32 H           0.0917   -1.9852    0.3695 H       1  UNL1        0.0474
     33 H           0.3588    0.9063    0.7574 H       1  UNL1        0.1223
     34 H          -1.4104    1.0109    2.1048 H       1  UNL1        0.0430
     35 H          -1.3697   -0.7839    2.2587 H       1  UNL1        0.0430
     36 H          -3.0711   -2.1205    0.7163 H       1  UNL1        0.0274
     37 H          -2.2772   -1.5016   -0.7473 H       1  UNL1        0.0274
     38 H          -4.5699   -2.0837   -1.2209 H       1  UNL1        0.0301
     39 H          -5.6929    0.1018   -1.6979 H       1  UNL1        0.0271
     40 H          -4.0378    0.0491   -2.3683 H       1  UNL1        0.0271
     41 H          -4.3863    2.2083   -1.1753 H       1  UNL1        0.0301
     42 H          -6.2475    1.6227    0.2545 H       1  UNL1        0.0271
     43 H          -4.8321    2.1781    1.2052 H       1  UNL1        0.0271
     44 H          -5.9402    0.1313    2.1292 H       1  UNL1        0.0301
     45 H          -6.4214   -1.1914    0.1221 H       1  UNL1        0.0271
     46 H          -5.2539   -2.0270    1.2047 H       1  UNL1        0.0271
     47 H          -3.6452   -0.9674    2.4871 H       1  UNL1        0.0274
     48 H          -3.5325    0.8491    2.5907 H       1  UNL1        0.0274
     49 H          -2.7857    2.0860    0.6253 H       1  UNL1        0.0274
     50 H          -2.0999    1.1837   -0.8225 H       1  UNL1        0.0274
     51 H           4.5623   -0.9328    1.3527 H       1  UNL1        0.0652
     52 H           8.0969    0.6870   -2.2305 H       1  UNL1        0.1825
     53 H          10.5433   -0.0124   -1.1048 H       1  UNL1        0.2414
@<TRIPOS>BOND
     1     1     2    2
     2     2     3    1
     3     3     4    2
     4     4     5    1
     5     5     6   ar
     6     6     7   ar
     7     7     8   ar
     8     8     9    1
     9     9    10    1
    10    10    11    1
    11    11    12    1
    12    12    13    1
    13    13    14    1
    14    14    15    1
    15    15    16    1
    16    16    17    1
    17    17    18    1
    18    18    19    1
    19    18    20    1
    20    16    21    1
    21     8    22   ar
    22    22    23    1
    23    22    24   ar
    24     2    25   am
    25    25    26    1
    26    24     5   ar
    27    20    12    1
    28    21    12    1
    29    19    14    1
    30     3    27    1
    31     4    28    1
    32     6    29    1
    33     7    30    1
    34     9    31    1
    35     9    32    1
    36    10    33    1
    37    11    34    1
    38    11    35    1
    39    13    36    1
    40    13    37    1
    41    14    38    1
    42    15    39    1
    43    15    40    1
    44    16    41    1
    45    17    42    1
    46    17    43    1
    47    18    44    1
    48    19    45    1
    49    19    46    1
    50    20    47    1
    51    20    48    1
    52    21    49    1
    53    21    50    1
    54    24    51    1
    55    25    52    1
    56    26    53    1
