@<TRIPOS>MOLECULE
*****
 57 60 0 0 0
SMALL
GASTEIGER

@<TRIPOS>ATOM
      1 C          -1.0213   -3.0882   -4.4263 C.3     1  UNL1       -0.0191
      2 C          -0.7193   -2.6055   -3.0354 C.ar    1  UNL1        0.0812
      3 C           0.4066   -1.9500   -2.5966 C.ar    1  UNL1        0.0082
      4 C           0.2271   -1.7056   -1.2293 C.ar    1  UNL1        0.1722
      5 C           1.2623   -1.0079   -0.4590 C.ar    1  UNL1        0.0778
      6 C           2.5700   -0.9654   -1.0071 C.ar    1  UNL1        0.0452
      7 N           3.5489   -0.3795   -0.3193 N.ar    1  UNL1       -0.2218
      8 C           3.3283    0.1703    0.8782 C.ar    1  UNL1        0.2212
      9 N           4.3566    0.7869    1.6186 N.pl3   1  UNL1       -0.2835
     10 C           5.6807    0.9438    1.2241 C.ar    1  UNL1        0.0363
     11 C           6.1587    0.7304   -0.0390 C.ar    1  UNL1       -0.0220
     12 C           7.5099    0.8901   -0.3630 C.ar    1  UNL1        0.0441
     13 CL          8.0607    0.6004   -1.9981 Cl      1  UNL1       -0.0834
     14 C           8.4210    1.2741    0.5918 C.ar    1  UNL1       -0.0249
     15 C           7.9767    1.4964    1.8657 C.ar    1  UNL1        0.0441
     16 CL          9.1509    1.9857    3.0720 Cl      1  UNL1       -0.0834
     17 C           6.6592    1.3353    2.1597 C.ar    1  UNL1       -0.0220
     18 N           2.0854    0.1186    1.3715 N.ar    1  UNL1       -0.1988
     19 C           0.9923   -0.4636    0.7396 C.ar    1  UNL1        0.1349
     20 N          -0.2314   -0.2843    1.3498 N.pl3   1  UNL1       -0.3255
     21 C          -1.6049   -0.3801    1.0928 C.3     1  UNL1        0.0221
     22 C          -1.9787    0.5812   -0.0305 C.3     1  UNL1       -0.0331
     23 C          -3.0131    1.5906    0.3500 C.3     1  UNL1       -0.0357
     24 C          -4.2377    0.9725    0.9788 C.3     1  UNL1        0.0100
     25 N          -5.1306    0.4652   -0.0366 N.3     1  UNL1       -0.3054
     26 C          -6.3045   -0.1438    0.5047 C.3     1  UNL1       -0.0128
     27 C          -5.5154    1.5632   -0.9037 C.3     1  UNL1       -0.0128
     28 C          -3.8622   -0.0885    1.9900 C.3     1  UNL1       -0.0357
     29 C          -2.4141    0.1613    2.3427 C.3     1  UNL1       -0.0331
     30 O          -0.9114   -2.1893   -0.9357 O.2     1  UNL1       -0.3543
     31 N          -1.4906   -2.7175   -1.9480 N.ar    1  UNL1       -0.0829
     32 H          -1.5785   -2.2768   -4.9325 H       1  UNL1        0.0294
     33 H          -0.1180   -3.3509   -4.9807 H       1  UNL1        0.0294
     34 H          -1.7043   -3.9706   -4.3762 H       1  UNL1        0.0294
     35 H           1.2546   -1.6818   -3.2219 H       1  UNL1        0.0674
     36 H           2.7476   -1.4230   -1.9839 H       1  UNL1        0.0839
     37 H           4.0817    1.1725    2.5786 H       1  UNL1        0.1550
     38 H           5.5210    0.4368   -0.8567 H       1  UNL1        0.0651
     39 H           9.4766    1.4036    0.3581 H       1  UNL1        0.0647
     40 H           6.3071    1.5129    3.1757 H       1  UNL1        0.0651
     41 H          -0.0799    0.0231    2.4255 H       1  UNL1        0.1478
     42 H          -2.0922   -1.3213    0.9368 H       1  UNL1        0.0498
     43 H          -1.0716    1.1635   -0.3648 H       1  UNL1        0.0284
     44 H          -2.3365    0.0700   -0.9427 H       1  UNL1        0.0284
     45 H          -3.3734    2.0448   -0.6187 H       1  UNL1        0.0281
     46 H          -2.5640    2.3990    0.9140 H       1  UNL1        0.0281
     47 H          -4.7674    1.7731    1.5269 H       1  UNL1        0.0462
     48 H          -6.2478   -1.2521    0.5259 H       1  UNL1        0.0391
     49 H          -7.1660    0.0982   -0.1608 H       1  UNL1        0.0391
     50 H          -6.5433    0.2593    1.5116 H       1  UNL1        0.0391
     51 H          -5.4118    2.5401   -0.3700 H       1  UNL1        0.0391
     52 H          -4.9450    1.5493   -1.8511 H       1  UNL1        0.0391
     53 H          -6.6044    1.4802   -1.1518 H       1  UNL1        0.0391
     54 H          -4.4410    0.0474    2.9495 H       1  UNL1        0.0281
     55 H          -4.0302   -1.1113    1.6536 H       1  UNL1        0.0281
     56 H          -2.0771   -0.4920    3.1525 H       1  UNL1        0.0284
     57 H          -2.1963    1.2093    2.5073 H       1  UNL1        0.0284
@<TRIPOS>BOND
     1     1     2    1
     2     2     3   ar
     3     3     4   ar
     4     4     5    1
     5     5     6   ar
     6     6     7   ar
     7     7     8   ar
     8     8     9    1
     9     9    10    1
    10    10    11   ar
    11    11    12   ar
    12    12    13    1
    13    12    14   ar
    14    14    15   ar
    15    15    16    1
    16    15    17   ar
    17     8    18   ar
    18    18    19   ar
    19    19    20    1
    20    20    21    1
    21    21    22    1
    22    22    23    1
    23    23    24    1
    24    24    25    1
    25    25    26    1
    26    25    27    1
    27    24    28    1
    28    28    29    1
    29     4    30   ar
    30    30    31   ar
    31    31     2   ar
    32    19     5   ar
    33    29    21    1
    34    17    10   ar
    35     1    32    1
    36     1    33    1
    37     1    34    1
    38     3    35    1
    39     6    36    1
    40     9    37    1
    41    11    38    1
    42    14    39    1
    43    17    40    1
    44    20    41    1
    45    21    42    1
    46    22    43    1
    47    22    44    1
    48    23    45    1
    49    23    46    1
    50    24    47    1
    51    26    48    1
    52    26    49    1
    53    26    50    1
    54    27    51    1
    55    27    52    1
    56    27    53    1
    57    28    54    1
    58    28    55    1
    59    29    56    1
    60    29    57    1
