@<TRIPOS>MOLECULE
*****
 77 82 0 0 0
SMALL
GASTEIGER

@<TRIPOS>ATOM
      1 C          -6.8869    3.4409    1.1112 C.3     1  UNL1        0.0032
      2 N          -7.0675    2.3039    1.9949 N.am    1  UNL1       -0.3024
      3 C          -8.3491    2.1540    2.6380 C.3     1  UNL1        0.0032
      4 C          -6.0473    1.3504    2.2461 C.2     1  UNL1        0.2627
      5 O          -6.2871    0.4123    3.0235 O.2     1  UNL1       -0.2684
      6 C          -4.7397    1.5293    1.5577 C.ar    1  UNL1        0.1070
      7 C          -3.8680    2.5503    1.8702 C.ar    1  UNL1       -0.0209
      8 C          -2.7983    2.3968    1.0357 C.ar    1  UNL1        0.0378
      9 C          -1.6088    3.0736    0.8218 C.ar    1  UNL1        0.0419
     10 N          -0.7394    2.6691   -0.1134 N.ar    1  UNL1       -0.2219
     11 C          -0.9782    1.5810   -0.8980 C.ar    1  UNL1        0.2224
     12 N          -0.0470    1.2138   -1.9034 N.pl3   1  UNL1       -0.2685
     13 C           1.1775    0.5316   -1.7025 C.ar    1  UNL1        0.1250
     14 C           1.9914    0.2407   -2.8104 C.ar    1  UNL1       -0.0208
     15 C           3.1870   -0.4154   -2.6905 C.ar    1  UNL1       -0.0449
     16 C           3.6582   -0.8330   -1.4308 C.ar    1  UNL1        0.0551
     17 C           4.8988   -1.5254   -1.3374 C.2     1  UNL1        0.2481
     18 O           4.9857   -2.7058   -1.9524 O.2     1  UNL1       -0.2699
     19 N           6.0755   -1.1883   -0.7012 N.am    1  UNL1       -0.2974
     20 C           7.2433   -2.0431   -0.7345 C.3     1  UNL1        0.0156
     21 C           8.4749   -1.1463   -0.7253 C.3     1  UNL1       -0.0291
     22 C           8.5757   -0.5778    0.6809 C.3     1  UNL1       -0.0014
     23 C           7.2274   -0.1378    1.1432 C.3     1  UNL1       -0.0291
     24 C           6.2218    0.0445    0.0278 C.3     1  UNL1        0.0156
     25 C           9.3332   -1.4896    1.6311 C.3     1  UNL1        0.0028
     26 N          10.1244   -0.3711    2.0822 N.3     1  UNL1       -0.3148
     27 C           9.7189    0.3571    0.8993 C.3     1  UNL1        0.0028
     28 C           2.8400   -0.5339   -0.3697 C.ar    1  UNL1        0.0418
     29 N           1.6515    0.1227   -0.5223 N.ar    1  UNL1       -0.2394
     30 N          -2.1340    0.9414   -0.6749 N.ar    1  UNL1       -0.1962
     31 C          -3.0531    1.2918    0.2469 C.ar    1  UNL1        0.1466
     32 N          -4.2743    0.7509    0.5801 N.ar    1  UNL1       -0.3180
     33 C          -4.9083   -0.4228   -0.0495 C.3     1  UNL1        0.0366
     34 C          -4.4016   -1.5539    0.8376 C.3     1  UNL1       -0.0320
     35 C          -5.0520   -2.9193    0.3791 C.3     1  UNL1       -0.0512
     36 C          -5.4015   -2.6908   -0.9609 C.3     1  UNL1       -0.0530
     37 C          -5.7751   -2.4892   -2.2969 C.3     1  UNL1       -0.0530
     38 C          -5.4652   -0.9637   -2.5597 C.3     1  UNL1       -0.0512
     39 C          -4.5909   -0.3857   -1.4580 C.3     1  UNL1       -0.0320
     40 H          -7.7826    3.6925    0.5168 H       1  UNL1        0.0428
     41 H          -6.6932    4.3103    1.8119 H       1  UNL1        0.0428
     42 H          -5.9919    3.2738    0.4744 H       1  UNL1        0.0428
     43 H          -9.1077    1.7545    1.9066 H       1  UNL1        0.0428
     44 H          -8.7095    3.1060    3.0672 H       1  UNL1        0.0428
     45 H          -8.2535    1.3658    3.4257 H       1  UNL1        0.0428
     46 H          -3.9838    3.3298    2.6165 H       1  UNL1        0.0647
     47 H          -1.4584    3.9299    1.4684 H       1  UNL1        0.0838
     48 H          -0.3484    1.5026   -2.8877 H       1  UNL1        0.1564
     49 H           1.6097    0.5761   -3.7857 H       1  UNL1        0.0652
     50 H           3.8126   -0.6348   -3.5546 H       1  UNL1        0.0627
     51 H           7.3310   -2.6879    0.1620 H       1  UNL1        0.0465
     52 H           7.3099   -2.6737   -1.6211 H       1  UNL1        0.0465
     53 H           9.3344   -1.7195   -1.0505 H       1  UNL1        0.0287
     54 H           8.3578   -0.2692   -1.4165 H       1  UNL1        0.0287
     55 H           7.2607    0.8289    1.7060 H       1  UNL1        0.0287
     56 H           6.8440   -0.9199    1.8556 H       1  UNL1        0.0287
     57 H           6.6516    0.8538   -0.6404 H       1  UNL1        0.0465
     58 H           5.3092    0.4571    0.4519 H       1  UNL1        0.0465
     59 H           9.8951   -2.2661    1.0809 H       1  UNL1        0.0430
     60 H           8.7085   -1.9531    2.4080 H       1  UNL1        0.0430
     61 H           9.8679    0.0726    2.9689 H       1  UNL1        0.1220
     62 H           9.4399    1.4183    1.0763 H       1  UNL1        0.0430
     63 H          10.5251    0.2397    0.1233 H       1  UNL1        0.0430
     64 H           3.1772   -0.8444    0.6130 H       1  UNL1        0.0838
     65 H          -5.9936   -0.1853    0.1193 H       1  UNL1        0.0528
     66 H          -3.3123   -1.6343    0.6853 H       1  UNL1        0.0285
     67 H          -4.6890   -1.3556    1.8470 H       1  UNL1        0.0285
     68 H          -4.2590   -3.7012    0.5839 H       1  UNL1        0.0266
     69 H          -5.8481   -3.1913    1.1086 H       1  UNL1        0.0266
     70 H          -6.1565   -1.9110   -0.6287 H       1  UNL1        0.0265
     71 H          -4.3330   -2.3839   -1.2021 H       1  UNL1        0.0265
     72 H          -6.8462   -2.6217   -2.5842 H       1  UNL1        0.0265
     73 H          -5.2427   -3.0974   -3.0844 H       1  UNL1        0.0265
     74 H          -6.4058   -0.4077   -2.6380 H       1  UNL1        0.0266
     75 H          -4.8283   -0.9027   -3.4700 H       1  UNL1        0.0266
     76 H          -3.5000   -0.6286   -1.6768 H       1  UNL1        0.0285
     77 H          -4.6033    0.7145   -1.7510 H       1  UNL1        0.0285
@<TRIPOS>BOND
     1     1     2    1
     2     2     3    1
     3     2     4   am
     4     4     5    2
     5     4     6    1
     6     6     7   ar
     7     7     8   ar
     8     8     9   ar
     9     9    10   ar
    10    10    11   ar
    11    11    12    1
    12    12    13    1
    13    13    14   ar
    14    14    15   ar
    15    15    16   ar
    16    16    17    1
    17    17    18    2
    18    17    19   am
    19    19    20    1
    20    20    21    1
    21    21    22    1
    22    22    23    1
    23    23    24    1
    24    22    25    1
    25    25    26    1
    26    26    27    1
    27    16    28   ar
    28    28    29   ar
    29    11    30   ar
    30    30    31   ar
    31    31    32   ar
    32    32    33    1
    33    33    34    1
    34    34    35    1
    35    35    36    1
    36    36    37    1
    37    37    38    1
    38    38    39    1
    39    32     6   ar
    40    39    33    1
    41    31     8   ar
    42    29    13   ar
    43    24    19    1
    44    27    22    1
    45     1    40    1
    46     1    41    1
    47     1    42    1
    48     3    43    1
    49     3    44    1
    50     3    45    1
    51     7    46    1
    52     9    47    1
    53    12    48    1
    54    14    49    1
    55    15    50    1
    56    20    51    1
    57    20    52    1
    58    21    53    1
    59    21    54    1
    60    23    55    1
    61    23    56    1
    62    24    57    1
    63    24    58    1
    64    25    59    1
    65    25    60    1
    66    26    61    1
    67    27    62    1
    68    27    63    1
    69    28    64    1
    70    33    65    1
    71    34    66    1
    72    34    67    1
    73    35    68    1
    74    35    69    1
    75    36    70    1
    76    36    71    1
    77    37    72    1
    78    37    73    1
    79    38    74    1
    80    38    75    1
    81    39    76    1
    82    39    77    1
