
     RDKit          3D

 77 82  0  0  0  0  0  0  0  0999 V2000
   -6.8869    3.4409    1.1112 C   0  0  0  0  0  0  0  0  0  0  0  0
   -7.0675    2.3039    1.9949 N   0  0  0  0  0  0  0  0  0  0  0  0
   -8.3491    2.1540    2.6380 C   0  0  0  0  0  0  0  0  0  0  0  0
   -6.0473    1.3504    2.2461 C   0  0  0  0  0  0  0  0  0  0  0  0
   -6.2871    0.4123    3.0235 O   0  0  0  0  0  0  0  0  0  0  0  0
   -4.7397    1.5293    1.5577 C   0  0  0  0  0  0  0  0  0  0  0  0
   -3.8680    2.5503    1.8702 C   0  0  0  0  0  0  0  0  0  0  0  0
   -2.7983    2.3968    1.0357 C   0  0  0  0  0  0  0  0  0  0  0  0
   -1.6088    3.0736    0.8218 C   0  0  0  0  0  0  0  0  0  0  0  0
   -0.7394    2.6691   -0.1134 N   0  0  0  0  0  0  0  0  0  0  0  0
   -0.9782    1.5810   -0.8980 C   0  0  0  0  0  0  0  0  0  0  0  0
   -0.0470    1.2138   -1.9034 N   0  0  0  0  0  0  0  0  0  0  0  0
    1.1775    0.5316   -1.7025 C   0  0  0  0  0  0  0  0  0  0  0  0
    1.9914    0.2407   -2.8104 C   0  0  0  0  0  0  0  0  0  0  0  0
    3.1870   -0.4154   -2.6905 C   0  0  0  0  0  0  0  0  0  0  0  0
    3.6582   -0.8330   -1.4308 C   0  0  0  0  0  0  0  0  0  0  0  0
    4.8988   -1.5254   -1.3374 C   0  0  0  0  0  0  0  0  0  0  0  0
    4.9857   -2.7058   -1.9524 O   0  0  0  0  0  0  0  0  0  0  0  0
    6.0755   -1.1883   -0.7012 N   0  0  0  0  0  0  0  0  0  0  0  0
    7.2433   -2.0431   -0.7345 C   0  0  0  0  0  0  0  0  0  0  0  0
    8.4749   -1.1463   -0.7253 C   0  0  0  0  0  0  0  0  0  0  0  0
    8.5757   -0.5778    0.6809 C   0  0  0  0  0  0  0  0  0  0  0  0
    7.2274   -0.1378    1.1432 C   0  0  0  0  0  0  0  0  0  0  0  0
    6.2218    0.0445    0.0278 C   0  0  0  0  0  0  0  0  0  0  0  0
    9.3332   -1.4896    1.6311 C   0  0  0  0  0  0  0  0  0  0  0  0
   10.1244   -0.3711    2.0822 N   0  0  0  0  0  0  0  0  0  0  0  0
    9.7189    0.3571    0.8993 C   0  0  0  0  0  0  0  0  0  0  0  0
    2.8400   -0.5339   -0.3697 C   0  0  0  0  0  0  0  0  0  0  0  0
    1.6515    0.1227   -0.5223 N   0  0  0  0  0  0  0  0  0  0  0  0
   -2.1340    0.9414   -0.6749 N   0  0  0  0  0  0  0  0  0  0  0  0
   -3.0531    1.2918    0.2469 C   0  0  0  0  0  0  0  0  0  0  0  0
   -4.2743    0.7509    0.5801 N   0  0  0  0  0  0  0  0  0  0  0  0
   -4.9083   -0.4228   -0.0495 C   0  0  0  0  0  0  0  0  0  0  0  0
   -4.4016   -1.5539    0.8376 C   0  0  0  0  0  0  0  0  0  0  0  0
   -5.0520   -2.9193    0.3791 C   0  0  0  0  0  0  0  0  0  0  0  0
   -5.4015   -2.6908   -0.9609 C   0  0  0  0  0  0  0  0  0  0  0  0
   -5.7751   -2.4892   -2.2969 C   0  0  0  0  0  0  0  0  0  0  0  0
   -5.4652   -0.9637   -2.5597 C   0  0  0  0  0  0  0  0  0  0  0  0
   -4.5909   -0.3857   -1.4580 C   0  0  0  0  0  0  0  0  0  0  0  0
   -7.7826    3.6925    0.5168 H   0  0  0  0  0  0  0  0  0  0  0  0
   -6.6932    4.3103    1.8119 H   0  0  0  0  0  0  0  0  0  0  0  0
   -5.9919    3.2738    0.4744 H   0  0  0  0  0  0  0  0  0  0  0  0
   -9.1077    1.7545    1.9066 H   0  0  0  0  0  0  0  0  0  0  0  0
   -8.7095    3.1060    3.0672 H   0  0  0  0  0  0  0  0  0  0  0  0
   -8.2535    1.3658    3.4257 H   0  0  0  0  0  0  0  0  0  0  0  0
   -3.9838    3.3298    2.6165 H   0  0  0  0  0  0  0  0  0  0  0  0
   -1.4584    3.9299    1.4684 H   0  0  0  0  0  0  0  0  0  0  0  0
   -0.3484    1.5026   -2.8877 H   0  0  0  0  0  0  0  0  0  0  0  0
    1.6097    0.5761   -3.7857 H   0  0  0  0  0  0  0  0  0  0  0  0
    3.8126   -0.6348   -3.5546 H   0  0  0  0  0  0  0  0  0  0  0  0
    7.3310   -2.6879    0.1620 H   0  0  0  0  0  0  0  0  0  0  0  0
    7.3099   -2.6737   -1.6211 H   0  0  0  0  0  0  0  0  0  0  0  0
    9.3344   -1.7195   -1.0505 H   0  0  0  0  0  0  0  0  0  0  0  0
    8.3578   -0.2692   -1.4165 H   0  0  0  0  0  0  0  0  0  0  0  0
    7.2607    0.8289    1.7060 H   0  0  0  0  0  0  0  0  0  0  0  0
    6.8440   -0.9199    1.8556 H   0  0  0  0  0  0  0  0  0  0  0  0
    6.6516    0.8538   -0.6404 H   0  0  0  0  0  0  0  0  0  0  0  0
    5.3092    0.4571    0.4519 H   0  0  0  0  0  0  0  0  0  0  0  0
    9.8951   -2.2661    1.0809 H   0  0  0  0  0  0  0  0  0  0  0  0
    8.7085   -1.9531    2.4080 H   0  0  0  0  0  0  0  0  0  0  0  0
    9.8679    0.0726    2.9689 H   0  0  0  0  0  0  0  0  0  0  0  0
    9.4399    1.4183    1.0763 H   0  0  0  0  0  0  0  0  0  0  0  0
   10.5251    0.2397    0.1233 H   0  0  0  0  0  0  0  0  0  0  0  0
    3.1772   -0.8444    0.6130 H   0  0  0  0  0  0  0  0  0  0  0  0
   -5.9936   -0.1853    0.1193 H   0  0  0  0  0  0  0  0  0  0  0  0
   -3.3123   -1.6343    0.6853 H   0  0  0  0  0  0  0  0  0  0  0  0
   -4.6890   -1.3556    1.8470 H   0  0  0  0  0  0  0  0  0  0  0  0
   -4.2590   -3.7012    0.5839 H   0  0  0  0  0  0  0  0  0  0  0  0
   -5.8481   -3.1913    1.1086 H   0  0  0  0  0  0  0  0  0  0  0  0
   -6.1565   -1.9110   -0.6287 H   0  0  0  0  0  0  0  0  0  0  0  0
   -4.3330   -2.3839   -1.2021 H   0  0  0  0  0  0  0  0  0  0  0  0
   -6.8462   -2.6217   -2.5842 H   0  0  0  0  0  0  0  0  0  0  0  0
   -5.2427   -3.0974   -3.0844 H   0  0  0  0  0  0  0  0  0  0  0  0
   -6.4058   -0.4077   -2.6380 H   0  0  0  0  0  0  0  0  0  0  0  0
   -4.8283   -0.9027   -3.4700 H   0  0  0  0  0  0  0  0  0  0  0  0
   -3.5000   -0.6286   -1.6768 H   0  0  0  0  0  0  0  0  0  0  0  0
   -4.6033    0.7145   -1.7510 H   0  0  0  0  0  0  0  0  0  0  0  0
  1  2  1  0
  2  3  1  0
  2  4  1  0
  4  5  2  0
  4  6  1  0
  6  7  2  0
  7  8  1  0
  8  9  2  0
  9 10  1  0
 10 11  2  0
 11 12  1  0
 12 13  1  0
 13 14  2  0
 14 15  1  0
 15 16  2  0
 16 17  1  0
 17 18  2  0
 17 19  1  0
 19 20  1  0
 20 21  1  0
 21 22  1  0
 22 23  1  0
 23 24  1  0
 22 25  1  0
 25 26  1  0
 26 27  1  0
 16 28  1  0
 28 29  2  0
 11 30  1  0
 30 31  2  0
 31 32  1  0
 32 33  1  0
 33 34  1  0
 34 35  1  0
 35 36  1  0
 36 37  1  0
 37 38  1  0
 38 39  1  0
 32  6  1  0
 39 33  1  0
 31  8  1  0
 29 13  1  0
 24 19  1  0
 27 22  1  0
  1 40  1  0
  1 41  1  0
  1 42  1  0
  3 43  1  0
  3 44  1  0
  3 45  1  0
  7 46  1  0
  9 47  1  0
 12 48  1  0
 14 49  1  0
 15 50  1  0
 20 51  1  0
 20 52  1  0
 21 53  1  0
 21 54  1  0
 23 55  1  0
 23 56  1  0
 24 57  1  0
 24 58  1  0
 25 59  1  0
 25 60  1  0
 26 61  1  0
 27 62  1  0
 27 63  1  0
 28 64  1  0
 33 65  1  0
 34 66  1  0
 34 67  1  0
 35 68  1  0
 35 69  1  0
 36 70  1  0
 36 71  1  0
 37 72  1  0
 37 73  1  0
 38 74  1  0
 38 75  1  0
 39 76  1  0
 39 77  1  0
M  END
$$$$
