@<TRIPOS>MOLECULE
*****
 50 50 0 0 0
SMALL
GASTEIGER

@<TRIPOS>ATOM
      1 C          -3.5960   -1.1644    2.3490 C.3     1  UNL1       -0.0432
      2 C          -3.9878   -0.6612    0.9737 C.2     1  UNL1       -0.0689
      3 C          -3.0240   -0.2968    0.1600 C.2     1  UNL1       -0.0427
      4 C          -1.6374   -0.4092    0.6589 C.2     1  UNL1       -0.0579
      5 C          -0.5816   -0.0820   -0.0404 C.2     1  UNL1       -0.0586
      6 C           0.7763   -0.2269    0.5407 C.2     1  UNL1       -0.0504
      7 C           0.8782   -0.7357    1.9101 C.3     1  UNL1       -0.0397
      8 C           1.7857    0.1149   -0.2111 C.2     1  UNL1       -0.0588
      9 C           3.1588    0.0118    0.2602 C.2     1  UNL1       -0.0613
     10 C           4.1427    0.3661   -0.5255 C.2     1  UNL1       -0.0586
     11 C           5.5609    0.3007   -0.1462 C.2     1  UNL1       -0.0437
     12 C           5.9913   -0.1742    1.1666 C.3     1  UNL1       -0.0395
     13 C           6.4757    0.6830   -1.0157 C.2     1  UNL1        0.0252
     14 C           7.8980    0.6754   -0.7872 C.2     1  UNL1        0.3298
     15 O           8.6675    1.0675   -1.7025 O.2     1  UNL1       -0.2458
     16 O           8.4349    0.2548    0.3941 O.3     1  UNL1       -0.4775
     17 C          -3.2696    0.1998   -1.1856 C.3     1  UNL1       -0.0099
     18 C          -2.7399    1.6340   -1.3815 C.3     1  UNL1       -0.0558
     19 C          -2.5638   -0.6474   -2.2446 C.3     1  UNL1       -0.0558
     20 C          -4.7250    0.1842   -1.5614 C.3     1  UNL1       -0.0436
     21 C          -5.6441    0.4113   -0.4038 C.3     1  UNL1       -0.0486
     22 C          -5.4246   -0.6213    0.6773 C.3     1  UNL1       -0.0314
     23 H          -4.4840   -1.5121    2.9100 H       1  UNL1        0.0275
     24 H          -3.1164   -0.3656    2.9267 H       1  UNL1        0.0275
     25 H          -2.9422   -2.0698    2.2370 H       1  UNL1        0.0275
     26 H          -1.4512   -0.7919    1.6806 H       1  UNL1        0.0621
     27 H          -0.6815    0.2957   -1.0382 H       1  UNL1        0.0620
     28 H           0.2231   -0.0551    2.5400 H       1  UNL1        0.0278
     29 H           1.8565   -0.7108    2.3849 H       1  UNL1        0.0278
     30 H           0.3692   -1.7363    2.0320 H       1  UNL1        0.0278
     31 H           1.5955    0.4882   -1.2212 H       1  UNL1        0.0620
     32 H           3.3499   -0.3514    1.2357 H       1  UNL1        0.0618
     33 H           3.8691    0.7279   -1.5159 H       1  UNL1        0.0620
     34 H           6.6619   -1.0550    1.0191 H       1  UNL1        0.0278
     35 H           5.1914   -0.4729    1.8452 H       1  UNL1        0.0278
     36 H           6.5858    0.5974    1.7005 H       1  UNL1        0.0278
     37 H           6.0984    1.0299   -1.9820 H       1  UNL1        0.0691
     38 H           9.4417    0.1467    0.5788 H       1  UNL1        0.2954
     39 H          -2.0856    1.7113   -2.2678 H       1  UNL1        0.0238
     40 H          -2.1898    2.0007   -0.5075 H       1  UNL1        0.0238
     41 H          -3.6230    2.2923   -1.6182 H       1  UNL1        0.0238
     42 H          -1.9897   -1.4934   -1.7974 H       1  UNL1        0.0238
     43 H          -1.9932   -0.0532   -2.9617 H       1  UNL1        0.0238
     44 H          -3.3671   -1.1510   -2.8550 H       1  UNL1        0.0238
     45 H          -4.9579   -0.8265   -1.9711 H       1  UNL1        0.0274
     46 H          -4.9172    0.9054   -2.3784 H       1  UNL1        0.0274
     47 H          -6.7143    0.3520   -0.6862 H       1  UNL1        0.0269
     48 H          -5.4521    1.4133    0.0215 H       1  UNL1        0.0269
     49 H          -5.8015   -1.5933    0.2391 H       1  UNL1        0.0310
     50 H          -6.0519   -0.4441    1.5643 H       1  UNL1        0.0310
@<TRIPOS>BOND
     1     1     2    1
     2     2     3    2
     3     3     4    1
     4     4     5    2
     5     5     6    1
     6     6     7    1
     7     6     8    2
     8     8     9    1
     9     9    10    2
    10    10    11    1
    11    11    12    1
    12    11    13    2
    13    13    14    1
    14    14    15    2
    15    14    16    1
    16     3    17    1
    17    17    18    1
    18    17    19    1
    19    17    20    1
    20    20    21    1
    21    21    22    1
    22    22     2    1
    23     1    23    1
    24     1    24    1
    25     1    25    1
    26     4    26    1
    27     5    27    1
    28     7    28    1
    29     7    29    1
    30     7    30    1
    31     8    31    1
    32     9    32    1
    33    10    33    1
    34    12    34    1
    35    12    35    1
    36    12    36    1
    37    13    37    1
    38    16    38    1
    39    18    39    1
    40    18    40    1
    41    18    41    1
    42    19    42    1
    43    19    43    1
    44    19    44    1
    45    20    45    1
    46    20    46    1
    47    21    47    1
    48    21    48    1
    49    22    49    1
    50    22    50    1
