@<TRIPOS>MOLECULE
*****
 83 88 0 0 0
SMALL
GASTEIGER

@<TRIPOS>ATOM
      1 C          10.6158    1.3414   -0.2549 C.3     1  UNL1        0.0365
      2 O          10.1759    2.3300    0.5668 O.3     1  UNL1       -0.3807
      3 C           8.9152    2.3343    1.0881 C.3     1  UNL1        0.0706
      4 C           8.5860    1.0711    1.9046 C.3     1  UNL1        0.0711
      5 O           8.6735   -0.0131    1.1154 O.3     1  UNL1       -0.3752
      6 C           7.6845   -0.2041    0.2124 C.3     1  UNL1        0.0711
      7 C           6.4224   -0.7954    0.7635 C.3     1  UNL1        0.0722
      8 O           5.7895   -0.0832    1.7383 O.3     1  UNL1       -0.3651
      9 C           4.6361   -0.8582    2.1095 C.3     1  UNL1        0.1087
     10 C           3.9057   -1.1075    0.8982 C.1     1  UNL1       -0.0687
     11 C           3.2211   -1.3326   -0.2043 C.1     1  UNL1       -0.0632
     12 C           2.5206   -1.5780   -1.3752 C.ar    1  UNL1        0.0394
     13 C           2.9842   -1.9180   -2.6624 C.ar    1  UNL1       -0.0455
     14 C           2.0935   -1.7596   -3.6843 C.ar    1  UNL1       -0.0586
     15 C           0.8078   -1.3142   -3.6088 C.ar    1  UNL1       -0.0354
     16 C           0.2581   -0.9549   -2.2976 C.ar    1  UNL1        0.0794
     17 N          -1.0373   -0.6820   -2.0855 N.ar    1  UNL1       -0.2315
     18 C          -1.5237   -0.6227   -0.8612 C.ar    1  UNL1        0.1349
     19 C          -2.6430    0.0344   -0.3386 C.3     1  UNL1        0.1017
     20 N          -3.6361    0.9084   -0.8246 N.ar    1  UNL1       -0.2383
     21 N          -4.9428    0.5427   -0.6172 N.ar    1  UNL1       -0.1682
     22 C          -5.7077    1.5883   -0.7351 C.ar    1  UNL1        0.1055
     23 C          -7.1108    1.8564   -0.3468 C.ar    1  UNL1        0.0090
     24 C          -8.0829    2.0589   -1.3373 C.ar    1  UNL1       -0.0107
     25 C          -9.3102    2.4929   -0.7005 C.ar    1  UNL1        0.1202
     26 O         -10.3241    2.6973   -1.6789 O.3     1  UNL1       -0.5067
     27 C          -9.5279    2.6696    0.5786 C.ar    1  UNL1        0.0151
     28 C          -8.5225    2.4486    1.5526 C.ar    1  UNL1        0.1275
     29 F          -8.7350    2.5713    2.8293 F       1  UNL1       -0.2053
     30 C          -7.3130    2.0345    0.9449 C.ar    1  UNL1       -0.0170
     31 C          -4.9392    2.7265   -1.0387 C.ar    1  UNL1        0.0859
     32 C          -5.1784    4.0350   -1.2255 C.ar    1  UNL1        0.1308
     33 N          -6.5105    4.5975   -1.0653 N.pl3   1  UNL1       -0.3425
     34 N          -4.1529    4.9169   -1.4637 N.ar    1  UNL1       -0.2204
     35 C          -2.9111    4.3744   -1.4879 C.ar    1  UNL1        0.1204
     36 N          -2.6170    3.0994   -1.3066 N.ar    1  UNL1       -0.2161
     37 C          -3.6488    2.2052   -1.0791 C.ar    1  UNL1        0.1642
     38 N          -0.5708   -0.8961    0.1980 N.ar    1  UNL1       -0.2902
     39 C          -1.2418   -1.3789    1.3952 C.3     1  UNL1        0.0534
     40 C          -1.6578   -2.8880    1.3449 C.ar    1  UNL1       -0.0160
     41 C          -2.9277   -3.0912    0.8076 C.ar    1  UNL1       -0.0563
     42 C          -3.4357   -4.4741    0.8276 C.ar    1  UNL1       -0.0614
     43 C          -2.6307   -5.3545    1.3335 C.ar    1  UNL1       -0.0612
     44 C          -1.4198   -5.2469    1.8441 C.ar    1  UNL1       -0.0498
     45 C          -0.8558   -3.8154    1.8436 C.ar    1  UNL1        0.0597
     46 C           0.5340   -3.8460    2.2627 C.3     1  UNL1        0.4177
     47 F           1.4694   -3.8869    1.2381 F       1  UNL1       -0.1659
     48 F           0.8134   -5.0343    2.9124 F       1  UNL1       -0.1659
     49 F           0.8196   -2.8587    3.2054 F       1  UNL1       -0.1659
     50 C           0.6994   -1.1167   -0.0422 C.ar    1  UNL1        0.2633
     51 O           1.4686   -1.2762    0.9784 O.2     1  UNL1       -0.2669
     52 C           1.1670   -1.1427   -1.3677 C.ar    1  UNL1        0.0802
     53 H          11.6581    1.6203   -0.5631 H       1  UNL1        0.0524
     54 H          10.6970    0.3773    0.3321 H       1  UNL1        0.0524
     55 H           9.9586    1.1606   -1.1036 H       1  UNL1        0.0524
     56 H           8.7656    3.2692    1.7483 H       1  UNL1        0.0582
     57 H           8.1401    2.4303    0.3585 H       1  UNL1        0.0582
     58 H           9.3513    0.9991    2.7844 H       1  UNL1        0.0583
     59 H           7.5944    1.2596    2.3166 H       1  UNL1        0.0583
     60 H           7.4742    0.7687   -0.3873 H       1  UNL1        0.0583
     61 H           8.0810   -0.8960   -0.5934 H       1  UNL1        0.0583
     62 H           6.6385   -1.8102    1.1836 H       1  UNL1        0.0583
     63 H           5.7285   -0.8895   -0.1469 H       1  UNL1        0.0583
     64 H           4.8855   -1.7973    2.5898 H       1  UNL1        0.0697
     65 H           4.1170   -0.2243    2.8258 H       1  UNL1        0.0697
     66 H           3.9736   -2.2562   -2.6777 H       1  UNL1        0.0630
     67 H           2.4614   -2.1085   -4.6886 H       1  UNL1        0.0619
     68 H           0.1968   -1.2329   -4.4513 H       1  UNL1        0.0639
     69 H          -2.0407    0.9250    0.3214 H       1  UNL1        0.0590
     70 H          -3.1138   -0.4050    0.6289 H       1  UNL1        0.0590
     71 H          -7.9895    1.8890   -2.3600 H       1  UNL1        0.0661
     72 H         -10.4149    3.6680   -1.8889 H       1  UNL1        0.2921
     73 H         -10.4969    3.0112    1.0457 H       1  UNL1        0.0683
     74 H          -6.5087    1.8272    1.6902 H       1  UNL1        0.0653
     75 H          -6.9832    4.9886   -1.8827 H       1  UNL1        0.1437
     76 H          -7.0104    4.6425   -0.1312 H       1  UNL1        0.1437
     77 H          -2.0423    5.0183   -1.5974 H       1  UNL1        0.1048
     78 H          -2.0089   -0.8353    1.8600 H       1  UNL1        0.0543
     79 H          -0.3460   -1.4075    2.1475 H       1  UNL1        0.0543
     80 H          -3.5678   -2.3582    0.4288 H       1  UNL1        0.0621
     81 H          -4.4642   -4.5518    0.4144 H       1  UNL1        0.0618
     82 H          -3.0369   -6.4756    1.3305 H       1  UNL1        0.0618
     83 H          -0.8436   -6.0114    2.1932 H       1  UNL1        0.0623
@<TRIPOS>BOND
     1     1     2    1
     2     2     3    1
     3     3     4    1
     4     4     5    1
     5     5     6    1
     6     6     7    1
     7     7     8    1
     8     8     9    1
     9     9    10    1
    10    10    11    3
    11    11    12    1
    12    12    13   ar
    13    13    14   ar
    14    14    15   ar
    15    15    16   ar
    16    16    17   ar
    17    17    18   ar
    18    18    19    1
    19    19    20    1
    20    20    21   ar
    21    21    22   ar
    22    22    23    1
    23    23    24   ar
    24    24    25   ar
    25    25    26    1
    26    25    27   ar
    27    27    28   ar
    28    28    29    1
    29    28    30   ar
    30    22    31   ar
    31    31    32   ar
    32    32    33    1
    33    32    34   ar
    34    34    35   ar
    35    35    36   ar
    36    36    37   ar
    37    18    38   ar
    38    38    39    1
    39    39    40    1
    40    40    41   ar
    41    41    42   ar
    42    42    43   ar
    43    43    44   ar
    44    44    45   ar
    45    45    46    1
    46    46    47    1
    47    46    48    1
    48    46    49    1
    49    38    50   ar
    50    50    51    2
    51    50    52   ar
    52    52    12   ar
    53    52    16   ar
    54    37    20   ar
    55    45    40   ar
    56    30    23   ar
    57    37    31   ar
    58     1    53    1
    59     1    54    1
    60     1    55    1
    61     3    56    1
    62     3    57    1
    63     4    58    1
    64     4    59    1
    65     6    60    1
    66     6    61    1
    67     7    62    1
    68     7    63    1
    69     9    64    1
    70     9    65    1
    71    13    66    1
    72    14    67    1
    73    15    68    1
    74    19    69    1
    75    19    70    1
    76    24    71    1
    77    26    72    1
    78    27    73    1
    79    30    74    1
    80    33    75    1
    81    33    76    1
    82    35    77    1
    83    39    78    1
    84    39    79    1
    85    41    80    1
    86    42    81    1
    87    43    82    1
    88    44    83    1
