@<TRIPOS>MOLECULE
*****
 59 65 0 0 0
SMALL
GASTEIGER

@<TRIPOS>ATOM
      1 C          -4.1471   -3.9680   -0.7223 C.3     1  UNL1       -0.0361
      2 C          -3.7337   -2.5944   -0.3374 C.ar    1  UNL1       -0.0041
      3 C          -2.3796   -2.3110   -0.2225 C.ar    1  UNL1       -0.0324
      4 C          -1.8979   -1.0693    0.1285 C.ar    1  UNL1        0.0545
      5 N          -0.5416   -0.7280    0.2671 N.am    1  UNL1       -0.2531
      6 C           0.5528   -1.6114    0.1123 C.2     1  UNL1        0.2705
      7 O           0.5886   -2.8478   -0.1918 O.2     1  UNL1       -0.2679
      8 C           1.8211   -0.9040    0.3616 C.ar    1  UNL1        0.1367
      9 C           1.4848    0.3907    0.6601 C.ar    1  UNL1        0.0315
     10 C           2.6802    1.0330    0.9030 C.ar    1  UNL1        0.0726
     11 C           2.8787    2.4555    1.2713 C.3     1  UNL1        0.0035
     12 C           3.0626    3.4602    0.1656 C.3     1  UNL1       -0.0441
     13 C           4.2259    3.0319    0.9547 C.3     1  UNL1       -0.0441
     14 N           3.6700    0.1395    0.7490 N.ar    1  UNL1       -0.1687
     15 N           3.1630   -1.0446    0.4191 N.ar    1  UNL1       -0.2092
     16 C           3.9120   -2.2310    0.1752 C.ar    1  UNL1        0.1530
     17 C           4.7028   -2.8266    1.1422 C.ar    1  UNL1        0.0020
     18 C           5.2579   -3.9334    0.5376 C.ar    1  UNL1        0.0515
     19 N           4.7973   -3.9575   -0.7170 N.ar    1  UNL1       -0.1780
     20 N           3.9879   -2.9480   -0.9615 N.ar    1  UNL1       -0.2500
     21 C           3.3153   -2.6694   -2.2087 C.3     1  UNL1        0.0324
     22 C           0.0132    0.5631    0.5872 C.3     1  UNL1        0.0855
     23 C          -0.3033    1.6428   -0.3451 C.ar    1  UNL1       -0.0221
     24 C          -0.6118    2.8922    0.1466 C.ar    1  UNL1       -0.0551
     25 C          -0.9194    3.9550   -0.6655 C.ar    1  UNL1       -0.0431
     26 C          -0.9271    3.7921   -2.0318 C.ar    1  UNL1        0.0410
     27 CL         -1.3245    5.1658   -3.0738 Cl      1  UNL1       -0.0835
     28 C          -0.6235    2.5566   -2.5591 C.ar    1  UNL1       -0.0431
     29 C          -0.3128    1.4874   -1.7080 C.ar    1  UNL1       -0.0551
     30 C          -2.8852   -0.1027    0.3638 C.ar    1  UNL1        0.0344
     31 N          -4.1915   -0.3778    0.2524 N.ar    1  UNL1       -0.2846
     32 C          -5.2849    0.3924    0.4311 C.ar    1  UNL1        0.1347
     33 C          -5.2231    1.8256    0.8225 C.3     1  UNL1       -0.0041
     34 N          -6.3755   -0.3655    0.1945 N.ar    1  UNL1       -0.1340
     35 N          -5.9854   -1.5882   -0.1270 N.ar    1  UNL1       -0.1292
     36 C          -4.6293   -1.5957   -0.0910 C.ar    1  UNL1        0.1641
     37 H          -4.4991   -4.4829    0.1782 H       1  UNL1        0.0279
     38 H          -4.9456   -3.8626   -1.5072 H       1  UNL1        0.0279
     39 H          -3.3045   -4.4814   -1.1919 H       1  UNL1        0.0279
     40 H          -1.6404   -3.1068   -0.4189 H       1  UNL1        0.0640
     41 H           2.4588    2.7814    2.2447 H       1  UNL1        0.0365
     42 H           2.8828    3.0366   -0.8553 H       1  UNL1        0.0272
     43 H           2.5631    4.4346    0.3212 H       1  UNL1        0.0272
     44 H           4.9784    2.4191    0.4195 H       1  UNL1        0.0272
     45 H           4.6743    3.7822    1.6245 H       1  UNL1        0.0272
     46 H           4.8739   -2.5184    2.1657 H       1  UNL1        0.0670
     47 H           5.9294   -4.6055    1.0484 H       1  UNL1        0.0848
     48 H           2.8054   -1.6975   -2.1365 H       1  UNL1        0.0473
     49 H           4.0268   -2.6497   -3.0673 H       1  UNL1        0.0473
     50 H           2.5552   -3.4384   -2.4671 H       1  UNL1        0.0473
     51 H          -0.3210    0.8010    1.6179 H       1  UNL1        0.0606
     52 H          -0.6145    3.0528    1.2140 H       1  UNL1        0.0621
     53 H          -1.1610    4.9348   -0.2691 H       1  UNL1        0.0632
     54 H          -0.6353    2.4504   -3.6332 H       1  UNL1        0.0632
     55 H          -0.0846    0.5512   -2.1581 H       1  UNL1        0.0621
     56 H          -2.5571    0.8736    0.6427 H       1  UNL1        0.0833
     57 H          -4.6594    1.9810    1.7579 H       1  UNL1        0.0308
     58 H          -4.8702    2.4753   -0.0084 H       1  UNL1        0.0308
     59 H          -6.2726    2.1600    1.0381 H       1  UNL1        0.0308
@<TRIPOS>BOND
     1     1     2    1
     2     2     3   ar
     3     3     4   ar
     4     4     5    1
     5     5     6   am
     6     6     7    2
     7     6     8    1
     8     8     9   ar
     9     9    10   ar
    10    10    11    1
    11    11    12    1
    12    12    13    1
    13    10    14   ar
    14    14    15   ar
    15    15    16    1
    16    16    17   ar
    17    17    18   ar
    18    18    19   ar
    19    19    20   ar
    20    20    21    1
    21     9    22    1
    22    22    23    1
    23    23    24   ar
    24    24    25   ar
    25    25    26   ar
    26    26    27    1
    27    26    28   ar
    28    28    29   ar
    29     4    30   ar
    30    30    31   ar
    31    31    32   ar
    32    32    33    1
    33    32    34   ar
    34    34    35   ar
    35    35    36   ar
    36    36     2   ar
    37    22     5    1
    38    29    23   ar
    39    36    31   ar
    40    15     8   ar
    41    20    16   ar
    42    13    11    1
    43     1    37    1
    44     1    38    1
    45     1    39    1
    46     3    40    1
    47    11    41    1
    48    12    42    1
    49    12    43    1
    50    13    44    1
    51    13    45    1
    52    17    46    1
    53    18    47    1
    54    21    48    1
    55    21    49    1
    56    21    50    1
    57    22    51    1
    58    24    52    1
    59    25    53    1
    60    28    54    1
    61    29    55    1
    62    30    56    1
    63    33    57    1
    64    33    58    1
    65    33    59    1
