
     RDKit          3D

 59 65  0  0  0  0  0  0  0  0999 V2000
   -4.1471   -3.9680   -0.7223 C   0  0  0  0  0  0  0  0  0  0  0  0
   -3.7337   -2.5944   -0.3374 C   0  0  0  0  0  0  0  0  0  0  0  0
   -2.3796   -2.3110   -0.2225 C   0  0  0  0  0  0  0  0  0  0  0  0
   -1.8979   -1.0693    0.1285 C   0  0  0  0  0  0  0  0  0  0  0  0
   -0.5416   -0.7280    0.2671 N   0  0  0  0  0  0  0  0  0  0  0  0
    0.5528   -1.6114    0.1123 C   0  0  0  0  0  0  0  0  0  0  0  0
    0.5886   -2.8478   -0.1918 O   0  0  0  0  0  0  0  0  0  0  0  0
    1.8211   -0.9040    0.3616 C   0  0  0  0  0  0  0  0  0  0  0  0
    1.4848    0.3907    0.6601 C   0  0  0  0  0  0  0  0  0  0  0  0
    2.6802    1.0330    0.9030 C   0  0  0  0  0  0  0  0  0  0  0  0
    2.8787    2.4555    1.2713 C   0  0  0  0  0  0  0  0  0  0  0  0
    3.0626    3.4602    0.1656 C   0  0  0  0  0  0  0  0  0  0  0  0
    4.2259    3.0319    0.9547 C   0  0  0  0  0  0  0  0  0  0  0  0
    3.6700    0.1395    0.7490 N   0  0  0  0  0  0  0  0  0  0  0  0
    3.1630   -1.0446    0.4191 N   0  0  0  0  0  0  0  0  0  0  0  0
    3.9120   -2.2310    0.1752 C   0  0  0  0  0  0  0  0  0  0  0  0
    4.7028   -2.8266    1.1422 C   0  0  0  0  0  0  0  0  0  0  0  0
    5.2579   -3.9334    0.5376 C   0  0  0  0  0  0  0  0  0  0  0  0
    4.7973   -3.9575   -0.7170 N   0  0  0  0  0  0  0  0  0  0  0  0
    3.9879   -2.9480   -0.9615 N   0  0  0  0  0  0  0  0  0  0  0  0
    3.3153   -2.6694   -2.2087 C   0  0  0  0  0  0  0  0  0  0  0  0
    0.0132    0.5631    0.5872 C   0  0  0  0  0  0  0  0  0  0  0  0
   -0.3033    1.6428   -0.3451 C   0  0  0  0  0  0  0  0  0  0  0  0
   -0.6118    2.8922    0.1466 C   0  0  0  0  0  0  0  0  0  0  0  0
   -0.9194    3.9550   -0.6655 C   0  0  0  0  0  0  0  0  0  0  0  0
   -0.9271    3.7921   -2.0318 C   0  0  0  0  0  0  0  0  0  0  0  0
   -1.3245    5.1658   -3.0738 Cl  0  0  0  0  0  0  0  0  0  0  0  0
   -0.6235    2.5566   -2.5591 C   0  0  0  0  0  0  0  0  0  0  0  0
   -0.3128    1.4874   -1.7080 C   0  0  0  0  0  0  0  0  0  0  0  0
   -2.8852   -0.1027    0.3638 C   0  0  0  0  0  0  0  0  0  0  0  0
   -4.1915   -0.3778    0.2524 N   0  0  0  0  0  0  0  0  0  0  0  0
   -5.2849    0.3924    0.4311 C   0  0  0  0  0  0  0  0  0  0  0  0
   -5.2231    1.8256    0.8225 C   0  0  0  0  0  0  0  0  0  0  0  0
   -6.3755   -0.3655    0.1945 N   0  0  0  0  0  0  0  0  0  0  0  0
   -5.9854   -1.5882   -0.1270 N   0  0  0  0  0  0  0  0  0  0  0  0
   -4.6293   -1.5957   -0.0910 C   0  0  0  0  0  0  0  0  0  0  0  0
   -4.4991   -4.4829    0.1782 H   0  0  0  0  0  0  0  0  0  0  0  0
   -4.9456   -3.8626   -1.5072 H   0  0  0  0  0  0  0  0  0  0  0  0
   -3.3045   -4.4814   -1.1919 H   0  0  0  0  0  0  0  0  0  0  0  0
   -1.6404   -3.1068   -0.4189 H   0  0  0  0  0  0  0  0  0  0  0  0
    2.4588    2.7814    2.2447 H   0  0  0  0  0  0  0  0  0  0  0  0
    2.8828    3.0366   -0.8553 H   0  0  0  0  0  0  0  0  0  0  0  0
    2.5631    4.4346    0.3212 H   0  0  0  0  0  0  0  0  0  0  0  0
    4.9784    2.4191    0.4195 H   0  0  0  0  0  0  0  0  0  0  0  0
    4.6743    3.7822    1.6245 H   0  0  0  0  0  0  0  0  0  0  0  0
    4.8739   -2.5184    2.1657 H   0  0  0  0  0  0  0  0  0  0  0  0
    5.9294   -4.6055    1.0484 H   0  0  0  0  0  0  0  0  0  0  0  0
    2.8054   -1.6975   -2.1365 H   0  0  0  0  0  0  0  0  0  0  0  0
    4.0268   -2.6497   -3.0673 H   0  0  0  0  0  0  0  0  0  0  0  0
    2.5552   -3.4384   -2.4671 H   0  0  0  0  0  0  0  0  0  0  0  0
   -0.3210    0.8010    1.6179 H   0  0  0  0  0  0  0  0  0  0  0  0
   -0.6145    3.0528    1.2140 H   0  0  0  0  0  0  0  0  0  0  0  0
   -1.1610    4.9348   -0.2691 H   0  0  0  0  0  0  0  0  0  0  0  0
   -0.6353    2.4504   -3.6332 H   0  0  0  0  0  0  0  0  0  0  0  0
   -0.0846    0.5512   -2.1581 H   0  0  0  0  0  0  0  0  0  0  0  0
   -2.5571    0.8736    0.6427 H   0  0  0  0  0  0  0  0  0  0  0  0
   -4.6594    1.9810    1.7579 H   0  0  0  0  0  0  0  0  0  0  0  0
   -4.8702    2.4753   -0.0084 H   0  0  0  0  0  0  0  0  0  0  0  0
   -6.2726    2.1600    1.0381 H   0  0  0  0  0  0  0  0  0  0  0  0
  1  2  1  0
  2  3  2  0
  3  4  1  0
  4  5  1  0
  5  6  1  0
  6  7  2  0
  6  8  1  0
  8  9  2  0
  9 10  1  0
 10 11  1  0
 11 12  1  0
 12 13  1  0
 10 14  2  0
 14 15  1  0
 15 16  1  0
 16 17  2  0
 17 18  1  0
 18 19  2  0
 19 20  1  0
 20 21  1  0
  9 22  1  0
 22 23  1  0
 23 24  2  0
 24 25  1  0
 25 26  2  0
 26 27  1  0
 26 28  1  0
 28 29  2  0
  4 30  2  0
 30 31  1  0
 31 32  1  0
 32 33  1  0
 32 34  2  0
 34 35  1  0
 35 36  2  0
 36  2  1  0
 22  5  1  0
 29 23  1  0
 36 31  1  0
 15  8  1  0
 20 16  1  0
 13 11  1  0
  1 37  1  0
  1 38  1  0
  1 39  1  0
  3 40  1  0
 11 41  1  0
 12 42  1  0
 12 43  1  0
 13 44  1  0
 13 45  1  0
 17 46  1  0
 18 47  1  0
 21 48  1  0
 21 49  1  0
 21 50  1  0
 22 51  1  0
 24 52  1  0
 25 53  1  0
 28 54  1  0
 29 55  1  0
 30 56  1  0
 33 57  1  0
 33 58  1  0
 33 59  1  0
M  END
$$$$
