
     RDKit          3D

 64 68  0  0  0  0  0  0  0  0999 V2000
    8.8029   -1.8842    0.1281 C   0  0  0  0  0  0  0  0  0  0  0  0
    8.4215   -0.6746   -0.6339 C   0  0  0  0  0  0  0  0  0  0  0  0
    9.3027    0.1900   -0.8513 O   0  0  0  0  0  0  0  0  0  0  0  0
    7.1083   -0.5072   -1.0970 N   0  0  0  0  0  0  0  0  0  0  0  0
    6.7366    0.6665   -1.8357 C   0  0  0  0  0  0  0  0  0  0  0  0
    5.2333    0.7811   -1.9556 C   0  0  0  0  0  0  0  0  0  0  0  0
    4.5091    0.2412   -0.8496 N   0  0  0  0  0  0  0  0  0  0  0  0
    3.2089    0.7387   -0.5477 C   0  0  0  0  0  0  0  0  0  0  0  0
    2.5582    0.3798    0.6116 C   0  0  0  0  0  0  0  0  0  0  0  0
    1.2899    0.8240    0.9595 C   0  0  0  0  0  0  0  0  0  0  0  0
    0.6357    1.6722    0.1015 C   0  0  0  0  0  0  0  0  0  0  0  0
   -0.6168    2.1532    0.3611 O   0  0  0  0  0  0  0  0  0  0  0  0
   -1.4402    1.8954    1.3997 C   0  0  0  0  0  0  0  0  0  0  0  0
   -1.9303    0.4689    1.4553 C   0  0  0  0  0  0  0  0  0  0  0  0
   -3.0702    0.4241    2.4868 C   0  0  0  0  0  0  0  0  0  0  0  0
   -3.7318   -0.7109    1.9716 O   0  0  0  0  0  0  0  0  0  0  0  0
   -3.8833   -0.3912    0.6471 C   0  0  0  0  0  0  0  0  0  0  0  0
   -4.0045   -1.4854   -0.3342 C   0  0  0  0  0  0  0  0  0  0  0  0
   -5.0717   -2.4178   -0.2572 N   0  0  0  0  0  0  0  0  0  0  0  0
   -5.0859   -3.5488    0.4558 C   0  0  0  0  0  0  0  0  0  0  0  0
   -6.2669   -4.2056    0.2314 C   0  0  0  0  0  0  0  0  0  0  0  0
   -6.9747   -3.4594   -0.6297 N   0  0  0  0  0  0  0  0  0  0  0  0
   -6.2584   -2.3691   -0.9345 C   0  0  0  0  0  0  0  0  0  0  0  0
   -4.9071    0.6568    0.4943 C   0  0  0  0  0  0  0  0  0  0  0  0
   -4.5886    1.7957   -0.2427 C   0  0  0  0  0  0  0  0  0  0  0  0
   -5.5318    2.7681   -0.4891 C   0  0  0  0  0  0  0  0  0  0  0  0
   -6.8137    2.6114    0.0024 C   0  0  0  0  0  0  0  0  0  0  0  0
   -8.0283    3.8572   -0.3134 Cl  0  0  0  0  0  0  0  0  0  0  0  0
   -7.1041    1.4903    0.7223 C   0  0  0  0  0  0  0  0  0  0  0  0
   -6.1714    0.4875    0.9906 C   0  0  0  0  0  0  0  0  0  0  0  0
   -6.6343   -0.8711    2.0104 Cl  0  0  0  0  0  0  0  0  0  0  0  0
   -2.6039    0.2168    0.2883 O   0  0  0  0  0  0  0  0  0  0  0  0
    1.2742    2.0598   -1.0939 C   0  0  0  0  0  0  0  0  0  0  0  0
    2.5198    1.6021   -1.3986 C   0  0  0  0  0  0  0  0  0  0  0  0
    5.0318   -0.8171   -0.0010 C   0  0  0  0  0  0  0  0  0  0  0  0
    6.1166   -1.5127   -0.8358 C   0  0  0  0  0  0  0  0  0  0  0  0
    9.8366   -1.8055    0.5275 H   0  0  0  0  0  0  0  0  0  0  0  0
    8.7169   -2.7442   -0.5671 H   0  0  0  0  0  0  0  0  0  0  0  0
    8.1351   -2.0810    0.9890 H   0  0  0  0  0  0  0  0  0  0  0  0
    7.1372    1.5877   -1.3629 H   0  0  0  0  0  0  0  0  0  0  0  0
    7.1605    0.6041   -2.8651 H   0  0  0  0  0  0  0  0  0  0  0  0
    4.9418    0.2698   -2.8994 H   0  0  0  0  0  0  0  0  0  0  0  0
    4.9798    1.8688   -2.1352 H   0  0  0  0  0  0  0  0  0  0  0  0
    3.0510   -0.2985    1.3272 H   0  0  0  0  0  0  0  0  0  0  0  0
    0.8681    0.5001    1.9251 H   0  0  0  0  0  0  0  0  0  0  0  0
   -2.3305    2.5718    1.3525 H   0  0  0  0  0  0  0  0  0  0  0  0
   -0.9574    2.0837    2.4216 H   0  0  0  0  0  0  0  0  0  0  0  0
   -1.1759   -0.2763    1.6995 H   0  0  0  0  0  0  0  0  0  0  0  0
   -2.7133    0.2932    3.5063 H   0  0  0  0  0  0  0  0  0  0  0  0
   -3.6470    1.3518    2.3446 H   0  0  0  0  0  0  0  0  0  0  0  0
   -4.0767   -0.9988   -1.3698 H   0  0  0  0  0  0  0  0  0  0  0  0
   -3.0278   -2.0617   -0.4442 H   0  0  0  0  0  0  0  0  0  0  0  0
   -4.2921   -3.8911    1.1064 H   0  0  0  0  0  0  0  0  0  0  0  0
   -6.5754   -5.1713    0.6791 H   0  0  0  0  0  0  0  0  0  0  0  0
   -6.5905   -1.5922   -1.6106 H   0  0  0  0  0  0  0  0  0  0  0  0
   -3.5842    1.9282   -0.6334 H   0  0  0  0  0  0  0  0  0  0  0  0
   -5.3227    3.6687   -1.0585 H   0  0  0  0  0  0  0  0  0  0  0  0
   -8.0966    1.3678    1.1036 H   0  0  0  0  0  0  0  0  0  0  0  0
    0.7145    2.7420   -1.7528 H   0  0  0  0  0  0  0  0  0  0  0  0
    2.9869    1.9211   -2.3397 H   0  0  0  0  0  0  0  0  0  0  0  0
    4.2274   -1.5386    0.2556 H   0  0  0  0  0  0  0  0  0  0  0  0
    5.4994   -0.3425    0.8759 H   0  0  0  0  0  0  0  0  0  0  0  0
    6.5126   -2.3972   -0.3053 H   0  0  0  0  0  0  0  0  0  0  0  0
    5.5905   -1.8022   -1.7865 H   0  0  0  0  0  0  0  0  0  0  0  0
  1  2  1  0
  2  3  2  0
  2  4  1  0
  4  5  1  0
  5  6  1  0
  6  7  1  0
  7  8  1  0
  8  9  2  0
  9 10  1  0
 10 11  2  0
 11 12  1  0
 12 13  1  0
 13 14  1  0
 14 15  1  0
 15 16  1  0
 16 17  1  0
 17 18  1  0
 18 19  1  0
 19 20  1  0
 20 21  2  0
 21 22  1  0
 22 23  2  0
 17 24  1  0
 24 25  2  0
 25 26  1  0
 26 27  2  0
 27 28  1  0
 27 29  1  0
 29 30  2  0
 30 31  1  0
 17 32  1  0
 11 33  1  0
 33 34  2  0
  7 35  1  0
 35 36  1  0
 36  4  1  0
 34  8  1  0
 32 14  1  0
 23 19  1  0
 30 24  1  0
  1 37  1  0
  1 38  1  0
  1 39  1  0
  5 40  1  0
  5 41  1  0
  6 42  1  0
  6 43  1  0
  9 44  1  0
 10 45  1  0
 13 46  1  0
 13 47  1  0
 14 48  1  0
 15 49  1  0
 15 50  1  0
 18 51  1  0
 18 52  1  0
 20 53  1  0
 21 54  1  0
 23 55  1  0
 25 56  1  0
 26 57  1  0
 29 58  1  0
 33 59  1  0
 34 60  1  0
 35 61  1  0
 35 62  1  0
 36 63  1  0
 36 64  1  0
M  END
$$$$
