@<TRIPOS>MOLECULE
*****
 64 68 0 0 0
SMALL
GASTEIGER

@<TRIPOS>ATOM
      1 C           8.8029   -1.8842    0.1281 C.3     1  UNL1        0.0124
      2 C           8.4215   -0.6746   -0.6339 C.2     1  UNL1        0.2126
      3 O           9.3027    0.1900   -0.8513 O.2     1  UNL1       -0.2759
      4 N           7.1083   -0.5072   -1.0970 N.am    1  UNL1       -0.2987
      5 C           6.7366    0.6665   -1.8357 C.3     1  UNL1        0.0304
      6 C           5.2333    0.7811   -1.9556 C.3     1  UNL1        0.0280
      7 N           4.5091    0.2412   -0.8496 N.pl3   1  UNL1       -0.3269
      8 C           3.2089    0.7387   -0.5477 C.ar    1  UNL1        0.0300
      9 C           2.5582    0.3798    0.6116 C.ar    1  UNL1       -0.0372
     10 C           1.2899    0.8240    0.9595 C.ar    1  UNL1       -0.0182
     11 C           0.6357    1.6722    0.1015 C.ar    1  UNL1        0.1207
     12 O          -0.6168    2.1532    0.3611 O.3     1  UNL1       -0.4893
     13 C          -1.4402    1.8954    1.3997 C.3     1  UNL1        0.1179
     14 C          -1.9303    0.4689    1.4553 C.3     1  UNL1        0.1195
     15 C          -3.0702    0.4241    2.4868 C.3     1  UNL1        0.0808
     16 O          -3.7318   -0.7109    1.9716 O.3     1  UNL1       -0.3406
     17 C          -3.8833   -0.3912    0.6471 C.3     1  UNL1        0.2169
     18 C          -4.0045   -1.4854   -0.3342 C.3     1  UNL1        0.0828
     19 N          -5.0717   -2.4178   -0.2572 N.ar    1  UNL1       -0.3313
     20 C          -5.0859   -3.5488    0.4558 C.ar    1  UNL1        0.0242
     21 C          -6.2669   -4.2056    0.2314 C.ar    1  UNL1        0.0454
     22 N          -6.9747   -3.4594   -0.6297 N.ar    1  UNL1       -0.2441
     23 C          -6.2584   -2.3691   -0.9345 C.ar    1  UNL1        0.0961
     24 C          -4.9071    0.6568    0.4943 C.ar    1  UNL1        0.0313
     25 C          -4.5886    1.7957   -0.2427 C.ar    1  UNL1       -0.0507
     26 C          -5.5318    2.7681   -0.4891 C.ar    1  UNL1       -0.0429
     27 C          -6.8137    2.6114    0.0024 C.ar    1  UNL1        0.0424
     28 CL         -8.0283    3.8572   -0.3134 Cl      1  UNL1       -0.0835
     29 C          -7.1041    1.4903    0.7223 C.ar    1  UNL1       -0.0246
     30 C          -6.1714    0.4875    0.9906 C.ar    1  UNL1        0.0507
     31 CL         -6.6343   -0.8711    2.0104 Cl      1  UNL1       -0.0830
     32 O          -2.6039    0.2168    0.2883 O.3     1  UNL1       -0.3343
     33 C           1.2742    2.0598   -1.0939 C.ar    1  UNL1       -0.0182
     34 C           2.5198    1.6021   -1.3986 C.ar    1  UNL1       -0.0372
     35 C           5.0318   -0.8171   -0.0010 C.3     1  UNL1        0.0280
     36 C           6.1166   -1.5127   -0.8358 C.3     1  UNL1        0.0304
     37 H           9.8366   -1.8055    0.5275 H       1  UNL1        0.0323
     38 H           8.7169   -2.7442   -0.5671 H       1  UNL1        0.0323
     39 H           8.1351   -2.0810    0.9890 H       1  UNL1        0.0323
     40 H           7.1372    1.5877   -1.3629 H       1  UNL1        0.0480
     41 H           7.1605    0.6041   -2.8651 H       1  UNL1        0.0480
     42 H           4.9418    0.2698   -2.8994 H       1  UNL1        0.0479
     43 H           4.9798    1.8688   -2.1352 H       1  UNL1        0.0479
     44 H           3.0510   -0.2985    1.3272 H       1  UNL1        0.0637
     45 H           0.8681    0.5001    1.9251 H       1  UNL1        0.0655
     46 H          -2.3305    2.5718    1.3525 H       1  UNL1        0.0723
     47 H          -0.9574    2.0837    2.4216 H       1  UNL1        0.0723
     48 H          -1.1759   -0.2763    1.6995 H       1  UNL1        0.0654
     49 H          -2.7133    0.2932    3.5063 H       1  UNL1        0.0588
     50 H          -3.6470    1.3518    2.3446 H       1  UNL1        0.0588
     51 H          -4.0767   -0.9988   -1.3698 H       1  UNL1        0.0549
     52 H          -3.0278   -2.0617   -0.4442 H       1  UNL1        0.0549
     53 H          -4.2921   -3.8911    1.1064 H       1  UNL1        0.0825
     54 H          -6.5754   -5.1713    0.6791 H       1  UNL1        0.0845
     55 H          -6.5905   -1.5922   -1.6106 H       1  UNL1        0.1029
     56 H          -3.5842    1.9282   -0.6334 H       1  UNL1        0.0623
     57 H          -5.3227    3.6687   -1.0585 H       1  UNL1        0.0632
     58 H          -8.0966    1.3678    1.1036 H       1  UNL1        0.0647
     59 H           0.7145    2.7420   -1.7528 H       1  UNL1        0.0655
     60 H           2.9869    1.9211   -2.3397 H       1  UNL1        0.0637
     61 H           4.2274   -1.5386    0.2556 H       1  UNL1        0.0479
     62 H           5.4994   -0.3425    0.8759 H       1  UNL1        0.0479
     63 H           6.5126   -2.3972   -0.3053 H       1  UNL1        0.0480
     64 H           5.5905   -1.8022   -1.7865 H       1  UNL1        0.0480
@<TRIPOS>BOND
     1     1     2    1
     2     2     3    2
     3     2     4   am
     4     4     5    1
     5     5     6    1
     6     6     7    1
     7     7     8    1
     8     8     9   ar
     9     9    10   ar
    10    10    11   ar
    11    11    12    1
    12    12    13    1
    13    13    14    1
    14    14    15    1
    15    15    16    1
    16    16    17    1
    17    17    18    1
    18    18    19    1
    19    19    20   ar
    20    20    21   ar
    21    21    22   ar
    22    22    23   ar
    23    17    24    1
    24    24    25   ar
    25    25    26   ar
    26    26    27   ar
    27    27    28    1
    28    27    29   ar
    29    29    30   ar
    30    30    31    1
    31    17    32    1
    32    11    33   ar
    33    33    34   ar
    34     7    35    1
    35    35    36    1
    36    36     4    1
    37    34     8   ar
    38    32    14    1
    39    23    19   ar
    40    30    24   ar
    41     1    37    1
    42     1    38    1
    43     1    39    1
    44     5    40    1
    45     5    41    1
    46     6    42    1
    47     6    43    1
    48     9    44    1
    49    10    45    1
    50    13    46    1
    51    13    47    1
    52    14    48    1
    53    15    49    1
    54    15    50    1
    55    18    51    1
    56    18    52    1
    57    20    53    1
    58    21    54    1
    59    23    55    1
    60    25    56    1
    61    26    57    1
    62    29    58    1
    63    33    59    1
    64    34    60    1
    65    35    61    1
    66    35    62    1
    67    36    63    1
    68    36    64    1
