@<TRIPOS>MOLECULE
*****
 61 63 0 0 0
SMALL
GASTEIGER

@<TRIPOS>ATOM
      1 C           1.7564   -1.0939    0.1046 C.3     1  UNK1        0.0874
      2 C           2.8974   -0.4526    0.8660 C.3     1  UNK1        0.0191
      3 S           4.4733   -0.5490    0.0208 S.3     1  UNK1       -0.1538
      4 C           5.7321    0.2561    1.0502 C.3     1  UNK1        0.0189
      5 C           7.0147    0.1453    0.2998 C.ar    1  UNK1       -0.0376
      6 C           7.2430    1.2187   -0.5506 C.ar    1  UNK1       -0.0578
      7 C           8.3774    1.3003   -1.3320 C.ar    1  UNK1       -0.0615
      8 C           9.3015    0.2789   -1.2553 C.ar    1  UNK1       -0.0617
      9 C           9.0643   -0.7829   -0.4067 C.ar    1  UNK1       -0.0615
     10 C           7.9235   -0.8660    0.3798 C.ar    1  UNK1       -0.0578
     11 N           0.5575   -0.9390    0.9051 N.am    1  UNK1       -0.3036
     12 C          -0.6169   -0.3389    0.4017 C.2     1  UNK1        0.2343
     13 O          -0.4999    0.0398   -0.8076 O.2     1  UNK1       -0.2738
     14 C          -1.8537   -0.1719    1.2079 C.3     1  UNK1        0.1048
     15 C          -2.3112   -1.5341    1.6551 C.3     1  UNK1       -0.0006
     16 C          -2.6002   -2.4080    0.5051 C.ar    1  UNK1       -0.0451
     17 C          -1.7717   -3.2743   -0.1742 C.ar    1  UNK1       -0.0585
     18 C          -2.2365   -4.0120   -1.2391 C.ar    1  UNK1       -0.0615
     19 C          -3.5357   -3.9337   -1.6864 C.ar    1  UNK1       -0.0617
     20 C          -4.3703   -3.0673   -1.0095 C.ar    1  UNK1       -0.0615
     21 C          -3.9184   -2.3155    0.0666 C.ar    1  UNK1       -0.0585
     22 N          -2.8609    0.4860    0.3996 N.am    1  UNK1       -0.2876
     23 C          -3.4022    1.7535    0.7506 C.2     0  UNK0        0.3029
     24 O          -3.1430    2.4932    1.7395 O.2     0  UNK0       -0.2526
     25 N          -4.3856    2.4452    0.0040 N.am    0  UNK0       -0.2813
     26 C          -4.7477    3.7180    0.6033 C.3     0  UNK0        0.0396
     27 C          -6.1637    4.0341    0.1398 C.3     0  UNK0        0.0635
     28 O          -6.2168    4.2658   -1.2321 O.3     0  UNK0       -0.3767
     29 C          -5.3319    3.4610   -1.9370 C.3     0  UNK0        0.0635
     30 C          -5.0905    2.1387   -1.2200 C.3     0  UNK0        0.0396
     31 C           2.0952   -2.5410   -0.0471 C.2     1  UNK1        0.1412
     32 O           2.1086   -3.7447    0.0079 O.2     1  UNK1       -0.2990
     33 H           1.6475   -0.6996   -0.9095 H       1  UNK1        0.0582
     34 H           2.6295    0.6361    0.9322 H       1  UNK1        0.0399
     35 H           2.8954   -0.8107    1.9019 H       1  UNK1        0.0399
     36 H           5.4793    1.2983    1.2973 H       1  UNK1        0.0425
     37 H           5.8924   -0.2882    2.0032 H       1  UNK1        0.0425
     38 H           6.5528    2.0677   -0.6644 H       1  UNK1        0.0621
     39 H           8.5450    2.1570   -2.0014 H       1  UNK1        0.0618
     40 H          10.1978    0.3386   -1.8696 H       1  UNK1        0.0618
     41 H           9.7728   -1.5931   -0.3301 H       1  UNK1        0.0618
     42 H           7.6910   -1.6660    1.0535 H       1  UNK1        0.0621
     43 H           0.5909   -1.2927    1.8862 H       1  UNK1        0.1495
     44 H          -1.6046    0.4545    2.0879 H       1  UNK1        0.0598
     45 H          -1.4550   -1.9783    2.2430 H       1  UNK1        0.0336
     46 H          -3.1561   -1.4365    2.3352 H       1  UNK1        0.0336
     47 H          -0.7646   -3.2993    0.2165 H       1  UNK1        0.0620
     48 H          -1.4532   -4.6381   -1.6535 H       1  UNK1        0.0618
     49 H          -3.7887   -4.5560   -2.5270 H       1  UNK1        0.0618
     50 H          -5.3921   -3.0263   -1.3856 H       1  UNK1        0.0618
     51 H          -4.6868   -1.6929    0.4830 H       1  UNK1        0.0620
     52 H          -3.2062    0.0227   -0.4693 H       1  UNK1        0.1510
     53 H          -4.0870    4.4915    0.1612 H       0  UNK0        0.0488
     54 H          -4.7404    3.6932    1.6924 H       0  UNK0        0.0488
     55 H          -6.4859    4.9097    0.7291 H       0  UNK0        0.0575
     56 H          -6.8333    3.1930    0.4163 H       0  UNK0        0.0575
     57 H          -4.3447    3.9774   -2.0885 H       0  UNK0        0.0575
     58 H          -5.7472    3.3145   -2.9446 H       0  UNK0        0.0575
     59 H          -6.0933    1.6936   -1.0586 H       0  UNK0        0.0488
     60 H          -4.5189    1.5130   -1.9263 H       0  UNK0        0.0488
     61 H           2.9754   -2.7930   -0.6277 H       1  UNK1        0.1046
@<TRIPOS>BOND
     1     1     2    1
     2     2     3    1
     3     3     4    1
     4     4     5    1
     5     5     6   ar
     6     6     7   ar
     7     7     8   ar
     8     8     9   ar
     9     9    10   ar
    10     1    11    1
    11    11    12   am
    12    12    13    2
    13    12    14    1
    14    14    15    1
    15    15    16    1
    16    16    17   ar
    17    17    18   ar
    18    18    19   ar
    19    19    20   ar
    20    20    21   ar
    21    14    22    1
    22    22    23   am
    23    23    24    2
    24    23    25   am
    25    25    26    1
    26    26    27    1
    27    27    28    1
    28    28    29    1
    29    29    30    1
    30     1    31    1
    31    31    32    2
    32    10     5   ar
    33    21    16   ar
    34    30    25    1
    35     1    33    1
    36     2    34    1
    37     2    35    1
    38     4    36    1
    39     4    37    1
    40     6    38    1
    41     7    39    1
    42     8    40    1
    43     9    41    1
    44    10    42    1
    45    11    43    1
    46    14    44    1
    47    15    45    1
    48    15    46    1
    49    17    47    1
    50    18    48    1
    51    19    49    1
    52    20    50    1
    53    21    51    1
    54    22    52    1
    55    26    53    1
    56    26    54    1
    57    27    55    1
    58    27    56    1
    59    29    57    1
    60    29    58    1
    61    30    59    1
    62    30    60    1
    63    31    61    1
