
     RDKit          3D

 61 63  0  0  0  0  0  0  0  0999 V2000
    1.7564   -1.0939    0.1046 C   0  0  2  0  0  0  0  0  0  0  0  0
    2.8974   -0.4526    0.8660 C   0  0  0  0  0  0  0  0  0  0  0  0
    4.4733   -0.5490    0.0208 S   0  0  0  0  0  0  0  0  0  0  0  0
    5.7321    0.2561    1.0502 C   0  0  0  0  0  0  0  0  0  0  0  0
    7.0147    0.1453    0.2998 C   0  0  0  0  0  0  0  0  0  0  0  0
    7.2430    1.2187   -0.5506 C   0  0  0  0  0  0  0  0  0  0  0  0
    8.3774    1.3003   -1.3320 C   0  0  0  0  0  0  0  0  0  0  0  0
    9.3015    0.2789   -1.2553 C   0  0  0  0  0  0  0  0  0  0  0  0
    9.0643   -0.7829   -0.4067 C   0  0  0  0  0  0  0  0  0  0  0  0
    7.9235   -0.8660    0.3798 C   0  0  0  0  0  0  0  0  0  0  0  0
    0.5575   -0.9390    0.9051 N   0  0  0  0  0  0  0  0  0  0  0  0
   -0.6169   -0.3389    0.4017 C   0  0  0  0  0  0  0  0  0  0  0  0
   -0.4999    0.0398   -0.8076 O   0  0  0  0  0  0  0  0  0  0  0  0
   -1.8537   -0.1719    1.2079 C   0  0  2  0  0  0  0  0  0  0  0  0
   -2.3112   -1.5341    1.6551 C   0  0  0  0  0  0  0  0  0  0  0  0
   -2.6002   -2.4080    0.5051 C   0  0  0  0  0  0  0  0  0  0  0  0
   -1.7717   -3.2743   -0.1742 C   0  0  0  0  0  0  0  0  0  0  0  0
   -2.2365   -4.0120   -1.2391 C   0  0  0  0  0  0  0  0  0  0  0  0
   -3.5357   -3.9337   -1.6864 C   0  0  0  0  0  0  0  0  0  0  0  0
   -4.3703   -3.0673   -1.0095 C   0  0  0  0  0  0  0  0  0  0  0  0
   -3.9184   -2.3155    0.0666 C   0  0  0  0  0  0  0  0  0  0  0  0
   -2.8609    0.4860    0.3996 N   0  0  0  0  0  0  0  0  0  0  0  0
   -3.4022    1.7535    0.7506 C   0  0  0  0  0  0  0  0  0  0  0  0
   -3.1430    2.4932    1.7395 O   0  0  0  0  0  0  0  0  0  0  0  0
   -4.3856    2.4452    0.0040 N   0  0  0  0  0  0  0  0  0  0  0  0
   -4.7477    3.7180    0.6033 C   0  0  0  0  0  0  0  0  0  0  0  0
   -6.1637    4.0341    0.1398 C   0  0  0  0  0  0  0  0  0  0  0  0
   -6.2168    4.2658   -1.2321 O   0  0  0  0  0  0  0  0  0  0  0  0
   -5.3319    3.4610   -1.9370 C   0  0  0  0  0  0  0  0  0  0  0  0
   -5.0905    2.1387   -1.2200 C   0  0  0  0  0  0  0  0  0  0  0  0
    2.0952   -2.5410   -0.0471 C   0  0  0  0  0  0  0  0  0  0  0  0
    2.1086   -3.7447    0.0079 O   0  0  0  0  0  0  0  0  0  0  0  0
    1.6475   -0.6996   -0.9095 H   0  0  0  0  0  0  0  0  0  0  0  0
    2.6295    0.6361    0.9322 H   0  0  0  0  0  0  0  0  0  0  0  0
    2.8954   -0.8107    1.9019 H   0  0  0  0  0  0  0  0  0  0  0  0
    5.4793    1.2983    1.2973 H   0  0  0  0  0  0  0  0  0  0  0  0
    5.8924   -0.2882    2.0032 H   0  0  0  0  0  0  0  0  0  0  0  0
    6.5528    2.0677   -0.6644 H   0  0  0  0  0  0  0  0  0  0  0  0
    8.5450    2.1570   -2.0014 H   0  0  0  0  0  0  0  0  0  0  0  0
   10.1978    0.3386   -1.8696 H   0  0  0  0  0  0  0  0  0  0  0  0
    9.7728   -1.5931   -0.3301 H   0  0  0  0  0  0  0  0  0  0  0  0
    7.6910   -1.6660    1.0535 H   0  0  0  0  0  0  0  0  0  0  0  0
    0.5909   -1.2927    1.8862 H   0  0  0  0  0  0  0  0  0  0  0  0
   -1.6046    0.4545    2.0879 H   0  0  0  0  0  0  0  0  0  0  0  0
   -1.4550   -1.9783    2.2430 H   0  0  0  0  0  0  0  0  0  0  0  0
   -3.1561   -1.4365    2.3352 H   0  0  0  0  0  0  0  0  0  0  0  0
   -0.7646   -3.2993    0.2165 H   0  0  0  0  0  0  0  0  0  0  0  0
   -1.4532   -4.6381   -1.6535 H   0  0  0  0  0  0  0  0  0  0  0  0
   -3.7887   -4.5560   -2.5270 H   0  0  0  0  0  0  0  0  0  0  0  0
   -5.3921   -3.0263   -1.3856 H   0  0  0  0  0  0  0  0  0  0  0  0
   -4.6868   -1.6929    0.4830 H   0  0  0  0  0  0  0  0  0  0  0  0
   -3.2062    0.0227   -0.4693 H   0  0  0  0  0  0  0  0  0  0  0  0
   -4.0870    4.4915    0.1612 H   0  0  0  0  0  0  0  0  0  0  0  0
   -4.7404    3.6932    1.6924 H   0  0  0  0  0  0  0  0  0  0  0  0
   -6.4859    4.9097    0.7291 H   0  0  0  0  0  0  0  0  0  0  0  0
   -6.8333    3.1930    0.4163 H   0  0  0  0  0  0  0  0  0  0  0  0
   -4.3447    3.9774   -2.0885 H   0  0  0  0  0  0  0  0  0  0  0  0
   -5.7472    3.3145   -2.9446 H   0  0  0  0  0  0  0  0  0  0  0  0
   -6.0933    1.6936   -1.0586 H   0  0  0  0  0  0  0  0  0  0  0  0
   -4.5189    1.5130   -1.9263 H   0  0  0  0  0  0  0  0  0  0  0  0
    2.9754   -2.7930   -0.6277 H   0  0  0  0  0  0  0  0  0  0  0  0
  1  2  1  0
  2  3  1  0
  3  4  1  0
  4  5  1  0
  5  6  2  0
  6  7  1  0
  7  8  2  0
  8  9  1  0
  9 10  2  0
  1 11  1  0
 11 12  1  0
 12 13  2  0
 12 14  1  0
 14 15  1  0
 15 16  1  0
 16 17  2  0
 17 18  1  0
 18 19  2  0
 19 20  1  0
 20 21  2  0
 14 22  1  0
 22 23  1  0
 23 24  2  0
 23 25  1  0
 25 26  1  0
 26 27  1  0
 27 28  1  0
 28 29  1  0
 29 30  1  0
  1 31  1  0
 31 32  2  0
 10  5  1  0
 21 16  1  0
 30 25  1  0
  1 33  1  6
  2 34  1  0
  2 35  1  0
  4 36  1  0
  4 37  1  0
  6 38  1  0
  7 39  1  0
  8 40  1  0
  9 41  1  0
 10 42  1  0
 11 43  1  0
 14 44  1  1
 15 45  1  0
 15 46  1  0
 17 47  1  0
 18 48  1  0
 19 49  1  0
 20 50  1  0
 21 51  1  0
 22 52  1  0
 26 53  1  0
 26 54  1  0
 27 55  1  0
 27 56  1  0
 29 57  1  0
 29 58  1  0
 30 59  1  0
 30 60  1  0
 31 61  1  0
M  END
$$$$
