@<TRIPOS>MOLECULE
*****
 258 257 0 0 0
SMALL
GASTEIGER

@<TRIPOS>ATOM
      1 C           5.5437    7.9278    4.0210 C.3     1  UNL1       -0.0653
      2 C           4.5431    7.6773    5.1262 C.3     1  UNL1       -0.0559
      3 C           3.1195    7.7555    4.6234 C.3     1  UNL1       -0.0533
      4 C           2.8448    6.7252    3.5392 C.3     1  UNL1       -0.0531
      5 C           3.0630    5.3246    4.0652 C.3     1  UNL1       -0.0531
      6 C           2.1577    5.0090    5.2446 C.3     1  UNL1       -0.0531
      7 C           2.5344    3.5921    5.6744 C.3     1  UNL1       -0.0531
      8 C           1.6814    3.1857    6.8548 C.3     1  UNL1       -0.0531
      9 C           2.0841    1.7999    7.3063 C.3     1  UNL1       -0.0531
     10 C           1.8969    0.7980    6.2209 C.3     1  UNL1       -0.0531
     11 C           0.4593    0.6541    5.7597 C.3     1  UNL1       -0.0531
     12 C           0.4767   -0.3723    4.6138 C.3     1  UNL1       -0.0531
     13 C          -0.9007   -0.6020    4.1308 C.3     1  UNL1       -0.0531
     14 C          -1.1370   -1.5219    3.0048 C.3     1  UNL1       -0.0530
     15 C          -0.6830   -1.2419    1.6459 C.3     1  UNL1       -0.0526
     16 C           0.7464   -1.0626    1.3741 C.3     1  UNL1       -0.0430
     17 C           0.8462   -0.7754   -0.1711 C.3     1  UNL1        0.0449
     18 C           2.3215   -0.5564   -0.4025 C.2     1  UNL1        0.3072
     19 O           2.9424   -1.0890    0.4834 O.2     1  UNL1       -0.2509
     20 O           2.4685    0.1874   -1.5405 O.3     1  UNL1       -0.4608
     21 C           3.7586    0.6162   -2.0113 C.3     1  UNL1        0.1315
     22 C           4.3508    1.5743   -1.0316 C.3     1  UNL1        0.1605
     23 C           5.3931    2.5187   -1.6446 C.3     1  UNL1        0.0993
     24 O           5.4387    3.5905   -0.7243 O.3     1  UNL1       -0.2828
     25 P           5.4006    5.0905   -1.4497 P.3     1  UNL1        0.4751
     26 O           6.3726    6.1234   -0.4984 O.3     1  UNL1       -0.3025
     27 O           6.0090    5.0099   -2.8182 O.2     1  UNL1       -0.2273
     28 O           3.8028    5.7134   -1.5115 O.3     1  UNL1       -0.2840
     29 C           3.6537    6.5795   -0.4498 C.3     1  UNL1        0.0872
     30 C           2.4153    7.4255   -0.4886 C.3     1  UNL1        0.1028
     31 O           2.4271    8.1546   -1.6597 O.3     1  UNL1       -0.3872
     32 C           1.1462    6.6717   -0.2218 C.3     1  UNL1        0.0872
     33 O           0.0405    7.5072   -0.1321 O.3     1  UNL1       -0.2840
     34 P          -1.3700    6.6707    0.3621 P.3     1  UNL1        0.4751
     35 O          -2.3830    7.6762    1.2771 O.3     1  UNL1       -0.3025
     36 O          -0.8768    5.6010    1.3303 O.2     1  UNL1       -0.2273
     37 O          -2.0790    6.0552   -0.9912 O.3     1  UNL1       -0.2828
     38 C          -3.4779    6.1043   -1.0464 C.3     1  UNL1        0.0993
     39 C          -3.8195    5.6648   -2.4276 C.3     1  UNL1        0.1605
     40 C          -2.9828    4.4991   -2.8727 C.3     1  UNL1        0.1315
     41 O          -3.5081    3.2895   -2.4998 O.3     1  UNL1       -0.4608
     42 C          -3.7784    2.6079   -1.3745 C.2     1  UNL1        0.3072
     43 O          -3.4634    3.0874   -0.2827 O.2     1  UNL1       -0.2509
     44 C          -4.4350    1.3597   -1.7288 C.3     1  UNL1        0.0449
     45 C          -4.5367    0.3115   -0.6636 C.3     1  UNL1       -0.0430
     46 C          -5.1946    0.7269    0.6195 C.3     1  UNL1       -0.0526
     47 C          -5.3207   -0.4614    1.5807 C.3     1  UNL1       -0.0530
     48 C          -6.2771   -1.4977    1.0736 C.3     1  UNL1       -0.0531
     49 C          -6.3942   -2.7398    1.9413 C.3     1  UNL1       -0.0531
     50 C          -5.0768   -3.4814    1.9710 C.3     1  UNL1       -0.0531
     51 C          -5.1829   -4.7574    2.7895 C.3     1  UNL1       -0.0531
     52 C          -3.8533   -5.5129    2.7234 C.3     1  UNL1       -0.0531
     53 C          -3.8500   -6.7921    3.4902 C.3     1  UNL1       -0.0531
     54 C          -2.5107   -7.4908    3.3296 C.3     1  UNL1       -0.0531
     55 C          -2.2687   -7.8066    1.8529 C.3     1  UNL1       -0.0531
     56 C          -3.3446   -8.6949    1.3050 C.3     1  UNL1       -0.0531
     57 C          -3.1007   -8.9598   -0.1468 C.3     1  UNL1       -0.0531
     58 C          -1.8065   -9.6447   -0.4602 C.3     1  UNL1       -0.0533
     59 C          -1.7419   -9.8117   -1.9746 C.3     1  UNL1       -0.0559
     60 C          -1.7975   -8.4291   -2.5835 C.3     1  UNL1       -0.0653
     61 O          -5.1565    5.5358   -2.8024 O.3     1  UNL1       -0.4555
     62 C          -5.7423    6.3744   -3.6933 C.2     1  UNL1        0.3075
     63 O          -5.1061    7.3198   -4.2055 O.2     1  UNL1       -0.2508
     64 C          -7.1471    6.2920   -4.1670 C.3     1  UNL1        0.0450
     65 C          -7.7607    4.9267   -3.8758 C.3     1  UNL1       -0.0430
     66 C          -6.9835    3.8349   -4.5294 C.3     1  UNL1       -0.0526
     67 C          -7.5072    2.4285   -4.2997 C.3     1  UNL1       -0.0530
     68 C          -6.5295    1.4693   -4.9407 C.3     1  UNL1       -0.0531
     69 C          -6.3386    1.5911   -6.4130 C.3     1  UNL1       -0.0531
     70 C          -5.2127    0.6890   -6.8931 C.3     1  UNL1       -0.0531
     71 C          -5.4442   -0.7497   -6.6085 C.3     1  UNL1       -0.0531
     72 C          -4.2083   -1.5809   -7.0052 C.3     1  UNL1       -0.0531
     73 C          -3.0312   -1.1392   -6.1630 C.3     1  UNL1       -0.0531
     74 C          -1.7985   -1.8887   -6.5672 C.3     1  UNL1       -0.0531
     75 C          -0.5522   -1.5260   -5.8882 C.3     1  UNL1       -0.0531
     76 C           0.2622   -0.3467   -6.0647 C.3     1  UNL1       -0.0531
     77 C          -0.2734    1.0057   -6.0360 C.3     1  UNL1       -0.0531
     78 C          -1.0185    1.5592   -7.1853 C.3     1  UNL1       -0.0533
     79 C          -0.1389    1.6367   -8.4474 C.3     1  UNL1       -0.0559
     80 C          -1.0280    2.2279   -9.5208 C.3     1  UNL1       -0.0653
     81 O           4.6856    1.1195    0.2175 O.3     1  UNL1       -0.4555
     82 C           4.2044    1.4921    1.4475 C.2     1  UNL1        0.3075
     83 O           3.3406    2.4197    1.2343 O.2     1  UNL1       -0.2508
     84 C           4.4073    1.1234    2.8590 C.3     1  UNL1        0.0450
     85 C           5.8171    0.6500    3.1892 C.3     1  UNL1       -0.0430
     86 C           5.8931    0.2444    4.6307 C.3     1  UNL1       -0.0526
     87 C           5.0657   -0.8775    5.0737 C.3     1  UNL1       -0.0530
     88 C           5.4253   -2.2481    4.6584 C.3     1  UNL1       -0.0531
     89 C           5.6329   -2.4459    3.2166 C.3     1  UNL1       -0.0531
     90 C           5.8281   -3.9496    2.8429 C.3     1  UNL1       -0.0531
     91 C           6.9395   -4.5748    3.5922 C.3     1  UNL1       -0.0531
     92 C           7.2899   -5.9444    3.1719 C.3     1  UNL1       -0.0531
     93 C           6.2350   -6.9778    3.0763 C.3     1  UNL1       -0.0531
     94 C           5.2430   -6.8474    1.9790 C.3     1  UNL1       -0.0531
     95 C           4.2397   -7.9959    2.0445 C.3     1  UNL1       -0.0531
     96 C           3.2458   -7.9015    0.9186 C.3     1  UNL1       -0.0531
     97 C           2.4397   -6.6519    1.0092 C.3     1  UNL1       -0.0531
     98 C           1.4502   -6.5399   -0.1538 C.3     1  UNL1       -0.0533
     99 C           2.2255   -6.5162   -1.4582 C.3     1  UNL1       -0.0559
    100 C           3.1960   -5.3471   -1.4641 C.3     1  UNL1       -0.0653
    101 H           6.0442    6.9869    3.6852 H       1  UNL1        0.0230
    102 H           6.3188    8.6723    4.3446 H       1  UNL1        0.0230
    103 H           4.9974    8.3017    3.1081 H       1  UNL1        0.0230
    104 H           4.6529    8.4626    5.9197 H       1  UNL1        0.0263
    105 H           4.8002    6.6890    5.5549 H       1  UNL1        0.0263
    106 H           2.3908    7.6617    5.4556 H       1  UNL1        0.0265
    107 H           2.9695    8.7472    4.1658 H       1  UNL1        0.0265
    108 H           1.8150    6.8468    3.2040 H       1  UNL1        0.0265
    109 H           3.5772    6.8993    2.7435 H       1  UNL1        0.0265
    110 H           4.1148    5.1966    4.3316 H       1  UNL1        0.0265
    111 H           2.7139    4.6432    3.2461 H       1  UNL1        0.0265
    112 H           1.0919    4.9961    4.9407 H       1  UNL1        0.0265
    113 H           2.3905    5.6910    6.0558 H       1  UNL1        0.0265
    114 H           2.3216    2.9093    4.8368 H       1  UNL1        0.0265
    115 H           3.6114    3.5220    5.9134 H       1  UNL1        0.0265
    116 H           1.8873    3.8761    7.6948 H       1  UNL1        0.0265
    117 H           0.6026    3.2637    6.6355 H       1  UNL1        0.0265
    118 H           3.1129    1.8380    7.6583 H       1  UNL1        0.0265
    119 H           1.4362    1.5780    8.1862 H       1  UNL1        0.0265
    120 H           2.2253   -0.2073    6.6280 H       1  UNL1        0.0265
    121 H           2.5035    1.0019    5.3323 H       1  UNL1        0.0265
    122 H          -0.1555    0.3116    6.6055 H       1  UNL1        0.0265
    123 H           0.0380    1.5908    5.3649 H       1  UNL1        0.0265
    124 H           1.1646   -0.0429    3.8574 H       1  UNL1        0.0265
    125 H           0.8593   -1.3412    5.0594 H       1  UNL1        0.0265
    126 H          -1.4886   -1.0018    5.0274 H       1  UNL1        0.0265
    127 H          -1.4196    0.3982    3.9669 H       1  UNL1        0.0265
    128 H          -2.2509   -1.7967    2.9453 H       1  UNL1        0.0265
    129 H          -0.6909   -2.5387    3.2914 H       1  UNL1        0.0265
    130 H          -1.0082   -2.1371    1.0001 H       1  UNL1        0.0265
    131 H          -1.2357   -0.3678    1.1752 H       1  UNL1        0.0265
    132 H           1.2318   -0.1444    1.7731 H       1  UNL1        0.0270
    133 H           1.3846   -1.9469    1.5266 H       1  UNL1        0.0270
    134 H           0.2462    0.1184   -0.3923 H       1  UNL1        0.0377
    135 H           0.4764   -1.6605   -0.6698 H       1  UNL1        0.0377
    136 H           4.3467   -0.3460   -2.0593 H       1  UNL1        0.0736
    137 H           3.5868    1.0111   -2.9987 H       1  UNL1        0.0736
    138 H           3.4866    2.3472   -0.8440 H       1  UNL1        0.0792
    139 H           4.9740    2.8278   -2.6259 H       1  UNL1        0.0604
    140 H           6.3566    1.9955   -1.6943 H       1  UNL1        0.0604
    141 H           7.2481    5.6945   -0.3530 H       1  UNL1        0.2220
    142 H           4.5224    7.2332   -0.3608 H       1  UNL1        0.0592
    143 H           3.6308    5.9215    0.4684 H       1  UNL1        0.0592
    144 H           2.5648    8.1956    0.3385 H       1  UNL1        0.0640
    145 H           2.4078    7.5943   -2.4750 H       1  UNL1        0.2100
    146 H           1.0167    5.8872   -0.9895 H       1  UNL1        0.0592
    147 H           1.2674    6.2426    0.8150 H       1  UNL1        0.0592
    148 H          -3.0819    7.0843    1.6515 H       1  UNL1        0.2220
    149 H          -3.8024    7.1923   -0.8941 H       1  UNL1        0.0604
    150 H          -4.0104    5.5704   -0.2763 H       1  UNL1        0.0604
    151 H          -3.4397    6.5936   -3.0801 H       1  UNL1        0.0792
    152 H          -1.9220    4.6126   -2.4497 H       1  UNL1        0.0736
    153 H          -2.9127    4.5749   -3.9888 H       1  UNL1        0.0736
    154 H          -5.5103    1.5322   -2.0650 H       1  UNL1        0.0377
    155 H          -4.0057    0.8301   -2.6274 H       1  UNL1        0.0377
    156 H          -5.0802   -0.5969   -1.0599 H       1  UNL1        0.0270
    157 H          -3.5216   -0.1134   -0.4168 H       1  UNL1        0.0270
    158 H          -4.6054    1.5092    1.1375 H       1  UNL1        0.0265
    159 H          -6.2171    1.0996    0.4648 H       1  UNL1        0.0265
    160 H          -5.6919   -0.1002    2.5642 H       1  UNL1        0.0265
    161 H          -4.3135   -0.8927    1.7832 H       1  UNL1        0.0265
    162 H          -6.0036   -1.8201    0.0534 H       1  UNL1        0.0265
    163 H          -7.3046   -1.0439    0.9742 H       1  UNL1        0.0265
    164 H          -6.7382   -2.4666    2.9711 H       1  UNL1        0.0265
    165 H          -7.1569   -3.4155    1.5326 H       1  UNL1        0.0265
    166 H          -4.3543   -2.7800    2.4767 H       1  UNL1        0.0265
    167 H          -4.7790   -3.7515    0.9574 H       1  UNL1        0.0265
    168 H          -5.4622   -4.5783    3.8430 H       1  UNL1        0.0265
    169 H          -5.9271   -5.4392    2.3447 H       1  UNL1        0.0265
    170 H          -3.0415   -4.8527    3.0875 H       1  UNL1        0.0265
    171 H          -3.6346   -5.6650    1.6357 H       1  UNL1        0.0265
    172 H          -3.9493   -6.5420    4.5759 H       1  UNL1        0.0265
    173 H          -4.6596   -7.4729    3.2287 H       1  UNL1        0.0265
    174 H          -1.7211   -6.7894    3.6511 H       1  UNL1        0.0265
    175 H          -2.4614   -8.3854    3.9503 H       1  UNL1        0.0265
    176 H          -2.1076   -6.9099    1.2554 H       1  UNL1        0.0265
    177 H          -1.3144   -8.3966    1.8471 H       1  UNL1        0.0265
    178 H          -3.3039   -9.7028    1.8180 H       1  UNL1        0.0265
    179 H          -4.3668   -8.2737    1.3919 H       1  UNL1        0.0265
    180 H          -3.1155   -7.9738   -0.6940 H       1  UNL1        0.0265
    181 H          -3.9287   -9.5942   -0.5585 H       1  UNL1        0.0265
    182 H          -1.8093  -10.6710   -0.0056 H       1  UNL1        0.0265
    183 H          -0.9204   -9.0629   -0.1502 H       1  UNL1        0.0265
    184 H          -2.6506  -10.3459   -2.3225 H       1  UNL1        0.0263
    185 H          -0.8348  -10.3699   -2.2685 H       1  UNL1        0.0263
    186 H          -2.8552   -8.1363   -2.7002 H       1  UNL1        0.0230
    187 H          -1.2703   -8.4343   -3.5587 H       1  UNL1        0.0230
    188 H          -1.3243   -7.7159   -1.8824 H       1  UNL1        0.0230
    189 H          -7.2049    6.5694   -5.2340 H       1  UNL1        0.0377
    190 H          -7.7173    7.0445   -3.5915 H       1  UNL1        0.0377
    191 H          -7.8082    4.8231   -2.7748 H       1  UNL1        0.0270
    192 H          -8.7899    4.9221   -4.2722 H       1  UNL1        0.0270
    193 H          -7.0080    3.9971   -5.6366 H       1  UNL1        0.0265
    194 H          -5.9372    3.8700   -4.1821 H       1  UNL1        0.0265
    195 H          -7.5107    2.1708   -3.2229 H       1  UNL1        0.0265
    196 H          -8.5165    2.2895   -4.7102 H       1  UNL1        0.0265
    197 H          -5.5468    1.6741   -4.4137 H       1  UNL1        0.0265
    198 H          -6.7601    0.4097   -4.6456 H       1  UNL1        0.0265
    199 H          -6.0848    2.6281   -6.6957 H       1  UNL1        0.0265
    200 H          -7.2585    1.3090   -6.9565 H       1  UNL1        0.0265
    201 H          -5.2279    0.7894   -8.0153 H       1  UNL1        0.0265
    202 H          -4.2980    1.1463   -6.5322 H       1  UNL1        0.0265
    203 H          -6.2604   -1.1183   -7.2573 H       1  UNL1        0.0265
    204 H          -5.6859   -1.0227   -5.5801 H       1  UNL1        0.0265
    205 H          -4.4485   -2.6399   -6.8387 H       1  UNL1        0.0265
    206 H          -3.9529   -1.4334   -8.0636 H       1  UNL1        0.0265
    207 H          -3.2656   -1.4576   -5.0618 H       1  UNL1        0.0265
    208 H          -2.9056   -0.0876   -6.0845 H       1  UNL1        0.0265
    209 H          -2.0207   -2.9734   -6.3055 H       1  UNL1        0.0265
    210 H          -1.7231   -1.9169   -7.6854 H       1  UNL1        0.0265
    211 H          -0.8255   -1.5526   -4.7579 H       1  UNL1        0.0265
    212 H           0.1780   -2.4417   -5.9656 H       1  UNL1        0.0265
    213 H           0.9841   -0.4758   -6.9652 H       1  UNL1        0.0265
    214 H           1.0827   -0.4045   -5.2241 H       1  UNL1        0.0265
    215 H          -0.9654    1.1681   -5.1289 H       1  UNL1        0.0265
    216 H           0.5629    1.7472   -5.7726 H       1  UNL1        0.0265
    217 H          -1.9198    1.0771   -7.5330 H       1  UNL1        0.0265
    218 H          -1.2683    2.6428   -6.9561 H       1  UNL1        0.0265
    219 H           0.7083    2.3254   -8.2823 H       1  UNL1        0.0263
    220 H           0.1650    0.6328   -8.7951 H       1  UNL1        0.0263
    221 H          -1.6285    1.4140  -10.0137 H       1  UNL1        0.0230
    222 H          -1.7803    2.8980   -9.0360 H       1  UNL1        0.0230
    223 H          -0.4596    2.7501  -10.3215 H       1  UNL1        0.0230
    224 H           3.6292    0.4391    3.2263 H       1  UNL1        0.0377
    225 H           4.2870    2.0753    3.4655 H       1  UNL1        0.0377
    226 H           6.1560   -0.0476    2.4695 H       1  UNL1        0.0270
    227 H           6.5185    1.5569    3.1189 H       1  UNL1        0.0270
    228 H           5.6556    1.1607    5.2747 H       1  UNL1        0.0265
    229 H           6.9987    0.0423    4.8402 H       1  UNL1        0.0265
    230 H           4.8876   -0.8330    6.2092 H       1  UNL1        0.0265
    231 H           4.0107   -0.7099    4.7056 H       1  UNL1        0.0265
    232 H           6.3521   -2.6260    5.2142 H       1  UNL1        0.0265
    233 H           4.6065   -2.9427    5.0642 H       1  UNL1        0.0265
    234 H           4.8809   -2.0625    2.5521 H       1  UNL1        0.0265
    235 H           6.6486   -1.9934    2.9750 H       1  UNL1        0.0265
    236 H           4.8706   -4.4280    3.2385 H       1  UNL1        0.0265
    237 H           5.9595   -3.9875    1.7770 H       1  UNL1        0.0265
    238 H           6.7356   -4.5812    4.7097 H       1  UNL1        0.0265
    239 H           7.8624   -3.9453    3.4155 H       1  UNL1        0.0265
    240 H           7.8565   -5.8691    2.1865 H       1  UNL1        0.0265
    241 H           8.0927   -6.2875    3.9358 H       1  UNL1        0.0265
    242 H           6.7606   -7.9619    2.9262 H       1  UNL1        0.0265
    243 H           5.7003   -7.0745    4.0579 H       1  UNL1        0.0265
    244 H           5.8492   -7.0369    1.0116 H       1  UNL1        0.0265
    245 H           4.6969   -5.9428    1.8350 H       1  UNL1        0.0265
    246 H           4.7552   -8.9973    1.9685 H       1  UNL1        0.0265
    247 H           3.7085   -7.8855    3.0281 H       1  UNL1        0.0265
    248 H           3.8204   -7.8264   -0.0533 H       1  UNL1        0.0265
    249 H           2.5926   -8.8136    0.8985 H       1  UNL1        0.0265
    250 H           1.8199   -6.6877    1.9332 H       1  UNL1        0.0265
    251 H           3.0799   -5.7723    0.9131 H       1  UNL1        0.0265
    252 H           0.9213   -5.5994   -0.0379 H       1  UNL1        0.0265
    253 H           0.7649   -7.3922   -0.1942 H       1  UNL1        0.0265
    254 H           1.4780   -6.2949   -2.2730 H       1  UNL1        0.0263
    255 H           2.6919   -7.4779   -1.6661 H       1  UNL1        0.0263
    256 H           2.7184   -4.4489   -1.0174 H       1  UNL1        0.0230
    257 H           4.0997   -5.5696   -0.8490 H       1  UNL1        0.0230
    258 H           3.5430   -5.0862   -2.4689 H       1  UNL1        0.0230
@<TRIPOS>BOND
     1     1     2    1
     2     2     3    1
     3     3     4    1
     4     4     5    1
     5     5     6    1
     6     6     7    1
     7     7     8    1
     8     8     9    1
     9     9    10    1
    10    10    11    1
    11    11    12    1
    12    12    13    1
    13    13    14    1
    14    14    15    1
    15    15    16    1
    16    16    17    1
    17    17    18    1
    18    18    19    2
    19    18    20    1
    20    20    21    1
    21    21    22    1
    22    22    23    1
    23    23    24    1
    24    25    24    1
    25    25    26    1
    26    25    27    2
    27    25    28    1
    28    28    29    1
    29    29    30    1
    30    30    31    1
    31    30    32    1
    32    32    33    1
    33    34    33    1
    34    34    35    1
    35    34    36    2
    36    34    37    1
    37    37    38    1
    38    38    39    1
    39    39    40    1
    40    40    41    1
    41    41    42    1
    42    42    43    2
    43    42    44    1
    44    44    45    1
    45    45    46    1
    46    46    47    1
    47    47    48    1
    48    48    49    1
    49    49    50    1
    50    50    51    1
    51    51    52    1
    52    52    53    1
    53    53    54    1
    54    54    55    1
    55    55    56    1
    56    56    57    1
    57    57    58    1
    58    58    59    1
    59    59    60    1
    60    39    61    1
    61    61    62    1
    62    62    63    2
    63    62    64    1
    64    64    65    1
    65    65    66    1
    66    66    67    1
    67    67    68    1
    68    68    69    1
    69    69    70    1
    70    70    71    1
    71    71    72    1
    72    72    73    1
    73    73    74    1
    74    74    75    1
    75    75    76    1
    76    76    77    1
    77    77    78    1
    78    78    79    1
    79    79    80    1
    80    22    81    1
    81    81    82    1
    82    82    83    2
    83    82    84    1
    84    84    85    1
    85    85    86    1
    86    86    87    1
    87    87    88    1
    88    88    89    1
    89    89    90    1
    90    90    91    1
    91    91    92    1
    92    92    93    1
    93    93    94    1
    94    94    95    1
    95    95    96    1
    96    96    97    1
    97    97    98    1
    98    98    99    1
    99    99   100    1
   100     1   101    1
   101     1   102    1
   102     1   103    1
   103     2   104    1
   104     2   105    1
   105     3   106    1
   106     3   107    1
   107     4   108    1
   108     4   109    1
   109     5   110    1
   110     5   111    1
   111     6   112    1
   112     6   113    1
   113     7   114    1
   114     7   115    1
   115     8   116    1
   116     8   117    1
   117     9   118    1
   118     9   119    1
   119    10   120    1
   120    10   121    1
   121    11   122    1
   122    11   123    1
   123    12   124    1
   124    12   125    1
   125    13   126    1
   126    13   127    1
   127    14   128    1
   128    14   129    1
   129    15   130    1
   130    15   131    1
   131    16   132    1
   132    16   133    1
   133    17   134    1
   134    17   135    1
   135    21   136    1
   136    21   137    1
   137    22   138    1
   138    23   139    1
   139    23   140    1
   140    26   141    1
   141    29   142    1
   142    29   143    1
   143    30   144    1
   144    31   145    1
   145    32   146    1
   146    32   147    1
   147    35   148    1
   148    38   149    1
   149    38   150    1
   150    39   151    1
   151    40   152    1
   152    40   153    1
   153    44   154    1
   154    44   155    1
   155    45   156    1
   156    45   157    1
   157    46   158    1
   158    46   159    1
   159    47   160    1
   160    47   161    1
   161    48   162    1
   162    48   163    1
   163    49   164    1
   164    49   165    1
   165    50   166    1
   166    50   167    1
   167    51   168    1
   168    51   169    1
   169    52   170    1
   170    52   171    1
   171    53   172    1
   172    53   173    1
   173    54   174    1
   174    54   175    1
   175    55   176    1
   176    55   177    1
   177    56   178    1
   178    56   179    1
   179    57   180    1
   180    57   181    1
   181    58   182    1
   182    58   183    1
   183    59   184    1
   184    59   185    1
   185    60   186    1
   186    60   187    1
   187    60   188    1
   188    64   189    1
   189    64   190    1
   190    65   191    1
   191    65   192    1
   192    66   193    1
   193    66   194    1
   194    67   195    1
   195    67   196    1
   196    68   197    1
   197    68   198    1
   198    69   199    1
   199    69   200    1
   200    70   201    1
   201    70   202    1
   202    71   203    1
   203    71   204    1
   204    72   205    1
   205    72   206    1
   206    73   207    1
   207    73   208    1
   208    74   209    1
   209    74   210    1
   210    75   211    1
   211    75   212    1
   212    76   213    1
   213    76   214    1
   214    77   215    1
   215    77   216    1
   216    78   217    1
   217    78   218    1
   218    79   219    1
   219    79   220    1
   220    80   221    1
   221    80   222    1
   222    80   223    1
   223    84   224    1
   224    84   225    1
   225    85   226    1
   226    85   227    1
   227    86   228    1
   228    86   229    1
   229    87   230    1
   230    87   231    1
   231    88   232    1
   232    88   233    1
   233    89   234    1
   234    89   235    1
   235    90   236    1
   236    90   237    1
   237    91   238    1
   238    91   239    1
   239    92   240    1
   240    92   241    1
   241    93   242    1
   242    93   243    1
   243    94   244    1
   244    94   245    1
   245    95   246    1
   246    95   247    1
   247    96   248    1
   248    96   249    1
   249    97   250    1
   250    97   251    1
   251    98   252    1
   252    98   253    1
   253    99   254    1
   254    99   255    1
   255   100   256    1
   256   100   257    1
   257   100   258    1
