
     RDKit          3D

258257  0  0  0  0  0  0  0  0999 V2000
    5.5437    7.9278    4.0210 C   0  0  0  0  0  0  0  0  0  0  0  0
    4.5431    7.6773    5.1262 C   0  0  0  0  0  0  0  0  0  0  0  0
    3.1195    7.7555    4.6234 C   0  0  0  0  0  0  0  0  0  0  0  0
    2.8448    6.7252    3.5392 C   0  0  0  0  0  0  0  0  0  0  0  0
    3.0630    5.3246    4.0652 C   0  0  0  0  0  0  0  0  0  0  0  0
    2.1577    5.0090    5.2446 C   0  0  0  0  0  0  0  0  0  0  0  0
    2.5344    3.5921    5.6744 C   0  0  0  0  0  0  0  0  0  0  0  0
    1.6814    3.1857    6.8548 C   0  0  0  0  0  0  0  0  0  0  0  0
    2.0841    1.7999    7.3063 C   0  0  0  0  0  0  0  0  0  0  0  0
    1.8969    0.7980    6.2209 C   0  0  0  0  0  0  0  0  0  0  0  0
    0.4593    0.6541    5.7597 C   0  0  0  0  0  0  0  0  0  0  0  0
    0.4767   -0.3723    4.6138 C   0  0  0  0  0  0  0  0  0  0  0  0
   -0.9007   -0.6020    4.1308 C   0  0  0  0  0  0  0  0  0  0  0  0
   -1.1370   -1.5219    3.0048 C   0  0  0  0  0  0  0  0  0  0  0  0
   -0.6830   -1.2419    1.6459 C   0  0  0  0  0  0  0  0  0  0  0  0
    0.7464   -1.0626    1.3741 C   0  0  0  0  0  0  0  0  0  0  0  0
    0.8462   -0.7754   -0.1711 C   0  0  0  0  0  0  0  0  0  0  0  0
    2.3215   -0.5564   -0.4025 C   0  0  0  0  0  0  0  0  0  0  0  0
    2.9424   -1.0890    0.4834 O   0  0  0  0  0  0  0  0  0  0  0  0
    2.4685    0.1874   -1.5405 O   0  0  0  0  0  0  0  0  0  0  0  0
    3.7586    0.6162   -2.0113 C   0  0  0  0  0  0  0  0  0  0  0  0
    4.3508    1.5743   -1.0316 C   0  0  2  0  0  0  0  0  0  0  0  0
    5.3931    2.5187   -1.6446 C   0  0  0  0  0  0  0  0  0  0  0  0
    5.4387    3.5905   -0.7243 O   0  0  0  0  0  0  0  0  0  0  0  0
    5.4006    5.0905   -1.4497 P   0  0  1  0  0  5  0  0  0  0  0  0
    6.3726    6.1234   -0.4984 O   0  0  0  0  0  0  0  0  0  0  0  0
    6.0090    5.0099   -2.8182 O   0  0  0  0  0  0  0  0  0  0  0  0
    3.8028    5.7134   -1.5115 O   0  0  0  0  0  0  0  0  0  0  0  0
    3.6537    6.5795   -0.4498 C   0  0  0  0  0  0  0  0  0  0  0  0
    2.4153    7.4255   -0.4886 C   0  0  0  0  0  0  0  0  0  0  0  0
    2.4271    8.1546   -1.6597 O   0  0  0  0  0  0  0  0  0  0  0  0
    1.1462    6.6717   -0.2218 C   0  0  0  0  0  0  0  0  0  0  0  0
    0.0405    7.5072   -0.1321 O   0  0  0  0  0  0  0  0  0  0  0  0
   -1.3700    6.6707    0.3621 P   0  0  2  0  0  5  0  0  0  0  0  0
   -2.3830    7.6762    1.2771 O   0  0  0  0  0  0  0  0  0  0  0  0
   -0.8768    5.6010    1.3303 O   0  0  0  0  0  0  0  0  0  0  0  0
   -2.0790    6.0552   -0.9912 O   0  0  0  0  0  0  0  0  0  0  0  0
   -3.4779    6.1043   -1.0464 C   0  0  0  0  0  0  0  0  0  0  0  0
   -3.8195    5.6648   -2.4276 C   0  0  1  0  0  0  0  0  0  0  0  0
   -2.9828    4.4991   -2.8727 C   0  0  0  0  0  0  0  0  0  0  0  0
   -3.5081    3.2895   -2.4998 O   0  0  0  0  0  0  0  0  0  0  0  0
   -3.7784    2.6079   -1.3745 C   0  0  0  0  0  0  0  0  0  0  0  0
   -3.4634    3.0874   -0.2827 O   0  0  0  0  0  0  0  0  0  0  0  0
   -4.4350    1.3597   -1.7288 C   0  0  0  0  0  0  0  0  0  0  0  0
   -4.5367    0.3115   -0.6636 C   0  0  0  0  0  0  0  0  0  0  0  0
   -5.1946    0.7269    0.6195 C   0  0  0  0  0  0  0  0  0  0  0  0
   -5.3207   -0.4614    1.5807 C   0  0  0  0  0  0  0  0  0  0  0  0
   -6.2771   -1.4977    1.0736 C   0  0  0  0  0  0  0  0  0  0  0  0
   -6.3942   -2.7398    1.9413 C   0  0  0  0  0  0  0  0  0  0  0  0
   -5.0768   -3.4814    1.9710 C   0  0  0  0  0  0  0  0  0  0  0  0
   -5.1829   -4.7574    2.7895 C   0  0  0  0  0  0  0  0  0  0  0  0
   -3.8533   -5.5129    2.7234 C   0  0  0  0  0  0  0  0  0  0  0  0
   -3.8500   -6.7921    3.4902 C   0  0  0  0  0  0  0  0  0  0  0  0
   -2.5107   -7.4908    3.3296 C   0  0  0  0  0  0  0  0  0  0  0  0
   -2.2687   -7.8066    1.8529 C   0  0  0  0  0  0  0  0  0  0  0  0
   -3.3446   -8.6949    1.3050 C   0  0  0  0  0  0  0  0  0  0  0  0
   -3.1007   -8.9598   -0.1468 C   0  0  0  0  0  0  0  0  0  0  0  0
   -1.8065   -9.6447   -0.4602 C   0  0  0  0  0  0  0  0  0  0  0  0
   -1.7419   -9.8117   -1.9746 C   0  0  0  0  0  0  0  0  0  0  0  0
   -1.7975   -8.4291   -2.5835 C   0  0  0  0  0  0  0  0  0  0  0  0
   -5.1565    5.5358   -2.8024 O   0  0  0  0  0  0  0  0  0  0  0  0
   -5.7423    6.3744   -3.6933 C   0  0  0  0  0  0  0  0  0  0  0  0
   -5.1061    7.3198   -4.2055 O   0  0  0  0  0  0  0  0  0  0  0  0
   -7.1471    6.2920   -4.1670 C   0  0  0  0  0  0  0  0  0  0  0  0
   -7.7607    4.9267   -3.8758 C   0  0  0  0  0  0  0  0  0  0  0  0
   -6.9835    3.8349   -4.5294 C   0  0  0  0  0  0  0  0  0  0  0  0
   -7.5072    2.4285   -4.2997 C   0  0  0  0  0  0  0  0  0  0  0  0
   -6.5295    1.4693   -4.9407 C   0  0  0  0  0  0  0  0  0  0  0  0
   -6.3386    1.5911   -6.4130 C   0  0  0  0  0  0  0  0  0  0  0  0
   -5.2127    0.6890   -6.8931 C   0  0  0  0  0  0  0  0  0  0  0  0
   -5.4442   -0.7497   -6.6085 C   0  0  0  0  0  0  0  0  0  0  0  0
   -4.2083   -1.5809   -7.0052 C   0  0  0  0  0  0  0  0  0  0  0  0
   -3.0312   -1.1392   -6.1630 C   0  0  0  0  0  0  0  0  0  0  0  0
   -1.7985   -1.8887   -6.5672 C   0  0  0  0  0  0  0  0  0  0  0  0
   -0.5522   -1.5260   -5.8882 C   0  0  0  0  0  0  0  0  0  0  0  0
    0.2622   -0.3467   -6.0647 C   0  0  0  0  0  0  0  0  0  0  0  0
   -0.2734    1.0057   -6.0360 C   0  0  0  0  0  0  0  0  0  0  0  0
   -1.0185    1.5592   -7.1853 C   0  0  0  0  0  0  0  0  0  0  0  0
   -0.1389    1.6367   -8.4474 C   0  0  0  0  0  0  0  0  0  0  0  0
   -1.0280    2.2279   -9.5208 C   0  0  0  0  0  0  0  0  0  0  0  0
    4.6856    1.1195    0.2175 O   0  0  0  0  0  0  0  0  0  0  0  0
    4.2044    1.4921    1.4475 C   0  0  0  0  0  0  0  0  0  0  0  0
    3.3406    2.4197    1.2343 O   0  0  0  0  0  0  0  0  0  0  0  0
    4.4073    1.1234    2.8590 C   0  0  0  0  0  0  0  0  0  0  0  0
    5.8171    0.6500    3.1892 C   0  0  0  0  0  0  0  0  0  0  0  0
    5.8931    0.2444    4.6307 C   0  0  0  0  0  0  0  0  0  0  0  0
    5.0657   -0.8775    5.0737 C   0  0  0  0  0  0  0  0  0  0  0  0
    5.4253   -2.2481    4.6584 C   0  0  0  0  0  0  0  0  0  0  0  0
    5.6329   -2.4459    3.2166 C   0  0  0  0  0  0  0  0  0  0  0  0
    5.8281   -3.9496    2.8429 C   0  0  0  0  0  0  0  0  0  0  0  0
    6.9395   -4.5748    3.5922 C   0  0  0  0  0  0  0  0  0  0  0  0
    7.2899   -5.9444    3.1719 C   0  0  0  0  0  0  0  0  0  0  0  0
    6.2350   -6.9778    3.0763 C   0  0  0  0  0  0  0  0  0  0  0  0
    5.2430   -6.8474    1.9790 C   0  0  0  0  0  0  0  0  0  0  0  0
    4.2397   -7.9959    2.0445 C   0  0  0  0  0  0  0  0  0  0  0  0
    3.2458   -7.9015    0.9186 C   0  0  0  0  0  0  0  0  0  0  0  0
    2.4397   -6.6519    1.0092 C   0  0  0  0  0  0  0  0  0  0  0  0
    1.4502   -6.5399   -0.1538 C   0  0  0  0  0  0  0  0  0  0  0  0
    2.2255   -6.5162   -1.4582 C   0  0  0  0  0  0  0  0  0  0  0  0
    3.1960   -5.3471   -1.4641 C   0  0  0  0  0  0  0  0  0  0  0  0
    6.0442    6.9869    3.6852 H   0  0  0  0  0  0  0  0  0  0  0  0
    6.3188    8.6723    4.3446 H   0  0  0  0  0  0  0  0  0  0  0  0
    4.9974    8.3017    3.1081 H   0  0  0  0  0  0  0  0  0  0  0  0
    4.6529    8.4626    5.9197 H   0  0  0  0  0  0  0  0  0  0  0  0
    4.8002    6.6890    5.5549 H   0  0  0  0  0  0  0  0  0  0  0  0
    2.3908    7.6617    5.4556 H   0  0  0  0  0  0  0  0  0  0  0  0
    2.9695    8.7472    4.1658 H   0  0  0  0  0  0  0  0  0  0  0  0
    1.8150    6.8468    3.2040 H   0  0  0  0  0  0  0  0  0  0  0  0
    3.5772    6.8993    2.7435 H   0  0  0  0  0  0  0  0  0  0  0  0
    4.1148    5.1966    4.3316 H   0  0  0  0  0  0  0  0  0  0  0  0
    2.7139    4.6432    3.2461 H   0  0  0  0  0  0  0  0  0  0  0  0
    1.0919    4.9961    4.9407 H   0  0  0  0  0  0  0  0  0  0  0  0
    2.3905    5.6910    6.0558 H   0  0  0  0  0  0  0  0  0  0  0  0
    2.3216    2.9093    4.8368 H   0  0  0  0  0  0  0  0  0  0  0  0
    3.6114    3.5220    5.9134 H   0  0  0  0  0  0  0  0  0  0  0  0
    1.8873    3.8761    7.6948 H   0  0  0  0  0  0  0  0  0  0  0  0
    0.6026    3.2637    6.6355 H   0  0  0  0  0  0  0  0  0  0  0  0
    3.1129    1.8380    7.6583 H   0  0  0  0  0  0  0  0  0  0  0  0
    1.4362    1.5780    8.1862 H   0  0  0  0  0  0  0  0  0  0  0  0
    2.2253   -0.2073    6.6280 H   0  0  0  0  0  0  0  0  0  0  0  0
    2.5035    1.0019    5.3323 H   0  0  0  0  0  0  0  0  0  0  0  0
   -0.1555    0.3116    6.6055 H   0  0  0  0  0  0  0  0  0  0  0  0
    0.0380    1.5908    5.3649 H   0  0  0  0  0  0  0  0  0  0  0  0
    1.1646   -0.0429    3.8574 H   0  0  0  0  0  0  0  0  0  0  0  0
    0.8593   -1.3412    5.0594 H   0  0  0  0  0  0  0  0  0  0  0  0
   -1.4886   -1.0018    5.0274 H   0  0  0  0  0  0  0  0  0  0  0  0
   -1.4196    0.3982    3.9669 H   0  0  0  0  0  0  0  0  0  0  0  0
   -2.2509   -1.7967    2.9453 H   0  0  0  0  0  0  0  0  0  0  0  0
   -0.6909   -2.5387    3.2914 H   0  0  0  0  0  0  0  0  0  0  0  0
   -1.0082   -2.1371    1.0001 H   0  0  0  0  0  0  0  0  0  0  0  0
   -1.2357   -0.3678    1.1752 H   0  0  0  0  0  0  0  0  0  0  0  0
    1.2318   -0.1444    1.7731 H   0  0  0  0  0  0  0  0  0  0  0  0
    1.3846   -1.9469    1.5266 H   0  0  0  0  0  0  0  0  0  0  0  0
    0.2462    0.1184   -0.3923 H   0  0  0  0  0  0  0  0  0  0  0  0
    0.4764   -1.6605   -0.6698 H   0  0  0  0  0  0  0  0  0  0  0  0
    4.3467   -0.3460   -2.0593 H   0  0  0  0  0  0  0  0  0  0  0  0
    3.5868    1.0111   -2.9987 H   0  0  0  0  0  0  0  0  0  0  0  0
    3.4866    2.3472   -0.8440 H   0  0  0  0  0  0  0  0  0  0  0  0
    4.9740    2.8278   -2.6259 H   0  0  0  0  0  0  0  0  0  0  0  0
    6.3566    1.9955   -1.6943 H   0  0  0  0  0  0  0  0  0  0  0  0
    7.2481    5.6945   -0.3530 H   0  0  0  0  0  0  0  0  0  0  0  0
    4.5224    7.2332   -0.3608 H   0  0  0  0  0  0  0  0  0  0  0  0
    3.6308    5.9215    0.4684 H   0  0  0  0  0  0  0  0  0  0  0  0
    2.5648    8.1956    0.3385 H   0  0  0  0  0  0  0  0  0  0  0  0
    2.4078    7.5943   -2.4750 H   0  0  0  0  0  0  0  0  0  0  0  0
    1.0167    5.8872   -0.9895 H   0  0  0  0  0  0  0  0  0  0  0  0
    1.2674    6.2426    0.8150 H   0  0  0  0  0  0  0  0  0  0  0  0
   -3.0819    7.0843    1.6515 H   0  0  0  0  0  0  0  0  0  0  0  0
   -3.8024    7.1923   -0.8941 H   0  0  0  0  0  0  0  0  0  0  0  0
   -4.0104    5.5704   -0.2763 H   0  0  0  0  0  0  0  0  0  0  0  0
   -3.4397    6.5936   -3.0801 H   0  0  0  0  0  0  0  0  0  0  0  0
   -1.9220    4.6126   -2.4497 H   0  0  0  0  0  0  0  0  0  0  0  0
   -2.9127    4.5749   -3.9888 H   0  0  0  0  0  0  0  0  0  0  0  0
   -5.5103    1.5322   -2.0650 H   0  0  0  0  0  0  0  0  0  0  0  0
   -4.0057    0.8301   -2.6274 H   0  0  0  0  0  0  0  0  0  0  0  0
   -5.0802   -0.5969   -1.0599 H   0  0  0  0  0  0  0  0  0  0  0  0
   -3.5216   -0.1134   -0.4168 H   0  0  0  0  0  0  0  0  0  0  0  0
   -4.6054    1.5092    1.1375 H   0  0  0  0  0  0  0  0  0  0  0  0
   -6.2171    1.0996    0.4648 H   0  0  0  0  0  0  0  0  0  0  0  0
   -5.6919   -0.1002    2.5642 H   0  0  0  0  0  0  0  0  0  0  0  0
   -4.3135   -0.8927    1.7832 H   0  0  0  0  0  0  0  0  0  0  0  0
   -6.0036   -1.8201    0.0534 H   0  0  0  0  0  0  0  0  0  0  0  0
   -7.3046   -1.0439    0.9742 H   0  0  0  0  0  0  0  0  0  0  0  0
   -6.7382   -2.4666    2.9711 H   0  0  0  0  0  0  0  0  0  0  0  0
   -7.1569   -3.4155    1.5326 H   0  0  0  0  0  0  0  0  0  0  0  0
   -4.3543   -2.7800    2.4767 H   0  0  0  0  0  0  0  0  0  0  0  0
   -4.7790   -3.7515    0.9574 H   0  0  0  0  0  0  0  0  0  0  0  0
   -5.4622   -4.5783    3.8430 H   0  0  0  0  0  0  0  0  0  0  0  0
   -5.9271   -5.4392    2.3447 H   0  0  0  0  0  0  0  0  0  0  0  0
   -3.0415   -4.8527    3.0875 H   0  0  0  0  0  0  0  0  0  0  0  0
   -3.6346   -5.6650    1.6357 H   0  0  0  0  0  0  0  0  0  0  0  0
   -3.9493   -6.5420    4.5759 H   0  0  0  0  0  0  0  0  0  0  0  0
   -4.6596   -7.4729    3.2287 H   0  0  0  0  0  0  0  0  0  0  0  0
   -1.7211   -6.7894    3.6511 H   0  0  0  0  0  0  0  0  0  0  0  0
   -2.4614   -8.3854    3.9503 H   0  0  0  0  0  0  0  0  0  0  0  0
   -2.1076   -6.9099    1.2554 H   0  0  0  0  0  0  0  0  0  0  0  0
   -1.3144   -8.3966    1.8471 H   0  0  0  0  0  0  0  0  0  0  0  0
   -3.3039   -9.7028    1.8180 H   0  0  0  0  0  0  0  0  0  0  0  0
   -4.3668   -8.2737    1.3919 H   0  0  0  0  0  0  0  0  0  0  0  0
   -3.1155   -7.9738   -0.6940 H   0  0  0  0  0  0  0  0  0  0  0  0
   -3.9287   -9.5942   -0.5585 H   0  0  0  0  0  0  0  0  0  0  0  0
   -1.8093  -10.6710   -0.0056 H   0  0  0  0  0  0  0  0  0  0  0  0
   -0.9204   -9.0629   -0.1502 H   0  0  0  0  0  0  0  0  0  0  0  0
   -2.6506  -10.3459   -2.3225 H   0  0  0  0  0  0  0  0  0  0  0  0
   -0.8348  -10.3699   -2.2685 H   0  0  0  0  0  0  0  0  0  0  0  0
   -2.8552   -8.1363   -2.7002 H   0  0  0  0  0  0  0  0  0  0  0  0
   -1.2703   -8.4343   -3.5587 H   0  0  0  0  0  0  0  0  0  0  0  0
   -1.3243   -7.7159   -1.8824 H   0  0  0  0  0  0  0  0  0  0  0  0
   -7.2049    6.5694   -5.2340 H   0  0  0  0  0  0  0  0  0  0  0  0
   -7.7173    7.0445   -3.5915 H   0  0  0  0  0  0  0  0  0  0  0  0
   -7.8082    4.8231   -2.7748 H   0  0  0  0  0  0  0  0  0  0  0  0
   -8.7899    4.9221   -4.2722 H   0  0  0  0  0  0  0  0  0  0  0  0
   -7.0080    3.9971   -5.6366 H   0  0  0  0  0  0  0  0  0  0  0  0
   -5.9372    3.8700   -4.1821 H   0  0  0  0  0  0  0  0  0  0  0  0
   -7.5107    2.1708   -3.2229 H   0  0  0  0  0  0  0  0  0  0  0  0
   -8.5165    2.2895   -4.7102 H   0  0  0  0  0  0  0  0  0  0  0  0
   -5.5468    1.6741   -4.4137 H   0  0  0  0  0  0  0  0  0  0  0  0
   -6.7601    0.4097   -4.6456 H   0  0  0  0  0  0  0  0  0  0  0  0
   -6.0848    2.6281   -6.6957 H   0  0  0  0  0  0  0  0  0  0  0  0
   -7.2585    1.3090   -6.9565 H   0  0  0  0  0  0  0  0  0  0  0  0
   -5.2279    0.7894   -8.0153 H   0  0  0  0  0  0  0  0  0  0  0  0
   -4.2980    1.1463   -6.5322 H   0  0  0  0  0  0  0  0  0  0  0  0
   -6.2604   -1.1183   -7.2573 H   0  0  0  0  0  0  0  0  0  0  0  0
   -5.6859   -1.0227   -5.5801 H   0  0  0  0  0  0  0  0  0  0  0  0
   -4.4485   -2.6399   -6.8387 H   0  0  0  0  0  0  0  0  0  0  0  0
   -3.9529   -1.4334   -8.0636 H   0  0  0  0  0  0  0  0  0  0  0  0
   -3.2656   -1.4576   -5.0618 H   0  0  0  0  0  0  0  0  0  0  0  0
   -2.9056   -0.0876   -6.0845 H   0  0  0  0  0  0  0  0  0  0  0  0
   -2.0207   -2.9734   -6.3055 H   0  0  0  0  0  0  0  0  0  0  0  0
   -1.7231   -1.9169   -7.6854 H   0  0  0  0  0  0  0  0  0  0  0  0
   -0.8255   -1.5526   -4.7579 H   0  0  0  0  0  0  0  0  0  0  0  0
    0.1780   -2.4417   -5.9656 H   0  0  0  0  0  0  0  0  0  0  0  0
    0.9841   -0.4758   -6.9652 H   0  0  0  0  0  0  0  0  0  0  0  0
    1.0827   -0.4045   -5.2241 H   0  0  0  0  0  0  0  0  0  0  0  0
   -0.9654    1.1681   -5.1289 H   0  0  0  0  0  0  0  0  0  0  0  0
    0.5629    1.7472   -5.7726 H   0  0  0  0  0  0  0  0  0  0  0  0
   -1.9198    1.0771   -7.5330 H   0  0  0  0  0  0  0  0  0  0  0  0
   -1.2683    2.6428   -6.9561 H   0  0  0  0  0  0  0  0  0  0  0  0
    0.7083    2.3254   -8.2823 H   0  0  0  0  0  0  0  0  0  0  0  0
    0.1650    0.6328   -8.7951 H   0  0  0  0  0  0  0  0  0  0  0  0
   -1.6285    1.4140  -10.0137 H   0  0  0  0  0  0  0  0  0  0  0  0
   -1.7803    2.8980   -9.0360 H   0  0  0  0  0  0  0  0  0  0  0  0
   -0.4596    2.7501  -10.3215 H   0  0  0  0  0  0  0  0  0  0  0  0
    3.6292    0.4391    3.2263 H   0  0  0  0  0  0  0  0  0  0  0  0
    4.2870    2.0753    3.4655 H   0  0  0  0  0  0  0  0  0  0  0  0
    6.1560   -0.0476    2.4695 H   0  0  0  0  0  0  0  0  0  0  0  0
    6.5185    1.5569    3.1189 H   0  0  0  0  0  0  0  0  0  0  0  0
    5.6556    1.1607    5.2747 H   0  0  0  0  0  0  0  0  0  0  0  0
    6.9987    0.0423    4.8402 H   0  0  0  0  0  0  0  0  0  0  0  0
    4.8876   -0.8330    6.2092 H   0  0  0  0  0  0  0  0  0  0  0  0
    4.0107   -0.7099    4.7056 H   0  0  0  0  0  0  0  0  0  0  0  0
    6.3521   -2.6260    5.2142 H   0  0  0  0  0  0  0  0  0  0  0  0
    4.6065   -2.9427    5.0642 H   0  0  0  0  0  0  0  0  0  0  0  0
    4.8809   -2.0625    2.5521 H   0  0  0  0  0  0  0  0  0  0  0  0
    6.6486   -1.9934    2.9750 H   0  0  0  0  0  0  0  0  0  0  0  0
    4.8706   -4.4280    3.2385 H   0  0  0  0  0  0  0  0  0  0  0  0
    5.9595   -3.9875    1.7770 H   0  0  0  0  0  0  0  0  0  0  0  0
    6.7356   -4.5812    4.7097 H   0  0  0  0  0  0  0  0  0  0  0  0
    7.8624   -3.9453    3.4155 H   0  0  0  0  0  0  0  0  0  0  0  0
    7.8565   -5.8691    2.1865 H   0  0  0  0  0  0  0  0  0  0  0  0
    8.0927   -6.2875    3.9358 H   0  0  0  0  0  0  0  0  0  0  0  0
    6.7606   -7.9619    2.9262 H   0  0  0  0  0  0  0  0  0  0  0  0
    5.7003   -7.0745    4.0579 H   0  0  0  0  0  0  0  0  0  0  0  0
    5.8492   -7.0369    1.0116 H   0  0  0  0  0  0  0  0  0  0  0  0
    4.6969   -5.9428    1.8350 H   0  0  0  0  0  0  0  0  0  0  0  0
    4.7552   -8.9973    1.9685 H   0  0  0  0  0  0  0  0  0  0  0  0
    3.7085   -7.8855    3.0281 H   0  0  0  0  0  0  0  0  0  0  0  0
    3.8204   -7.8264   -0.0533 H   0  0  0  0  0  0  0  0  0  0  0  0
    2.5926   -8.8136    0.8985 H   0  0  0  0  0  0  0  0  0  0  0  0
    1.8199   -6.6877    1.9332 H   0  0  0  0  0  0  0  0  0  0  0  0
    3.0799   -5.7723    0.9131 H   0  0  0  0  0  0  0  0  0  0  0  0
    0.9213   -5.5994   -0.0379 H   0  0  0  0  0  0  0  0  0  0  0  0
    0.7649   -7.3922   -0.1942 H   0  0  0  0  0  0  0  0  0  0  0  0
    1.4780   -6.2949   -2.2730 H   0  0  0  0  0  0  0  0  0  0  0  0
    2.6919   -7.4779   -1.6661 H   0  0  0  0  0  0  0  0  0  0  0  0
    2.7184   -4.4489   -1.0174 H   0  0  0  0  0  0  0  0  0  0  0  0
    4.0997   -5.5696   -0.8490 H   0  0  0  0  0  0  0  0  0  0  0  0
    3.5430   -5.0862   -2.4689 H   0  0  0  0  0  0  0  0  0  0  0  0
  1  2  1  0
  2  3  1  0
  3  4  1  0
  4  5  1  0
  5  6  1  0
  6  7  1  0
  7  8  1  0
  8  9  1  0
  9 10  1  0
 10 11  1  0
 11 12  1  0
 12 13  1  0
 13 14  1  0
 14 15  1  0
 15 16  1  0
 16 17  1  0
 17 18  1  0
 18 19  2  0
 18 20  1  0
 20 21  1  0
 21 22  1  0
 22 23  1  0
 23 24  1  0
 25 24  1  1
 25 26  1  0
 25 27  2  0
 25 28  1  0
 28 29  1  0
 29 30  1  0
 30 31  1  0
 30 32  1  0
 32 33  1  0
 34 33  1  6
 34 35  1  0
 34 36  2  0
 34 37  1  0
 37 38  1  0
 38 39  1  0
 39 40  1  0
 40 41  1  0
 41 42  1  0
 42 43  2  0
 42 44  1  0
 44 45  1  0
 45 46  1  0
 46 47  1  0
 47 48  1  0
 48 49  1  0
 49 50  1  0
 50 51  1  0
 51 52  1  0
 52 53  1  0
 53 54  1  0
 54 55  1  0
 55 56  1  0
 56 57  1  0
 57 58  1  0
 58 59  1  0
 59 60  1  0
 39 61  1  0
 61 62  1  0
 62 63  2  0
 62 64  1  0
 64 65  1  0
 65 66  1  0
 66 67  1  0
 67 68  1  0
 68 69  1  0
 69 70  1  0
 70 71  1  0
 71 72  1  0
 72 73  1  0
 73 74  1  0
 74 75  1  0
 75 76  1  0
 76 77  1  0
 77 78  1  0
 78 79  1  0
 79 80  1  0
 22 81  1  0
 81 82  1  0
 82 83  2  0
 82 84  1  0
 84 85  1  0
 85 86  1  0
 86 87  1  0
 87 88  1  0
 88 89  1  0
 89 90  1  0
 90 91  1  0
 91 92  1  0
 92 93  1  0
 93 94  1  0
 94 95  1  0
 95 96  1  0
 96 97  1  0
 97 98  1  0
 98 99  1  0
 99100  1  0
  1101  1  0
  1102  1  0
  1103  1  0
  2104  1  0
  2105  1  0
  3106  1  0
  3107  1  0
  4108  1  0
  4109  1  0
  5110  1  0
  5111  1  0
  6112  1  0
  6113  1  0
  7114  1  0
  7115  1  0
  8116  1  0
  8117  1  0
  9118  1  0
  9119  1  0
 10120  1  0
 10121  1  0
 11122  1  0
 11123  1  0
 12124  1  0
 12125  1  0
 13126  1  0
 13127  1  0
 14128  1  0
 14129  1  0
 15130  1  0
 15131  1  0
 16132  1  0
 16133  1  0
 17134  1  0
 17135  1  0
 21136  1  0
 21137  1  0
 22138  1  1
 23139  1  0
 23140  1  0
 26141  1  0
 29142  1  0
 29143  1  0
 30144  1  0
 31145  1  0
 32146  1  0
 32147  1  0
 35148  1  0
 38149  1  0
 38150  1  0
 39151  1  6
 40152  1  0
 40153  1  0
 44154  1  0
 44155  1  0
 45156  1  0
 45157  1  0
 46158  1  0
 46159  1  0
 47160  1  0
 47161  1  0
 48162  1  0
 48163  1  0
 49164  1  0
 49165  1  0
 50166  1  0
 50167  1  0
 51168  1  0
 51169  1  0
 52170  1  0
 52171  1  0
 53172  1  0
 53173  1  0
 54174  1  0
 54175  1  0
 55176  1  0
 55177  1  0
 56178  1  0
 56179  1  0
 57180  1  0
 57181  1  0
 58182  1  0
 58183  1  0
 59184  1  0
 59185  1  0
 60186  1  0
 60187  1  0
 60188  1  0
 64189  1  0
 64190  1  0
 65191  1  0
 65192  1  0
 66193  1  0
 66194  1  0
 67195  1  0
 67196  1  0
 68197  1  0
 68198  1  0
 69199  1  0
 69200  1  0
 70201  1  0
 70202  1  0
 71203  1  0
 71204  1  0
 72205  1  0
 72206  1  0
 73207  1  0
 73208  1  0
 74209  1  0
 74210  1  0
 75211  1  0
 75212  1  0
 76213  1  0
 76214  1  0
 77215  1  0
 77216  1  0
 78217  1  0
 78218  1  0
 79219  1  0
 79220  1  0
 80221  1  0
 80222  1  0
 80223  1  0
 84224  1  0
 84225  1  0
 85226  1  0
 85227  1  0
 86228  1  0
 86229  1  0
 87230  1  0
 87231  1  0
 88232  1  0
 88233  1  0
 89234  1  0
 89235  1  0
 90236  1  0
 90237  1  0
 91238  1  0
 91239  1  0
 92240  1  0
 92241  1  0
 93242  1  0
 93243  1  0
 94244  1  0
 94245  1  0
 95246  1  0
 95247  1  0
 96248  1  0
 96249  1  0
 97250  1  0
 97251  1  0
 98252  1  0
 98253  1  0
 99254  1  0
 99255  1  0
100256  1  0
100257  1  0
100258  1  0
M  END
$$$$
