@<TRIPOS>MOLECULE
*****
 28 31 0 0 0
SMALL
GASTEIGER

@<TRIPOS>ATOM
      1 O           0.5674    3.4337    1.2376 O.2     1  UNL1       -0.2445
      2 C           0.1426    2.3038    0.8206 C.ar    1  UNL1        0.3454
      3 O          -1.1467    2.0578    0.7448 O.2     1  UNL1       -0.4178
      4 C          -1.5795    0.8960    0.3161 C.ar    1  UNL1        0.1854
      5 C          -2.9349    0.6251    0.2318 C.ar    1  UNL1        0.2022
      6 O          -3.8958    1.5579    0.5925 O.3     1  UNL1       -0.5009
      7 C          -3.3387   -0.6213   -0.2290 C.ar    1  UNL1        0.1628
      8 O          -4.6898   -0.8898   -0.3124 O.3     1  UNL1       -0.5032
      9 C          -2.4390   -1.5915   -0.6029 C.ar    1  UNL1       -0.0017
     10 C          -1.1012   -1.2945   -0.5086 C.ar    1  UNL1        0.0744
     11 C          -0.1082   -2.1982   -0.8588 C.ar    1  UNL1        0.3454
     12 O          -0.5210   -3.3319   -1.2774 O.2     1  UNL1       -0.2445
     13 O           1.1759   -1.9330   -0.7758 O.2     1  UNL1       -0.4178
     14 C           1.6339   -0.7771   -0.3495 C.ar    1  UNL1        0.1854
     15 C           2.9990   -0.5137   -0.2682 C.ar    1  UNL1        0.2022
     16 O           3.9326   -1.4691   -0.6370 O.3     1  UNL1       -0.5009
     17 C           3.4221    0.7181    0.1869 C.ar    1  UNL1        0.1628
     18 O           4.7920    0.9893    0.2711 O.3     1  UNL1       -0.5032
     19 C           2.4743    1.6661    0.5531 C.ar    1  UNL1       -0.0017
     20 C           1.1181    1.3927    0.4679 C.ar    1  UNL1        0.0744
     21 C           0.6919    0.1571    0.0114 C.ar    1  UNL1        0.0468
     22 C          -0.6596   -0.0585   -0.0522 C.ar    1  UNL1        0.0468
     23 H          -4.3974    2.0142   -0.1812 H       1  UNL1        0.2924
     24 H          -5.1406   -1.6284    0.2108 H       1  UNL1        0.2923
     25 H          -2.7580   -2.5508   -0.9574 H       1  UNL1        0.0664
     26 H           3.6453   -2.4228   -0.6693 H       1  UNL1        0.2924
     27 H           5.3078    0.8507    1.1305 H       1  UNL1        0.2923
     28 H           2.8075    2.6180    0.9046 H       1  UNL1        0.0664
@<TRIPOS>BOND
     1     1     2    2
     2     2     3   ar
     3     3     4   ar
     4     4     5   ar
     5     5     6    1
     6     5     7   ar
     7     7     8    1
     8     7     9   ar
     9     9    10   ar
    10    10    11   ar
    11    11    12    2
    12    11    13   ar
    13    13    14   ar
    14    14    15   ar
    15    15    16    1
    16    15    17   ar
    17    17    18    1
    18    17    19   ar
    19    19    20   ar
    20    20    21   ar
    21    21    22   ar
    22    20     2   ar
    23    22     4   ar
    24    22    10   ar
    25    21    14   ar
    26     6    23    1
    27     8    24    1
    28     9    25    1
    29    16    26    1
    30    18    27    1
    31    19    28    1
