
     RDKit          3D

 28 31  0  0  0  0  0  0  0  0999 V2000
    0.5674    3.4337    1.2376 O   0  0  0  0  0  0  0  0  0  0  0  0
    0.1426    2.3038    0.8206 C   0  0  0  0  0  0  0  0  0  0  0  0
   -1.1467    2.0578    0.7448 O   0  0  0  0  0  0  0  0  0  0  0  0
   -1.5795    0.8960    0.3161 C   0  0  0  0  0  0  0  0  0  0  0  0
   -2.9349    0.6251    0.2318 C   0  0  0  0  0  0  0  0  0  0  0  0
   -3.8958    1.5579    0.5925 O   0  0  0  0  0  0  0  0  0  0  0  0
   -3.3387   -0.6213   -0.2290 C   0  0  0  0  0  0  0  0  0  0  0  0
   -4.6898   -0.8898   -0.3124 O   0  0  0  0  0  0  0  0  0  0  0  0
   -2.4390   -1.5915   -0.6029 C   0  0  0  0  0  0  0  0  0  0  0  0
   -1.1012   -1.2945   -0.5086 C   0  0  0  0  0  0  0  0  0  0  0  0
   -0.1082   -2.1982   -0.8588 C   0  0  0  0  0  0  0  0  0  0  0  0
   -0.5210   -3.3319   -1.2774 O   0  0  0  0  0  0  0  0  0  0  0  0
    1.1759   -1.9330   -0.7758 O   0  0  0  0  0  0  0  0  0  0  0  0
    1.6339   -0.7771   -0.3495 C   0  0  0  0  0  0  0  0  0  0  0  0
    2.9990   -0.5137   -0.2682 C   0  0  0  0  0  0  0  0  0  0  0  0
    3.9326   -1.4691   -0.6370 O   0  0  0  0  0  0  0  0  0  0  0  0
    3.4221    0.7181    0.1869 C   0  0  0  0  0  0  0  0  0  0  0  0
    4.7920    0.9893    0.2711 O   0  0  0  0  0  0  0  0  0  0  0  0
    2.4743    1.6661    0.5531 C   0  0  0  0  0  0  0  0  0  0  0  0
    1.1181    1.3927    0.4679 C   0  0  0  0  0  0  0  0  0  0  0  0
    0.6919    0.1571    0.0114 C   0  0  0  0  0  0  0  0  0  0  0  0
   -0.6596   -0.0585   -0.0522 C   0  0  0  0  0  0  0  0  0  0  0  0
   -4.3974    2.0142   -0.1812 H   0  0  0  0  0  0  0  0  0  0  0  0
   -5.1406   -1.6284    0.2108 H   0  0  0  0  0  0  0  0  0  0  0  0
   -2.7580   -2.5508   -0.9574 H   0  0  0  0  0  0  0  0  0  0  0  0
    3.6453   -2.4228   -0.6693 H   0  0  0  0  0  0  0  0  0  0  0  0
    5.3078    0.8507    1.1305 H   0  0  0  0  0  0  0  0  0  0  0  0
    2.8075    2.6180    0.9046 H   0  0  0  0  0  0  0  0  0  0  0  0
  1  2  2  0
  2  3  1  0
  3  4  1  0
  4  5  2  0
  5  6  1  0
  5  7  1  0
  7  8  1  0
  7  9  2  0
  9 10  1  0
 10 11  1  0
 11 12  2  0
 11 13  1  0
 13 14  1  0
 14 15  1  0
 15 16  1  0
 15 17  2  0
 17 18  1  0
 17 19  1  0
 19 20  2  0
 20 21  1  0
 21 22  1  0
 20  2  1  0
 22  4  1  0
 22 10  2  0
 21 14  2  0
  6 23  1  0
  8 24  1  0
  9 25  1  0
 16 26  1  0
 18 27  1  0
 19 28  1  0
M  END
$$$$
