@<TRIPOS>MOLECULE
*****
 27 27 0 0 0
SMALL
GASTEIGER

@<TRIPOS>ATOM
      1 N          -3.8775    1.1280    0.0200 N.3     1  UNL1       -0.3299
      2 C          -3.0955    1.7867   -1.0294 C.3     1  UNL1       -0.0055
      3 C          -1.6037    1.5827   -0.7704 C.3     1  UNL1       -0.0251
      4 C          -1.3034    0.0777   -0.7733 C.3     1  UNL1        0.0105
      5 N           0.0387   -0.1583   -0.5415 N.pl3   1  UNL1       -0.3386
      6 C           1.3836   -0.3948   -0.3092 C.ar    1  UNL1        0.1053
      7 C           2.5749   -0.0891   -0.9134 C.ar    1  UNL1       -0.0342
      8 C           3.7363   -0.5257   -0.3318 C.ar    1  UNL1       -0.0596
      9 C           3.7516   -1.2483    0.8183 C.ar    1  UNL1       -0.0552
     10 C           2.6137   -1.5936    1.4799 C.ar    1  UNL1        0.0175
     11 C           1.4341   -1.1413    0.8747 C.ar    1  UNL1        0.2937
     12 N           0.3544   -1.5926    1.6936 N.pl3   1  UNL1        0.0815
     13 O          -0.9340   -1.9820    1.8777 O.co2   1  UNL1       -0.5760
     14 O           0.3262   -1.8142    2.8924 O.2     1  UNL1        0.0415
     15 H          -3.3869    1.2532    0.9251 H       1  UNL1        0.1182
     16 H          -3.9619    0.1287   -0.1980 H       1  UNL1        0.1182
     17 H          -3.4254    1.3836   -1.9866 H       1  UNL1        0.0422
     18 H          -3.3141    2.8667   -0.9380 H       1  UNL1        0.0422
     19 H          -1.3375    2.0731    0.1648 H       1  UNL1        0.0292
     20 H          -1.0922    1.9879   -1.6677 H       1  UNL1        0.0292
     21 H          -1.6810   -0.3031   -1.7543 H       1  UNL1        0.0461
     22 H          -2.0055   -0.4274   -0.0498 H       1  UNL1        0.0461
     23 H           0.2340    0.3874   -1.4484 H       1  UNL1        0.1463
     24 H           2.4439    0.4854   -1.8150 H       1  UNL1        0.0638
     25 H           4.5971   -0.2188   -0.9065 H       1  UNL1        0.0618
     26 H           4.7585   -1.4916    1.1087 H       1  UNL1        0.0620
     27 H           2.7717   -2.1603    2.3679 H       1  UNL1        0.0686
@<TRIPOS>UNITY_ATOM_ATTR
12 1
charge 1
13 1
charge -1
@<TRIPOS>BOND
     1     1     2    1
     2     2     3    1
     3     3     4    1
     4     4     5    1
     5     5     6    1
     6     6     7   ar
     7     7     8   ar
     8     8     9   ar
     9     9    10   ar
    10    10    11   ar
    11    11    12    1
    12    12    13    1
    13    12    14    2
    14    11     6   ar
    15     1    15    1
    16     1    16    1
    17     2    17    1
    18     2    18    1
    19     3    19    1
    20     3    20    1
    21     4    21    1
    22     4    22    1
    23     5    23    1
    24     7    24    1
    25     8    25    1
    26     9    26    1
    27    10    27    1
