@<TRIPOS>MOLECULE
*****
 32 34 0 0 0
SMALL
GASTEIGER

@<TRIPOS>ATOM
      1 O          -3.7524    1.3446    0.8111 O.3     1  UNL1       -0.4802
      2 C          -4.2228    0.0337    1.0478 C.2     1  UNL1        0.3137
      3 O          -5.1111   -0.0305    1.8977 O.2     1  UNL1       -0.2503
      4 C          -3.4663   -0.9136    0.1552 C.3     1  UNL1        0.0979
      5 C          -3.5051   -0.3627   -1.2452 C.3     1  UNL1       -0.0165
      6 C          -2.1895    0.3502   -1.4205 C.3     1  UNL1        0.0248
      7 N          -1.2909   -0.1411   -0.3881 N.ar    1  UNL1       -0.3405
      8 C          -2.0229   -0.8585    0.5063 C.ar    1  UNL1        0.0331
      9 C          -1.2124   -1.3628    1.5317 C.ar    1  UNL1       -0.0395
     10 C           0.0551   -0.9107    1.2090 C.ar    1  UNL1       -0.0327
     11 C          -0.0218   -0.1748    0.0429 C.ar    1  UNL1        0.0899
     12 C           1.1210    0.4767   -0.5768 C.2     1  UNL1        0.2093
     13 O           0.7871    1.3125   -1.4872 O.2     1  UNL1       -0.2851
     14 C           2.5236    0.3230   -0.3228 C.ar    1  UNL1        0.0237
     15 C           3.1445   -0.7861    0.1950 C.ar    1  UNL1       -0.0509
     16 C           4.5027   -0.7904    0.4132 C.ar    1  UNL1       -0.0611
     17 C           5.3037    0.2748    0.1386 C.ar    1  UNL1       -0.0617
     18 C           4.7122    1.4111   -0.3869 C.ar    1  UNL1       -0.0611
     19 C           3.3729    1.3970   -0.5951 C.ar    1  UNL1       -0.0509
     20 H          -4.1693    2.1551    1.2607 H       1  UNL1        0.2951
     21 H          -3.8273   -1.9525    0.2368 H       1  UNL1        0.0478
     22 H          -4.3084    0.4263   -1.3442 H       1  UNL1        0.0294
     23 H          -3.7279   -1.1057   -2.0218 H       1  UNL1        0.0294
     24 H          -1.8222    0.0835   -2.4405 H       1  UNL1        0.0492
     25 H          -2.2820    1.4621   -1.4103 H       1  UNL1        0.0492
     26 H          -1.5305   -1.9689    2.3798 H       1  UNL1        0.0636
     27 H           0.8533   -1.1884    1.8968 H       1  UNL1        0.0640
     28 H           2.5632   -1.6659    0.4144 H       1  UNL1        0.0625
     29 H           4.9321   -1.7010    0.8267 H       1  UNL1        0.0618
     30 H           6.3708    0.2778    0.3096 H       1  UNL1        0.0618
     31 H           5.2945    2.2858   -0.6247 H       1  UNL1        0.0618
     32 H           2.9260    2.2996   -1.0092 H       1  UNL1        0.0625
@<TRIPOS>BOND
     1     1     2    1
     2     2     3    2
     3     2     4    1
     4     4     5    1
     5     5     6    1
     6     6     7    1
     7     7     8   ar
     8     8     9   ar
     9     9    10   ar
    10    10    11   ar
    11    11    12    1
    12    12    13    2
    13    12    14    1
    14    14    15   ar
    15    15    16   ar
    16    16    17   ar
    17    17    18   ar
    18    18    19   ar
    19     8     4    1
    20    19    14   ar
    21    11     7   ar
    22     1    20    1
    23     4    21    1
    24     5    22    1
    25     5    23    1
    26     6    24    1
    27     6    25    1
    28     9    26    1
    29    10    27    1
    30    15    28    1
    31    16    29    1
    32    17    30    1
    33    18    31    1
    34    19    32    1
