
     RDKit          3D

 64 69  0  0  0  0  0  0  0  0999 V2000
   -3.5462    0.8120   -0.6826 O   0  0  0  0  0  0  0  0  0  0  0  0
   -3.1796   -0.3438   -0.2908 C   0  0  0  0  0  0  0  0  0  0  0  0
   -1.7947   -0.5236   -0.0607 N   0  0  0  0  0  0  0  0  0  0  0  0
   -0.8168    0.5731   -0.2510 C   0  0  0  0  0  0  0  0  0  0  0  0
   -0.2945    1.0274    1.0760 C   0  0  0  0  0  0  0  0  0  0  0  0
    1.2146    1.0190    1.1964 C   0  0  0  0  0  0  0  0  0  0  0  0
    1.5885   -0.4707    1.2875 C   0  0  0  0  0  0  0  0  0  0  0  0
    1.9712   -0.8476   -0.1327 C   0  0  0  0  0  0  0  0  0  0  0  0
    1.6246    0.4299   -0.9173 C   0  0  0  0  0  0  0  0  0  0  0  0
    0.1640    0.3099   -1.3205 C   0  0  0  0  0  0  0  0  0  0  0  0
    1.8697    1.4305    0.0247 N   0  0  0  0  0  0  0  0  0  0  0  0
    2.9882    2.2342    0.0404 C   0  0  0  0  0  0  0  0  0  0  0  0
    4.2303    1.4402    0.2155 C   0  0  0  0  0  0  0  0  0  0  0  0
    4.7304    1.1667    1.4848 C   0  0  0  0  0  0  0  0  0  0  0  0
    5.8792    0.4356    1.6772 C   0  0  0  0  0  0  0  0  0  0  0  0
    6.5736   -0.0521    0.5853 C   0  0  0  0  0  0  0  0  0  0  0  0
    7.7281   -0.7912    0.7622 C   0  0  0  0  0  0  0  0  0  0  0  0
    8.4548   -1.3012   -0.2916 C   0  0  0  0  0  0  0  0  0  0  0  0
    9.5812   -2.0244   -0.1031 F   0  0  0  0  0  0  0  0  0  0  0  0
    7.9389   -1.0166   -1.5517 C   0  0  0  0  0  0  0  0  0  0  0  0
    6.7970   -0.2867   -1.7638 C   0  0  0  0  0  0  0  0  0  0  0  0
    6.1033    0.2026   -0.6826 C   0  0  0  0  0  0  0  0  0  0  0  0
    4.9341    0.9479   -0.8507 C   0  0  0  0  0  0  0  0  0  0  0  0
   -4.1422   -1.3983   -0.0958 C   0  0  0  0  0  0  0  0  0  0  0  0
   -3.7671   -2.7026    0.2362 C   0  0  0  0  0  0  0  0  0  0  0  0
   -4.6481   -3.7313    0.4037 C   0  0  0  0  0  0  0  0  0  0  0  0
   -5.9834   -3.4733    0.2370 C   0  0  0  0  0  0  0  0  0  0  0  0
   -6.3920   -2.1984   -0.0897 C   0  0  0  0  0  0  0  0  0  0  0  0
   -5.4863   -1.1380   -0.2613 C   0  0  0  0  0  0  0  0  0  0  0  0
   -6.0473    0.1593   -0.5573 C   0  0  0  0  0  0  0  0  0  0  0  0
   -6.7597    0.3557   -1.7372 C   0  0  0  0  0  0  0  0  0  0  0  0
   -7.3497    1.5811   -2.0265 C   0  0  0  0  0  0  0  0  0  0  0  0
   -7.2399    2.6159   -1.1556 C   0  0  0  0  0  0  0  0  0  0  0  0
   -6.5453    2.4548    0.0140 C   0  0  0  0  0  0  0  0  0  0  0  0
   -5.9540    1.2210    0.3007 C   0  0  0  0  0  0  0  0  0  0  0  0
   -1.4364   -1.4418    0.2432 H   0  0  0  0  0  0  0  0  0  0  0  0
   -1.4595    1.4374   -0.6159 H   0  0  0  0  0  0  0  0  0  0  0  0
   -0.6421    0.2728    1.8450 H   0  0  0  0  0  0  0  0  0  0  0  0
   -0.7009    2.0018    1.4165 H   0  0  0  0  0  0  0  0  0  0  0  0
    1.4699    1.5464    2.1152 H   0  0  0  0  0  0  0  0  0  0  0  0
    0.7182   -1.0673    1.6645 H   0  0  0  0  0  0  0  0  0  0  0  0
    2.4501   -0.5294    1.9763 H   0  0  0  0  0  0  0  0  0  0  0  0
    3.0225   -1.0780   -0.2731 H   0  0  0  0  0  0  0  0  0  0  0  0
    1.3689   -1.6998   -0.5163 H   0  0  0  0  0  0  0  0  0  0  0  0
    2.2004    0.4645   -1.8599 H   0  0  0  0  0  0  0  0  0  0  0  0
    0.0305   -0.7291   -1.7007 H   0  0  0  0  0  0  0  0  0  0  0  0
    0.0028    0.9562   -2.2169 H   0  0  0  0  0  0  0  0  0  0  0  0
    3.0930    2.9449   -0.8230 H   0  0  0  0  0  0  0  0  0  0  0  0
    2.9631    2.9387    0.9385 H   0  0  0  0  0  0  0  0  0  0  0  0
    4.1793    1.5502    2.3213 H   0  0  0  0  0  0  0  0  0  0  0  0
    6.2718    0.2189    2.6550 H   0  0  0  0  0  0  0  0  0  0  0  0
    8.0906   -0.9885    1.7690 H   0  0  0  0  0  0  0  0  0  0  0  0
    8.4791   -1.3966   -2.4056 H   0  0  0  0  0  0  0  0  0  0  0  0
    6.4058   -0.0683   -2.7531 H   0  0  0  0  0  0  0  0  0  0  0  0
    4.6218    1.1121   -1.8586 H   0  0  0  0  0  0  0  0  0  0  0  0
   -2.7253   -2.9018    0.3649 H   0  0  0  0  0  0  0  0  0  0  0  0
   -4.2861   -4.7053    0.6597 H   0  0  0  0  0  0  0  0  0  0  0  0
   -6.7509   -4.2212    0.3468 H   0  0  0  0  0  0  0  0  0  0  0  0
   -7.4377   -1.9676   -0.2284 H   0  0  0  0  0  0  0  0  0  0  0  0
   -6.8487   -0.4555   -2.4335 H   0  0  0  0  0  0  0  0  0  0  0  0
   -7.8977    1.6965   -2.9595 H   0  0  0  0  0  0  0  0  0  0  0  0
   -7.7110    3.5780   -1.3925 H   0  0  0  0  0  0  0  0  0  0  0  0
   -6.4757    3.2889    0.6919 H   0  0  0  0  0  0  0  0  0  0  0  0
   -5.4207    1.1259    1.2361 H   0  0  0  0  0  0  0  0  0  0  0  0
  1  2  2  0
  2  3  1  0
  3  4  1  0
  4  5  1  0
  5  6  1  0
  6  7  1  0
  7  8  1  0
  8  9  1  0
  9 10  1  0
  9 11  1  0
 11 12  1  0
 12 13  1  0
 13 14  2  0
 14 15  1  0
 15 16  2  0
 16 17  1  0
 17 18  2  0
 18 19  1  0
 18 20  1  0
 20 21  2  0
 21 22  1  0
 22 23  2  0
  2 24  1  0
 24 25  2  0
 25 26  1  0
 26 27  2  0
 27 28  1  0
 28 29  2  0
 29 30  1  0
 30 31  2  0
 31 32  1  0
 32 33  2  0
 33 34  1  0
 34 35  2  0
 10  4  1  0
 23 13  1  0
 29 24  1  0
 35 30  1  0
 11  6  1  0
 22 16  1  0
  3 36  1  0
  4 37  1  0
  5 38  1  0
  5 39  1  0
  6 40  1  0
  7 41  1  0
  7 42  1  0
  8 43  1  0
  8 44  1  0
  9 45  1  0
 10 46  1  0
 10 47  1  0
 12 48  1  0
 12 49  1  0
 14 50  1  0
 15 51  1  0
 17 52  1  0
 20 53  1  0
 21 54  1  0
 23 55  1  0
 25 56  1  0
 26 57  1  0
 27 58  1  0
 28 59  1  0
 31 60  1  0
 32 61  1  0
 33 62  1  0
 34 63  1  0
 35 64  1  0
M  END
$$$$
