@<TRIPOS>MOLECULE
*****
 64 69 0 0 0
SMALL
GASTEIGER

@<TRIPOS>ATOM
      1 O          -3.5462    0.8120   -0.6826 O.2     1  UNL1       -0.2702
      2 C          -3.1796   -0.3438   -0.2908 C.2     1  UNL1        0.2449
      3 N          -1.7947   -0.5236   -0.0607 N.am    1  UNL1       -0.3084
      4 C          -0.8168    0.5731   -0.2510 C.3     1  UNL1        0.0263
      5 C          -0.2945    1.0274    1.0760 C.3     1  UNL1       -0.0187
      6 C           1.2146    1.0190    1.1964 C.3     1  UNL1        0.0127
      7 C           1.5885   -0.4707    1.2875 C.3     1  UNL1       -0.0358
      8 C           1.9712   -0.8476   -0.1327 C.3     1  UNL1       -0.0358
      9 C           1.6246    0.4299   -0.9173 C.3     1  UNL1        0.0127
     10 C           0.1640    0.3099   -1.3205 C.3     1  UNL1       -0.0187
     11 N           1.8697    1.4305    0.0247 N.3     1  UNL1       -0.2922
     12 C           2.9882    2.2342    0.0404 C.3     1  UNL1        0.0246
     13 C           4.2303    1.4402    0.2155 C.ar    1  UNL1       -0.0328
     14 C           4.7304    1.1667    1.4848 C.ar    1  UNL1       -0.0568
     15 C           5.8792    0.4356    1.6772 C.ar    1  UNL1       -0.0536
     16 C           6.5736   -0.0521    0.5853 C.ar    1  UNL1       -0.0152
     17 C           7.7281   -0.7912    0.7622 C.ar    1  UNL1       -0.0187
     18 C           8.4548   -1.3012   -0.2916 C.ar    1  UNL1        0.1240
     19 F           9.5812   -2.0244   -0.1031 F       1  UNL1       -0.2055
     20 C           7.9389   -1.0166   -1.5517 C.ar    1  UNL1       -0.0259
     21 C           6.7970   -0.2867   -1.7638 C.ar    1  UNL1       -0.0513
     22 C           6.1033    0.2026   -0.6826 C.ar    1  UNL1       -0.0174
     23 C           4.9341    0.9479   -0.8507 C.ar    1  UNL1       -0.0496
     24 C          -4.1422   -1.3983   -0.0958 C.ar    1  UNL1        0.0444
     25 C          -3.7671   -2.7026    0.2362 C.ar    1  UNL1       -0.0490
     26 C          -4.6481   -3.7313    0.4037 C.ar    1  UNL1       -0.0610
     27 C          -5.9834   -3.4733    0.2370 C.ar    1  UNL1       -0.0611
     28 C          -6.3920   -2.1984   -0.0897 C.ar    1  UNL1       -0.0533
     29 C          -5.4863   -1.1380   -0.2613 C.ar    1  UNL1       -0.0058
     30 C          -6.0473    0.1593   -0.5573 C.ar    1  UNL1       -0.0172
     31 C          -6.7597    0.3557   -1.7372 C.ar    1  UNL1       -0.0540
     32 C          -7.3497    1.5811   -2.0265 C.ar    1  UNL1       -0.0612
     33 C          -7.2399    2.6159   -1.1556 C.ar    1  UNL1       -0.0617
     34 C          -6.5453    2.4548    0.0140 C.ar    1  UNL1       -0.0612
     35 C          -5.9540    1.2210    0.3007 C.ar    1  UNL1       -0.0540
     36 H          -1.4364   -1.4418    0.2432 H       1  UNL1        0.1493
     37 H          -1.4595    1.4374   -0.6159 H       1  UNL1        0.0499
     38 H          -0.6421    0.2728    1.8450 H       1  UNL1        0.0298
     39 H          -0.7009    2.0018    1.4165 H       1  UNL1        0.0298
     40 H           1.4699    1.5464    2.1152 H       1  UNL1        0.0463
     41 H           0.7182   -1.0673    1.6645 H       1  UNL1        0.0281
     42 H           2.4501   -0.5294    1.9763 H       1  UNL1        0.0281
     43 H           3.0225   -1.0780   -0.2731 H       1  UNL1        0.0281
     44 H           1.3689   -1.6998   -0.5163 H       1  UNL1        0.0281
     45 H           2.2004    0.4645   -1.8599 H       1  UNL1        0.0463
     46 H           0.0305   -0.7291   -1.7007 H       1  UNL1        0.0298
     47 H           0.0028    0.9562   -2.2169 H       1  UNL1        0.0298
     48 H           3.0930    2.9449   -0.8230 H       1  UNL1        0.0476
     49 H           2.9631    2.9387    0.9385 H       1  UNL1        0.0476
     50 H           4.1793    1.5502    2.3213 H       1  UNL1        0.0621
     51 H           6.2718    0.2189    2.6550 H       1  UNL1        0.0624
     52 H           8.0906   -0.9885    1.7690 H       1  UNL1        0.0652
     53 H           8.4791   -1.3966   -2.4056 H       1  UNL1        0.0646
     54 H           6.4058   -0.0683   -2.7531 H       1  UNL1        0.0624
     55 H           4.6218    1.1121   -1.8586 H       1  UNL1        0.0627
     56 H          -2.7253   -2.9018    0.3649 H       1  UNL1        0.0625
     57 H          -4.2861   -4.7053    0.6597 H       1  UNL1        0.0618
     58 H          -6.7509   -4.2212    0.3468 H       1  UNL1        0.0618
     59 H          -7.4377   -1.9676   -0.2284 H       1  UNL1        0.0624
     60 H          -6.8487   -0.4555   -2.4335 H       1  UNL1        0.0624
     61 H          -7.8977    1.6965   -2.9595 H       1  UNL1        0.0618
     62 H          -7.7110    3.5780   -1.3925 H       1  UNL1        0.0618
     63 H          -6.4757    3.2889    0.6919 H       1  UNL1        0.0618
     64 H          -5.4207    1.1259    1.2361 H       1  UNL1        0.0624
@<TRIPOS>BOND
     1     1     2    2
     2     2     3   am
     3     3     4    1
     4     4     5    1
     5     5     6    1
     6     6     7    1
     7     7     8    1
     8     8     9    1
     9     9    10    1
    10     9    11    1
    11    11    12    1
    12    12    13    1
    13    13    14   ar
    14    14    15   ar
    15    15    16   ar
    16    16    17   ar
    17    17    18   ar
    18    18    19    1
    19    18    20   ar
    20    20    21   ar
    21    21    22   ar
    22    22    23   ar
    23     2    24    1
    24    24    25   ar
    25    25    26   ar
    26    26    27   ar
    27    27    28   ar
    28    28    29   ar
    29    29    30    1
    30    30    31   ar
    31    31    32   ar
    32    32    33   ar
    33    33    34   ar
    34    34    35   ar
    35    10     4    1
    36    23    13   ar
    37    29    24   ar
    38    35    30   ar
    39    11     6    1
    40    22    16   ar
    41     3    36    1
    42     4    37    1
    43     5    38    1
    44     5    39    1
    45     6    40    1
    46     7    41    1
    47     7    42    1
    48     8    43    1
    49     8    44    1
    50     9    45    1
    51    10    46    1
    52    10    47    1
    53    12    48    1
    54    12    49    1
    55    14    50    1
    56    15    51    1
    57    17    52    1
    58    20    53    1
    59    21    54    1
    60    23    55    1
    61    25    56    1
    62    26    57    1
    63    27    58    1
    64    28    59    1
    65    31    60    1
    66    32    61    1
    67    33    62    1
    68    34    63    1
    69    35    64    1
