@<TRIPOS>MOLECULE
*****
 56 59 0 0 0
SMALL
GASTEIGER

@<TRIPOS>ATOM
      1 C          -3.4935   -0.2161   -0.8964 C.3     1  UNL1        0.1125
      2 O          -3.2642    1.1507   -0.8677 O.3     1  UNL1       -0.3612
      3 C          -4.3790    1.8720   -0.4642 C.3     1  UNL1        0.1108
      4 C          -4.1909    3.3244   -0.8358 C.3     1  UNL1        0.0729
      5 O          -3.0829    3.8849   -0.2425 O.3     1  UNL1       -0.3924
      6 C          -4.5299    1.6804    1.0297 C.3     1  UNL1        0.1117
      7 O          -5.5939    2.4347    1.5310 O.3     1  UNL1       -0.3865
      8 C          -4.7097    0.2115    1.2774 C.3     1  UNL1        0.1121
      9 O          -3.9363   -0.2458    2.3513 O.3     1  UNL1       -0.3865
     10 C          -4.5662   -0.6521    0.0657 C.3     1  UNL1        0.1137
     11 O          -5.7875   -0.8238   -0.5978 O.3     1  UNL1       -0.3862
     12 C          -2.2635   -1.0241   -0.6951 C.ar    1  UNL1       -0.0160
     13 C          -2.0106   -2.1299   -1.5110 C.ar    1  UNL1       -0.0558
     14 C          -0.8902   -2.8926   -1.3502 C.ar    1  UNL1       -0.0582
     15 C           0.0455   -2.5896   -0.3580 C.ar    1  UNL1       -0.0469
     16 C           1.2269   -3.4460   -0.2305 C.3     1  UNL1       -0.0394
     17 C          -0.1738   -1.5056    0.4635 C.ar    1  UNL1       -0.0393
     18 C           0.7876   -1.1364    1.5303 C.3     1  UNL1        0.0041
     19 C           2.0036   -0.4554    1.0185 C.ar    1  UNL1       -0.0053
     20 C           2.2171    0.8808    0.7986 C.ar    1  UNL1       -0.0506
     21 C           3.4579    1.2237    0.3195 C.ar    1  UNL1       -0.0467
     22 C           4.3717    0.2880    0.0946 C.ar    1  UNL1        0.0196
     23 S           3.5981   -1.2319    0.5337 S.2     1  UNL1       -0.0929
     24 C           5.7392    0.3687   -0.4012 C.ar    1  UNL1       -0.0111
     25 C           6.4539   -0.8049   -0.5266 C.ar    1  UNL1       -0.0508
     26 C           7.7536   -0.7894   -0.9916 C.ar    1  UNL1       -0.0259
     27 C           8.3063    0.4288   -1.3230 C.ar    1  UNL1        0.1234
     28 F           9.5773    0.4814   -1.7824 F       1  UNL1       -0.2055
     29 C           7.5598    1.5786   -1.1837 C.ar    1  UNL1       -0.0259
     30 C           6.2438    1.5960   -0.7164 C.ar    1  UNL1       -0.0508
     31 C          -1.3226   -0.7698    0.2565 C.ar    1  UNL1       -0.0523
     32 H          -3.8663   -0.4340   -1.9263 H       1  UNL1        0.0673
     33 H          -5.2786    1.4509   -0.9297 H       1  UNL1        0.0646
     34 H          -4.0697    3.3826   -1.9324 H       1  UNL1        0.0584
     35 H          -5.0627    3.9396   -0.5687 H       1  UNL1        0.0584
     36 H          -2.8816    4.7458   -0.7008 H       1  UNL1        0.2095
     37 H          -3.5761    2.0017    1.5046 H       1  UNL1        0.0647
     38 H          -5.2910    2.9026    2.3385 H       1  UNL1        0.2100
     39 H          -5.7761    0.0806    1.6252 H       1  UNL1        0.0647
     40 H          -3.5683   -1.1319    2.0621 H       1  UNL1        0.2100
     41 H          -4.2890   -1.6676    0.4315 H       1  UNL1        0.0649
     42 H          -5.7161   -1.6665   -1.1052 H       1  UNL1        0.2100
     43 H          -2.7412   -2.3746   -2.2936 H       1  UNL1        0.0621
     44 H          -0.7468   -3.7418   -2.0151 H       1  UNL1        0.0620
     45 H           1.6703   -3.5105    0.7642 H       1  UNL1        0.0278
     46 H           0.9516   -4.5112   -0.4927 H       1  UNL1        0.0278
     47 H           1.9341   -3.1579   -1.0443 H       1  UNL1        0.0278
     48 H           1.0418   -2.0408    2.1234 H       1  UNL1        0.0367
     49 H           0.3458   -0.4311    2.2636 H       1  UNL1        0.0367
     50 H           1.4160    1.5797    1.0087 H       1  UNL1        0.0626
     51 H           3.7264    2.2726    0.1106 H       1  UNL1        0.0629
     52 H           6.0453   -1.7800   -0.2737 H       1  UNL1        0.0625
     53 H           8.3377   -1.6910   -1.1007 H       1  UNL1        0.0646
     54 H           8.0439    2.5186   -1.4603 H       1  UNL1        0.0646
     55 H           5.6710    2.4965   -0.6114 H       1  UNL1        0.0625
     56 H          -1.4679    0.0761    0.9179 H       1  UNL1        0.0624
@<TRIPOS>BOND
     1     1     2    1
     2     2     3    1
     3     3     4    1
     4     4     5    1
     5     3     6    1
     6     6     7    1
     7     6     8    1
     8     8     9    1
     9     8    10    1
    10    10    11    1
    11     1    12    1
    12    12    13   ar
    13    13    14   ar
    14    14    15   ar
    15    15    16    1
    16    15    17   ar
    17    17    18    1
    18    18    19    1
    19    19    20   ar
    20    20    21   ar
    21    21    22   ar
    22    22    23   ar
    23    22    24    1
    24    24    25   ar
    25    25    26   ar
    26    26    27   ar
    27    27    28    1
    28    27    29   ar
    29    29    30   ar
    30    17    31   ar
    31    10     1    1
    32    31    12   ar
    33    23    19   ar
    34    30    24   ar
    35     1    32    1
    36     3    33    1
    37     4    34    1
    38     4    35    1
    39     5    36    1
    40     6    37    1
    41     7    38    1
    42     8    39    1
    43     9    40    1
    44    10    41    1
    45    11    42    1
    46    13    43    1
    47    14    44    1
    48    16    45    1
    49    16    46    1
    50    16    47    1
    51    18    48    1
    52    18    49    1
    53    20    50    1
    54    21    51    1
    55    25    52    1
    56    26    53    1
    57    29    54    1
    58    30    55    1
    59    31    56    1
