@<TRIPOS>MOLECULE
*****
 55 59 0 0 0
SMALL
GASTEIGER

@<TRIPOS>ATOM
      1 C          -3.4728    1.9214   -1.5540 C.3     1  UNL1       -0.0377
      2 C          -2.8038    2.4162   -0.3194 C.ar    1  UNL1       -0.0265
      3 C          -2.9600    3.7541   -0.0137 C.ar    1  UNL1       -0.0569
      4 C          -2.3898    4.3150    1.1092 C.ar    1  UNL1       -0.0614
      5 C          -1.6488    3.5091    1.9373 C.ar    1  UNL1       -0.0598
      6 C          -1.4787    2.1710    1.6529 C.ar    1  UNL1       -0.0374
      7 C          -2.0592    1.6446    0.5277 C.ar    1  UNL1        0.0541
      8 N          -1.9093    0.2738    0.2127 N.ar    1  UNL1       -0.2626
      9 C          -1.1455   -0.0637   -0.8215 C.ar    1  UNL1        0.1391
     10 C          -0.3718    0.8497   -1.6968 C.3     1  UNL1        0.1021
     11 N           1.0279    0.7340   -1.3175 N.ar    1  UNL1       -0.2377
     12 N           1.8512   -0.1879   -1.8419 N.ar    1  UNL1       -0.1598
     13 C           3.0706   -0.1063   -1.3371 C.ar    1  UNL1        0.1478
     14 C           4.1737   -0.9524   -1.6945 C.1     1  UNL1       -0.0416
     15 C           5.1010   -1.6901   -2.0014 C.1     1  UNL1       -0.0674
     16 C           6.1960   -2.5905   -2.3700 C.3     1  UNL1        0.1052
     17 O           6.8574   -2.9211   -1.1899 O.3     1  UNL1       -0.3825
     18 C           3.0698    0.9165   -0.4318 C.ar    1  UNL1        0.0937
     19 C           4.0338    1.4443    0.3730 C.ar    1  UNL1        0.1314
     20 N           5.3635    0.9020    0.3652 N.pl3   1  UNL1       -0.3425
     21 N           3.7049    2.4792    1.1679 N.ar    1  UNL1       -0.2203
     22 C           2.4473    2.9544    1.1421 C.ar    1  UNL1        0.1204
     23 N           1.4888    2.4427    0.3535 N.ar    1  UNL1       -0.2161
     24 C           1.7733    1.4137   -0.4515 C.ar    1  UNL1        0.1649
     25 N          -1.0475   -1.3940   -1.0979 N.ar    1  UNL1       -0.2312
     26 C          -1.6738   -2.3256   -0.3839 C.ar    1  UNL1        0.0785
     27 C          -1.5479   -3.6516   -0.6959 C.ar    1  UNL1       -0.0355
     28 C          -2.2106   -4.6139    0.0627 C.ar    1  UNL1       -0.0595
     29 C          -2.9914   -4.2438    1.1237 C.ar    1  UNL1       -0.0580
     30 C          -3.1274   -2.9049    1.4503 C.ar    1  UNL1       -0.0361
     31 C          -3.9547   -2.4446    2.5824 C.3     1  UNL1       -0.0389
     32 C          -2.4623   -1.9638    0.6863 C.ar    1  UNL1        0.0681
     33 C          -2.5683   -0.6193    0.9742 C.ar    1  UNL1        0.2666
     34 O          -3.2889   -0.2096    1.9610 O.2     1  UNL1       -0.2666
     35 H          -4.5622    2.1859   -1.5602 H       1  UNL1        0.0278
     36 H          -3.0434    2.5134   -2.3974 H       1  UNL1        0.0278
     37 H          -3.2744    0.8786   -1.7779 H       1  UNL1        0.0278
     38 H          -3.5577    4.3873   -0.6887 H       1  UNL1        0.0621
     39 H          -2.4968    5.3491    1.3671 H       1  UNL1        0.0618
     40 H          -1.1665    3.8692    2.8404 H       1  UNL1        0.0618
     41 H          -0.8752    1.5315    2.3342 H       1  UNL1        0.0638
     42 H          -0.4011    0.5762   -2.7693 H       1  UNL1        0.0590
     43 H          -0.6007    1.9182   -1.5214 H       1  UNL1        0.0590
     44 H           6.8979   -2.1181   -3.0853 H       1  UNL1        0.0695
     45 H           5.7748   -3.4911   -2.8184 H       1  UNL1        0.0695
     46 H           7.4832   -2.1838   -0.9489 H       1  UNL1        0.2107
     47 H           5.9889    1.1074   -0.4414 H       1  UNL1        0.1437
     48 H           5.7145    0.3050    1.1544 H       1  UNL1        0.1437
     49 H           2.2506    3.7965    1.8137 H       1  UNL1        0.1048
     50 H          -0.9466   -4.0133   -1.5216 H       1  UNL1        0.0639
     51 H          -2.1072   -5.6561   -0.1884 H       1  UNL1        0.0618
     52 H          -3.5134   -4.9756    1.7241 H       1  UNL1        0.0620
     53 H          -4.3804   -3.3913    3.0484 H       1  UNL1        0.0278
     54 H          -3.3813   -1.9849    3.4124 H       1  UNL1        0.0278
     55 H          -4.8496   -1.8630    2.2757 H       1  UNL1        0.0278
@<TRIPOS>BOND
     1     1     2    1
     2     2     3   ar
     3     3     4   ar
     4     4     5   ar
     5     5     6   ar
     6     6     7   ar
     7     7     8    1
     8     8     9   ar
     9     9    10    1
    10    10    11    1
    11    11    12   ar
    12    12    13   ar
    13    13    14    1
    14    14    15    3
    15    15    16    1
    16    16    17    1
    17    13    18   ar
    18    18    19   ar
    19    19    20    1
    20    19    21   ar
    21    21    22   ar
    22    22    23   ar
    23    23    24   ar
    24     9    25   ar
    25    25    26   ar
    26    26    27   ar
    27    27    28   ar
    28    28    29   ar
    29    29    30   ar
    30    30    31    1
    31    30    32   ar
    32    32    33   ar
    33    33    34    2
    34     7     2   ar
    35    33     8   ar
    36    24    11   ar
    37    32    26   ar
    38    24    18   ar
    39     1    35    1
    40     1    36    1
    41     1    37    1
    42     3    38    1
    43     4    39    1
    44     5    40    1
    45     6    41    1
    46    10    42    1
    47    10    43    1
    48    16    44    1
    49    16    45    1
    50    17    46    1
    51    20    47    1
    52    20    48    1
    53    22    49    1
    54    27    50    1
    55    28    51    1
    56    29    52    1
    57    31    53    1
    58    31    54    1
    59    31    55    1
