
     RDKit          3D

 55 59  0  0  0  0  0  0  0  0999 V2000
   -3.4728    1.9214   -1.5540 C   0  0  0  0  0  0  0  0  0  0  0  0
   -2.8038    2.4162   -0.3194 C   0  0  0  0  0  0  0  0  0  0  0  0
   -2.9600    3.7541   -0.0137 C   0  0  0  0  0  0  0  0  0  0  0  0
   -2.3898    4.3150    1.1092 C   0  0  0  0  0  0  0  0  0  0  0  0
   -1.6488    3.5091    1.9373 C   0  0  0  0  0  0  0  0  0  0  0  0
   -1.4787    2.1710    1.6529 C   0  0  0  0  0  0  0  0  0  0  0  0
   -2.0592    1.6446    0.5277 C   0  0  0  0  0  0  0  0  0  0  0  0
   -1.9093    0.2738    0.2127 N   0  0  0  0  0  0  0  0  0  0  0  0
   -1.1455   -0.0637   -0.8215 C   0  0  0  0  0  0  0  0  0  0  0  0
   -0.3718    0.8497   -1.6968 C   0  0  0  0  0  0  0  0  0  0  0  0
    1.0279    0.7340   -1.3175 N   0  0  0  0  0  0  0  0  0  0  0  0
    1.8512   -0.1879   -1.8419 N   0  0  0  0  0  0  0  0  0  0  0  0
    3.0706   -0.1063   -1.3371 C   0  0  0  0  0  0  0  0  0  0  0  0
    4.1737   -0.9524   -1.6945 C   0  0  0  0  0  0  0  0  0  0  0  0
    5.1010   -1.6901   -2.0014 C   0  0  0  0  0  0  0  0  0  0  0  0
    6.1960   -2.5905   -2.3700 C   0  0  0  0  0  0  0  0  0  0  0  0
    6.8574   -2.9211   -1.1899 O   0  0  0  0  0  0  0  0  0  0  0  0
    3.0698    0.9165   -0.4318 C   0  0  0  0  0  0  0  0  0  0  0  0
    4.0338    1.4443    0.3730 C   0  0  0  0  0  0  0  0  0  0  0  0
    5.3635    0.9020    0.3652 N   0  0  0  0  0  0  0  0  0  0  0  0
    3.7049    2.4792    1.1679 N   0  0  0  0  0  0  0  0  0  0  0  0
    2.4473    2.9544    1.1421 C   0  0  0  0  0  0  0  0  0  0  0  0
    1.4888    2.4427    0.3535 N   0  0  0  0  0  0  0  0  0  0  0  0
    1.7733    1.4137   -0.4515 C   0  0  0  0  0  0  0  0  0  0  0  0
   -1.0475   -1.3940   -1.0979 N   0  0  0  0  0  0  0  0  0  0  0  0
   -1.6738   -2.3256   -0.3839 C   0  0  0  0  0  0  0  0  0  0  0  0
   -1.5479   -3.6516   -0.6959 C   0  0  0  0  0  0  0  0  0  0  0  0
   -2.2106   -4.6139    0.0627 C   0  0  0  0  0  0  0  0  0  0  0  0
   -2.9914   -4.2438    1.1237 C   0  0  0  0  0  0  0  0  0  0  0  0
   -3.1274   -2.9049    1.4503 C   0  0  0  0  0  0  0  0  0  0  0  0
   -3.9547   -2.4446    2.5824 C   0  0  0  0  0  0  0  0  0  0  0  0
   -2.4623   -1.9638    0.6863 C   0  0  0  0  0  0  0  0  0  0  0  0
   -2.5683   -0.6193    0.9742 C   0  0  0  0  0  0  0  0  0  0  0  0
   -3.2889   -0.2096    1.9610 O   0  0  0  0  0  0  0  0  0  0  0  0
   -4.5622    2.1859   -1.5602 H   0  0  0  0  0  0  0  0  0  0  0  0
   -3.0434    2.5134   -2.3974 H   0  0  0  0  0  0  0  0  0  0  0  0
   -3.2744    0.8786   -1.7779 H   0  0  0  0  0  0  0  0  0  0  0  0
   -3.5577    4.3873   -0.6887 H   0  0  0  0  0  0  0  0  0  0  0  0
   -2.4968    5.3491    1.3671 H   0  0  0  0  0  0  0  0  0  0  0  0
   -1.1665    3.8692    2.8404 H   0  0  0  0  0  0  0  0  0  0  0  0
   -0.8752    1.5315    2.3342 H   0  0  0  0  0  0  0  0  0  0  0  0
   -0.4011    0.5762   -2.7693 H   0  0  0  0  0  0  0  0  0  0  0  0
   -0.6007    1.9182   -1.5214 H   0  0  0  0  0  0  0  0  0  0  0  0
    6.8979   -2.1181   -3.0853 H   0  0  0  0  0  0  0  0  0  0  0  0
    5.7748   -3.4911   -2.8184 H   0  0  0  0  0  0  0  0  0  0  0  0
    7.4832   -2.1838   -0.9489 H   0  0  0  0  0  0  0  0  0  0  0  0
    5.9889    1.1074   -0.4414 H   0  0  0  0  0  0  0  0  0  0  0  0
    5.7145    0.3050    1.1544 H   0  0  0  0  0  0  0  0  0  0  0  0
    2.2506    3.7965    1.8137 H   0  0  0  0  0  0  0  0  0  0  0  0
   -0.9466   -4.0133   -1.5216 H   0  0  0  0  0  0  0  0  0  0  0  0
   -2.1072   -5.6561   -0.1884 H   0  0  0  0  0  0  0  0  0  0  0  0
   -3.5134   -4.9756    1.7241 H   0  0  0  0  0  0  0  0  0  0  0  0
   -4.3804   -3.3913    3.0484 H   0  0  0  0  0  0  0  0  0  0  0  0
   -3.3813   -1.9849    3.4124 H   0  0  0  0  0  0  0  0  0  0  0  0
   -4.8496   -1.8630    2.2757 H   0  0  0  0  0  0  0  0  0  0  0  0
  1  2  1  0
  2  3  2  0
  3  4  1  0
  4  5  2  0
  5  6  1  0
  6  7  2  0
  7  8  1  0
  8  9  1  0
  9 10  1  0
 10 11  1  0
 11 12  1  0
 12 13  2  0
 13 14  1  0
 14 15  3  0
 15 16  1  0
 16 17  1  0
 13 18  1  0
 18 19  2  0
 19 20  1  0
 19 21  1  0
 21 22  2  0
 22 23  1  0
 23 24  2  0
  9 25  2  0
 25 26  1  0
 26 27  2  0
 27 28  1  0
 28 29  2  0
 29 30  1  0
 30 31  1  0
 30 32  2  0
 32 33  1  0
 33 34  2  0
  7  2  1  0
 33  8  1  0
 24 11  1  0
 32 26  1  0
 24 18  1  0
  1 35  1  0
  1 36  1  0
  1 37  1  0
  3 38  1  0
  4 39  1  0
  5 40  1  0
  6 41  1  0
 10 42  1  0
 10 43  1  0
 16 44  1  0
 16 45  1  0
 17 46  1  0
 20 47  1  0
 20 48  1  0
 22 49  1  0
 27 50  1  0
 28 51  1  0
 29 52  1  0
 31 53  1  0
 31 54  1  0
 31 55  1  0
M  END
$$$$
