@<TRIPOS>MOLECULE
*****
 72 77 0 0 0
SMALL
GASTEIGER

@<TRIPOS>ATOM
      1 C          -8.9725   -0.5635    2.1390 C.3     1  UNL1        0.0032
      2 N          -7.5927   -0.2465    1.9723 N.am    1  UNL1       -0.3024
      3 C          -7.0209    0.8577    2.7165 C.3     1  UNL1        0.0032
      4 C          -6.7473   -0.9782    1.0948 C.2     1  UNL1        0.2627
      5 O          -7.2521   -1.9297    0.4547 O.2     1  UNL1       -0.2684
      6 C          -5.3493   -0.6595    0.9262 C.ar    1  UNL1        0.1070
      7 C          -4.4140   -0.7365    1.9667 C.ar    1  UNL1       -0.0209
      8 C          -3.2173   -0.3547    1.4092 C.ar    1  UNL1        0.0378
      9 C          -1.9557   -0.2355    1.9456 C.ar    1  UNL1        0.0419
     10 N          -0.9624    0.1694    1.1461 N.ar    1  UNL1       -0.2219
     11 C          -1.1424    0.4639   -0.1546 C.ar    1  UNL1        0.2224
     12 N          -0.0735    0.8972   -0.9836 N.pl3   1  UNL1       -0.2685
     13 C           1.2196    1.0461   -0.4313 C.ar    1  UNL1        0.1250
     14 C           2.2578    1.4712   -1.2555 C.ar    1  UNL1       -0.0208
     15 C           3.4985    1.6043   -0.6635 C.ar    1  UNL1       -0.0449
     16 C           3.7200    1.3367    0.6674 C.ar    1  UNL1        0.0551
     17 C           5.0321    1.4814    1.2952 C.2     1  UNL1        0.2481
     18 O           5.1569    2.3058    2.2450 O.2     1  UNL1       -0.2699
     19 N           6.1750    0.7460    0.8959 N.am    1  UNL1       -0.2959
     20 C           7.3724    1.0220    1.6267 C.3     1  UNL1        0.0165
     21 C           8.6161    0.9249    0.7633 C.3     1  UNL1       -0.0195
     22 C           8.8559   -0.4934    0.2921 C.3     1  UNL1        0.0328
     23 C           9.0798   -0.5535   -1.1961 C.3     1  UNL1        0.0631
     24 O           7.9235   -0.6533   -1.9337 O.3     1  UNL1       -0.3766
     25 C           7.1697   -1.7771   -1.5358 C.3     1  UNL1        0.0645
     26 C           6.6868   -1.4444   -0.1195 C.3     1  UNL1        0.0472
     27 C           5.9155   -0.1685   -0.2015 C.3     1  UNL1        0.0325
     28 N           7.8424   -1.4073    0.7146 N.3     1  UNL1       -0.3048
     29 C           2.6543    0.9190    1.4339 C.ar    1  UNL1        0.0418
     30 N           1.4459    0.7866    0.8694 N.ar    1  UNL1       -0.2394
     31 N          -2.3936    0.3370   -0.6531 N.ar    1  UNL1       -0.1962
     32 C          -3.4366   -0.0614    0.0818 C.ar    1  UNL1        0.1466
     33 N          -4.7497   -0.2542   -0.1957 N.ar    1  UNL1       -0.3180
     34 C          -5.3392   -0.0453   -1.4841 C.3     1  UNL1        0.0366
     35 C          -6.6107    0.7191   -1.5067 C.3     1  UNL1       -0.0320
     36 C          -7.3168    0.1666   -2.7334 C.3     1  UNL1       -0.0511
     37 C          -6.9490   -1.3049   -2.8050 C.3     1  UNL1       -0.0511
     38 C          -5.5537   -1.3239   -2.2712 C.3     1  UNL1       -0.0320
     39 H          -9.5803   -0.0332    1.3677 H       1  UNL1        0.0428
     40 H          -9.1335   -1.6442    2.1358 H       1  UNL1        0.0428
     41 H          -9.3211   -0.1655    3.1354 H       1  UNL1        0.0428
     42 H          -6.5275    1.5914    2.0160 H       1  UNL1        0.0428
     43 H          -6.3169    0.5172    3.5111 H       1  UNL1        0.0428
     44 H          -7.8154    1.4387    3.2248 H       1  UNL1        0.0428
     45 H          -4.5539   -1.0231    2.9835 H       1  UNL1        0.0647
     46 H          -1.7595   -0.4566    2.9698 H       1  UNL1        0.0838
     47 H          -0.2546    1.0998   -1.9882 H       1  UNL1        0.1564
     48 H           2.0721    1.6772   -2.2956 H       1  UNL1        0.0652
     49 H           4.3369    1.9319   -1.2640 H       1  UNL1        0.0627
     50 H           7.4852    0.4670    2.5663 H       1  UNL1        0.0465
     51 H           7.3148    2.1097    1.9302 H       1  UNL1        0.0465
     52 H           8.4979    1.5641   -0.1173 H       1  UNL1        0.0296
     53 H           9.4547    1.3285    1.3654 H       1  UNL1        0.0296
     54 H           9.8164   -0.8240    0.7706 H       1  UNL1        0.0483
     55 H           9.5808    0.4019   -1.5165 H       1  UNL1        0.0575
     56 H           9.7894   -1.3749   -1.4599 H       1  UNL1        0.0575
     57 H           6.2505   -1.8318   -2.1530 H       1  UNL1        0.0576
     58 H           7.7625   -2.7026   -1.5442 H       1  UNL1        0.0576
     59 H           6.0542   -2.3059    0.2309 H       1  UNL1        0.0499
     60 H           4.8448   -0.4208   -0.2703 H       1  UNL1        0.0481
     61 H           6.1773    0.3965   -1.1394 H       1  UNL1        0.0481
     62 H           7.6824   -1.3777    1.7232 H       1  UNL1        0.1227
     63 H           2.8119    0.7060    2.4760 H       1  UNL1        0.0838
     64 H          -4.6141    0.5483   -2.1273 H       1  UNL1        0.0528
     65 H          -6.4356    1.8117   -1.7398 H       1  UNL1        0.0285
     66 H          -7.2261    0.7071   -0.6162 H       1  UNL1        0.0285
     67 H          -6.8124    0.6387   -3.6250 H       1  UNL1        0.0266
     68 H          -8.3918    0.3532   -2.7381 H       1  UNL1        0.0266
     69 H          -7.6662   -1.9297   -2.2585 H       1  UNL1        0.0266
     70 H          -6.8829   -1.6222   -3.8875 H       1  UNL1        0.0266
     71 H          -5.4229   -2.1661   -1.5615 H       1  UNL1        0.0285
     72 H          -4.7904   -1.4741   -3.0677 H       1  UNL1        0.0285
@<TRIPOS>BOND
     1     1     2    1
     2     2     3    1
     3     2     4   am
     4     4     5    2
     5     4     6    1
     6     6     7   ar
     7     7     8   ar
     8     8     9   ar
     9     9    10   ar
    10    10    11   ar
    11    11    12    1
    12    12    13    1
    13    13    14   ar
    14    14    15   ar
    15    15    16   ar
    16    16    17    1
    17    17    18    2
    18    17    19   am
    19    19    20    1
    20    20    21    1
    21    21    22    1
    22    22    23    1
    23    23    24    1
    24    24    25    1
    25    25    26    1
    26    26    27    1
    27    26    28    1
    28    16    29   ar
    29    29    30   ar
    30    11    31   ar
    31    31    32   ar
    32    32    33   ar
    33    33    34    1
    34    34    35    1
    35    35    36    1
    36    36    37    1
    37    37    38    1
    38    33     6   ar
    39    38    34    1
    40    32     8   ar
    41    30    13   ar
    42    27    19    1
    43    28    22    1
    44     1    39    1
    45     1    40    1
    46     1    41    1
    47     3    42    1
    48     3    43    1
    49     3    44    1
    50     7    45    1
    51     9    46    1
    52    12    47    1
    53    14    48    1
    54    15    49    1
    55    20    50    1
    56    20    51    1
    57    21    52    1
    58    21    53    1
    59    22    54    1
    60    23    55    1
    61    23    56    1
    62    25    57    1
    63    25    58    1
    64    26    59    1
    65    27    60    1
    66    27    61    1
    67    28    62    1
    68    29    63    1
    69    34    64    1
    70    35    65    1
    71    35    66    1
    72    36    67    1
    73    36    68    1
    74    37    69    1
    75    37    70    1
    76    38    71    1
    77    38    72    1
