@<TRIPOS>MOLECULE
*****
 61 65 0 0 0
SMALL
GASTEIGER

@<TRIPOS>ATOM
      1 C           4.9439    2.9488    0.0674 C.3     1  UNL1        0.0309
      2 N           5.1086    1.5585   -0.3642 N.ar    1  UNL1       -0.2650
      3 N           4.1447    0.7948   -0.8047 N.ar    1  UNL1       -0.1554
      4 C           4.6033   -0.4392   -1.1273 C.ar    1  UNL1        0.1488
      5 N           3.8560   -1.5280   -1.6351 N.pl3   1  UNL1       -0.3186
      6 C           2.4313   -1.3483   -1.8495 C.3     1  UNL1        0.0870
      7 C           1.7325   -1.0036   -0.5829 C.2     1  UNL1        0.2305
      8 O           2.3394   -0.8958    0.4937 O.2     1  UNL1       -0.2741
      9 N           0.3386   -0.7938   -0.6092 N.am    1  UNL1       -0.3087
     10 C          -0.4579   -0.4570    0.5339 C.3     1  UNL1        0.0486
     11 C          -1.4051    0.7224    0.2668 C.3     1  UNL1        0.0189
     12 N          -2.3209    0.0515    1.1700 N.3     1  UNL1       -0.2958
     13 C          -3.7054    0.3072    0.9498 C.3     1  UNL1        0.0106
     14 C          -4.2344   -0.0930   -0.3923 C.3     1  UNL1       -0.0368
     15 C          -5.6895    0.2707   -0.4673 C.3     1  UNL1       -0.0443
     16 C          -6.2319    0.8994    0.7906 C.3     1  UNL1       -0.0080
     17 C          -7.6818    1.1148    0.6075 C.ar    1  UNL1        0.0123
     18 C          -8.4699    2.2098    0.6156 C.ar    1  UNL1        0.0381
     19 N          -9.7484    2.0111    0.4127 N.ar    1  UNL1       -0.2554
     20 C         -10.3184    1.0092    0.2224 C.ar    1  UNL1        0.0649
     21 S          -8.8758   -0.2208    0.2922 S.2     1  UNL1       -0.0801
     22 C          -5.9803    0.0197    1.9688 C.3     1  UNL1       -0.0443
     23 C          -4.5388   -0.4222    1.9817 C.3     1  UNL1       -0.0368
     24 C          -1.7748   -1.1953    0.6746 C.3     1  UNL1        0.0189
     25 C           5.9466   -0.4161   -0.8601 C.ar    1  UNL1        0.0419
     26 C           6.9371   -1.3677   -0.9856 C.ar    1  UNL1       -0.0376
     27 C           8.2259   -1.0263   -0.6228 C.ar    1  UNL1        0.0556
     28 C           9.3440   -1.9987   -0.7302 C.3     1  UNL1        0.4174
     29 F          10.1449   -1.5832   -1.7751 F       1  UNL1       -0.1659
     30 F          10.0481   -1.9877    0.4742 F       1  UNL1       -0.1659
     31 F           8.8211   -3.2514   -0.9540 F       1  UNL1       -0.1659
     32 C           8.5154    0.2343   -0.1468 C.ar    1  UNL1       -0.0481
     33 C           7.5225    1.1848   -0.0221 C.ar    1  UNL1       -0.0355
     34 C           6.2314    0.8451   -0.3850 C.ar    1  UNL1        0.0705
     35 H           4.1250    2.9365    0.8129 H       1  UNL1        0.0473
     36 H           4.6879    3.5559   -0.8154 H       1  UNL1        0.0473
     37 H           5.8698    3.2820    0.5666 H       1  UNL1        0.0473
     38 H           4.3376   -2.4278   -1.8429 H       1  UNL1        0.1480
     39 H           2.0261   -2.2509   -2.3051 H       1  UNL1        0.0557
     40 H           2.3296   -0.5100   -2.5780 H       1  UNL1        0.0557
     41 H          -0.1625   -0.8886   -1.5282 H       1  UNL1        0.1491
     42 H           0.0528   -0.3532    1.4913 H       1  UNL1        0.0523
     43 H          -1.7135    0.6980   -0.8007 H       1  UNL1        0.0445
     44 H          -1.0142    1.6901    0.6355 H       1  UNL1        0.0445
     45 H          -3.8416    1.4186    1.1155 H       1  UNL1        0.0462
     46 H          -3.6682    0.3346   -1.2483 H       1  UNL1        0.0280
     47 H          -4.1614   -1.2192   -0.4399 H       1  UNL1        0.0280
     48 H          -5.8816    0.9312   -1.3485 H       1  UNL1        0.0272
     49 H          -6.3156   -0.6429   -0.6485 H       1  UNL1        0.0272
     50 H          -5.8007    1.9038    0.9787 H       1  UNL1        0.0354
     51 H          -8.0557    3.2194    0.7848 H       1  UNL1        0.0838
     52 H         -11.3101    0.6205    0.0394 H       1  UNL1        0.0907
     53 H          -6.6510   -0.8844    1.9731 H       1  UNL1        0.0272
     54 H          -6.2161    0.5678    2.9273 H       1  UNL1        0.0272
     55 H          -4.4863   -1.5120    1.6929 H       1  UNL1        0.0280
     56 H          -4.0848   -0.3695    2.9921 H       1  UNL1        0.0280
     57 H          -1.6818   -1.9631    1.4811 H       1  UNL1        0.0445
     58 H          -2.1763   -1.5735   -0.2650 H       1  UNL1        0.0445
     59 H           6.7360   -2.3490   -1.3516 H       1  UNL1        0.0631
     60 H           9.5320    0.4691    0.1279 H       1  UNL1        0.0624
     61 H           7.7227    2.1714    0.3455 H       1  UNL1        0.0639
@<TRIPOS>BOND
     1     1     2    1
     2     2     3   ar
     3     3     4   ar
     4     4     5    1
     5     5     6    1
     6     6     7    1
     7     7     8    2
     8     7     9   am
     9     9    10    1
    10    10    11    1
    11    11    12    1
    12    12    13    1
    13    13    14    1
    14    14    15    1
    15    15    16    1
    16    16    17    1
    17    17    18   ar
    18    18    19   ar
    19    19    20   ar
    20    20    21   ar
    21    16    22    1
    22    22    23    1
    23    12    24    1
    24     4    25   ar
    25    25    26   ar
    26    26    27   ar
    27    27    28    1
    28    28    29    1
    29    28    30    1
    30    28    31    1
    31    27    32   ar
    32    32    33   ar
    33    33    34   ar
    34    34     2   ar
    35    24    10    1
    36    34    25   ar
    37    23    13    1
    38    21    17   ar
    39     1    35    1
    40     1    36    1
    41     1    37    1
    42     5    38    1
    43     6    39    1
    44     6    40    1
    45     9    41    1
    46    10    42    1
    47    11    43    1
    48    11    44    1
    49    13    45    1
    50    14    46    1
    51    14    47    1
    52    15    48    1
    53    15    49    1
    54    16    50    1
    55    18    51    1
    56    20    52    1
    57    22    53    1
    58    22    54    1
    59    23    55    1
    60    23    56    1
    61    24    57    1
    62    24    58    1
    63    26    59    1
    64    32    60    1
    65    33    61    1
