
     RDKit          3D

 63 69  0  0  0  0  0  0  0  0999 V2000
   -1.4626    4.9732    1.7779 C   0  0  0  0  0  0  0  0  0  0  0  0
   -0.8921    3.9030    0.8455 C   0  0  0  0  0  0  0  0  0  0  0  0
    0.3339    4.5442    0.2330 C   0  0  0  0  0  0  0  0  0  0  0  0
   -0.4769    2.7529    1.7251 C   0  0  0  0  0  0  0  0  0  0  0  0
    0.0759    1.6102    1.0790 N   0  0  0  0  0  0  0  0  0  0  0  0
    1.4185    1.4464    0.8090 C   0  0  0  0  0  0  0  0  0  0  0  0
    2.4685    2.2667    1.1423 C   0  0  0  0  0  0  0  0  0  0  0  0
    3.7634    1.8832    0.7823 C   0  0  0  0  0  0  0  0  0  0  0  0
    3.9988    0.7217    0.1146 C   0  0  0  0  0  0  0  0  0  0  0  0
    5.3018    0.3107   -0.2630 N   0  0  0  0  0  0  0  0  0  0  0  0
    5.4718   -0.9036   -0.9519 C   0  0  0  0  0  0  0  0  0  0  0  0
    5.6691   -2.0229   -0.2105 N   0  0  0  0  0  0  0  0  0  0  0  0
    5.8361   -3.2042   -0.8269 C   0  0  0  0  0  0  0  0  0  0  0  0
    5.7997   -3.2306   -2.2024 C   0  0  0  0  0  0  0  0  0  0  0  0
    5.5968   -2.0759   -2.9410 C   0  0  0  0  0  0  0  0  0  0  0  0
    5.4334   -0.9109   -2.2897 N   0  0  0  0  0  0  0  0  0  0  0  0
    2.9146   -0.0692   -0.1957 C   0  0  0  0  0  0  0  0  0  0  0  0
    1.6419    0.2921    0.1503 C   0  0  0  0  0  0  0  0  0  0  0  0
    0.4304   -0.3127   -0.0112 C   0  0  0  0  0  0  0  0  0  0  0  0
    0.0392   -1.5090   -0.5825 C   0  0  0  0  0  0  0  0  0  0  0  0
   -1.2686   -1.9510   -0.6105 C   0  0  0  0  0  0  0  0  0  0  0  0
   -2.2005   -1.1242   -0.0253 C   0  0  0  0  0  0  0  0  0  0  0  0
   -1.8590    0.0830    0.5583 C   0  0  0  0  0  0  0  0  0  0  0  0
   -0.5296    0.5203    0.5754 C   0  0  0  0  0  0  0  0  0  0  0  0
   -2.8178    0.9474    1.2771 C   0  0  0  0  0  0  0  0  0  0  0  0
   -4.2538    0.5831    1.1088 C   0  0  0  0  0  0  0  0  0  0  0  0
   -4.5386   -0.7040    0.5378 C   0  0  0  0  0  0  0  0  0  0  0  0
   -5.7600   -1.3206    0.4334 N   0  0  0  0  0  0  0  0  0  0  0  0
   -5.6077   -2.4492   -0.1559 N   0  0  0  0  0  0  0  0  0  0  0  0
   -6.6326   -3.4263   -0.4737 C   0  0  0  0  0  0  0  0  0  0  0  0
   -4.2899   -2.6493   -0.4752 C   0  0  0  0  0  0  0  0  0  0  0  0
   -3.6142   -1.5399   -0.0329 C   0  0  0  0  0  0  0  0  0  0  0  0
   -1.2704   -3.2295   -1.2871 C   0  0  0  0  0  0  0  0  0  0  0  0
   -2.2065   -4.0117   -1.5555 O   0  0  0  0  0  0  0  0  0  0  0  0
    0.0982   -3.5232   -1.6565 N   0  0  0  0  0  0  0  0  0  0  0  0
    0.9541   -2.4832   -1.2561 C   0  0  0  0  0  0  0  0  0  0  0  0
   -2.1839    4.5728    2.4870 H   0  0  0  0  0  0  0  0  0  0  0  0
   -0.5873    5.3577    2.3647 H   0  0  0  0  0  0  0  0  0  0  0  0
   -1.8207    5.8339    1.1818 H   0  0  0  0  0  0  0  0  0  0  0  0
   -1.6073    3.6522    0.0447 H   0  0  0  0  0  0  0  0  0  0  0  0
    0.8664    3.9097   -0.4732 H   0  0  0  0  0  0  0  0  0  0  0  0
   -0.0127    5.4755   -0.3140 H   0  0  0  0  0  0  0  0  0  0  0  0
    1.0022    4.9348    1.0204 H   0  0  0  0  0  0  0  0  0  0  0  0
    0.4031    3.2266    2.3174 H   0  0  0  0  0  0  0  0  0  0  0  0
   -1.1601    2.5584    2.5762 H   0  0  0  0  0  0  0  0  0  0  0  0
    2.3531    3.1836    1.6858 H   0  0  0  0  0  0  0  0  0  0  0  0
    4.6161    2.5168    1.0341 H   0  0  0  0  0  0  0  0  0  0  0  0
    6.1022    0.9162   -0.0221 H   0  0  0  0  0  0  0  0  0  0  0  0
    5.9920   -4.0892   -0.2454 H   0  0  0  0  0  0  0  0  0  0  0  0
    5.9360   -4.1943   -2.7017 H   0  0  0  0  0  0  0  0  0  0  0  0
    5.5669   -2.0880   -4.0200 H   0  0  0  0  0  0  0  0  0  0  0  0
    3.1116   -1.0105   -0.7357 H   0  0  0  0  0  0  0  0  0  0  0  0
   -2.6568    0.8054    2.4105 H   0  0  0  0  0  0  0  0  0  0  0  0
   -2.7493    1.9976    1.0111 H   0  0  0  0  0  0  0  0  0  0  0  0
   -4.7203    1.3642    0.4217 H   0  0  0  0  0  0  0  0  0  0  0  0
   -4.7926    0.7214    2.1171 H   0  0  0  0  0  0  0  0  0  0  0  0
   -7.2316   -3.6303    0.4441 H   0  0  0  0  0  0  0  0  0  0  0  0
   -7.3312   -3.0559   -1.2497 H   0  0  0  0  0  0  0  0  0  0  0  0
   -6.2064   -4.4026   -0.7902 H   0  0  0  0  0  0  0  0  0  0  0  0
   -3.9482   -3.5027   -0.9547 H   0  0  0  0  0  0  0  0  0  0  0  0
    0.3630   -4.4228   -2.1628 H   0  0  0  0  0  0  0  0  0  0  0  0
    1.6724   -2.8630   -0.4935 H   0  0  0  0  0  0  0  0  0  0  0  0
    1.4580   -1.9549   -2.1002 H   0  0  0  0  0  0  0  0  0  0  0  0
  1  2  1  0
  2  3  1  0
  2  4  1  0
  4  5  1  0
  5  6  1  0
  6  7  2  0
  7  8  1  0
  8  9  2  0
  9 10  1  0
 10 11  1  0
 11 12  2  0
 12 13  1  0
 13 14  2  0
 14 15  1  0
 15 16  2  0
  9 17  1  0
 17 18  2  0
 18 19  1  0
 19 20  2  0
 20 21  1  0
 21 22  2  0
 22 23  1  0
 23 24  2  0
 23 25  1  0
 25 26  1  0
 26 27  1  0
 27 28  2  0
 28 29  1  0
 29 30  1  0
 29 31  1  0
 31 32  2  0
 21 33  1  0
 33 34  2  0
 33 35  1  0
 35 36  1  0
 24  5  1  0
 32 27  1  0
 18  6  1  0
 24 19  1  0
 16 11  1  0
 36 20  1  0
 32 22  1  0
  1 37  1  0
  1 38  1  0
  1 39  1  0
  2 40  1  0
  3 41  1  0
  3 42  1  0
  3 43  1  0
  4 44  1  0
  4 45  1  0
  7 46  1  0
  8 47  1  0
 10 48  1  0
 13 49  1  0
 14 50  1  0
 15 51  1  0
 17 52  1  0
 25 53  1  0
 25 54  1  0
 26 55  1  0
 26 56  1  0
 30 57  1  0
 30 58  1  0
 30 59  1  0
 31 60  1  0
 35 61  1  0
 36 62  1  0
 36 63  1  0
M  END
$$$$
