@<TRIPOS>MOLECULE
*****
 63 69 0 0 0
SMALL
GASTEIGER

@<TRIPOS>ATOM
      1 C          -1.4626    4.9732    1.7779 C.3     1  UNL1       -0.0610
      2 C          -0.8921    3.9030    0.8455 C.3     1  UNL1       -0.0287
      3 C           0.3339    4.5442    0.2330 C.3     1  UNL1       -0.0610
      4 C          -0.4769    2.7529    1.7251 C.3     1  UNL1        0.0262
      5 N           0.0759    1.6102    1.0790 N.ar    1  UNL1       -0.3393
      6 C           1.4185    1.4464    0.8090 C.ar    1  UNL1        0.0502
      7 C           2.4685    2.2667    1.1423 C.ar    1  UNL1       -0.0358
      8 C           3.7634    1.8832    0.7823 C.ar    1  UNL1       -0.0385
      9 C           3.9988    0.7217    0.1146 C.ar    1  UNL1        0.0343
     10 N           5.3018    0.3107   -0.2630 N.pl3   1  UNL1       -0.2836
     11 C           5.4718   -0.9036   -0.9519 C.ar    1  UNL1        0.2194
     12 N           5.6691   -2.0229   -0.2105 N.ar    1  UNL1       -0.2227
     13 C           5.8361   -3.2042   -0.8269 C.ar    1  UNL1        0.0326
     14 C           5.7997   -3.2306   -2.2024 C.ar    1  UNL1       -0.0253
     15 C           5.5968   -2.0759   -2.9410 C.ar    1  UNL1        0.0326
     16 N           5.4334   -0.9109   -2.2897 N.ar    1  UNL1       -0.2227
     17 C           2.9146   -0.0692   -0.1957 C.ar    1  UNL1       -0.0307
     18 C           1.6419    0.2921    0.1503 C.ar    1  UNL1        0.0097
     19 C           0.4304   -0.3127   -0.0112 C.ar    1  UNL1        0.0133
     20 C           0.0392   -1.5090   -0.5825 C.ar    1  UNL1       -0.0079
     21 C          -1.2686   -1.9510   -0.6105 C.ar    1  UNL1        0.0501
     22 C          -2.2005   -1.1242   -0.0253 C.ar    1  UNL1        0.0029
     23 C          -1.8590    0.0830    0.5583 C.ar    1  UNL1       -0.0144
     24 C          -0.5296    0.5203    0.5754 C.ar    1  UNL1        0.0543
     25 C          -2.8178    0.9474    1.2771 C.3     1  UNL1       -0.0196
     26 C          -4.2538    0.5831    1.1088 C.3     1  UNL1       -0.0040
     27 C          -4.5386   -0.7040    0.5378 C.ar    1  UNL1        0.0710
     28 N          -5.7600   -1.3206    0.4334 N.ar    1  UNL1       -0.1758
     29 N          -5.6077   -2.4492   -0.1559 N.ar    1  UNL1       -0.2736
     30 C          -6.6326   -3.4263   -0.4737 C.3     1  UNL1        0.0302
     31 C          -4.2899   -2.6493   -0.4752 C.ar    1  UNL1        0.0332
     32 C          -3.6142   -1.5399   -0.0329 C.ar    1  UNL1        0.0238
     33 C          -1.2704   -3.2295   -1.2871 C.2     1  UNL1        0.2453
     34 O          -2.2065   -4.0117   -1.5555 O.2     1  UNL1       -0.2702
     35 N           0.0982   -3.5232   -1.6565 N.am    1  UNL1       -0.3072
     36 C           0.9541   -2.4832   -1.2561 C.3     1  UNL1        0.0385
     37 H          -2.1839    4.5728    2.4870 H       1  UNL1        0.0233
     38 H          -0.5873    5.3577    2.3647 H       1  UNL1        0.0233
     39 H          -1.8207    5.8339    1.1818 H       1  UNL1        0.0233
     40 H          -1.6073    3.6522    0.0447 H       1  UNL1        0.0313
     41 H           0.8664    3.9097   -0.4732 H       1  UNL1        0.0233
     42 H          -0.0127    5.4755   -0.3140 H       1  UNL1        0.0233
     43 H           1.0022    4.9348    1.0204 H       1  UNL1        0.0233
     44 H           0.4031    3.2266    2.3174 H       1  UNL1        0.0494
     45 H          -1.1601    2.5584    2.5762 H       1  UNL1        0.0494
     46 H           2.3531    3.1836    1.6858 H       1  UNL1        0.0639
     47 H           4.6161    2.5168    1.0341 H       1  UNL1        0.0637
     48 H           6.1022    0.9162   -0.0221 H       1  UNL1        0.1550
     49 H           5.9920   -4.0892   -0.2454 H       1  UNL1        0.0831
     50 H           5.9360   -4.1943   -2.7017 H       1  UNL1        0.0648
     51 H           5.5669   -2.0880   -4.0200 H       1  UNL1        0.0831
     52 H           3.1116   -1.0105   -0.7357 H       1  UNL1        0.0643
     53 H          -2.6568    0.8054    2.4105 H       1  UNL1        0.0318
     54 H          -2.7493    1.9976    1.0111 H       1  UNL1        0.0318
     55 H          -4.7203    1.3642    0.4217 H       1  UNL1        0.0332
     56 H          -4.7926    0.7214    2.1171 H       1  UNL1        0.0332
     57 H          -7.2316   -3.6303    0.4441 H       1  UNL1        0.0473
     58 H          -7.3312   -3.0559   -1.2497 H       1  UNL1        0.0473
     59 H          -6.2064   -4.4026   -0.7902 H       1  UNL1        0.0473
     60 H          -3.9482   -3.5027   -0.9547 H       1  UNL1        0.0832
     61 H           0.3630   -4.4228   -2.1628 H       1  UNL1        0.1493
     62 H           1.6724   -2.8630   -0.4935 H       1  UNL1        0.0512
     63 H           1.4580   -1.9549   -2.1002 H       1  UNL1        0.0512
@<TRIPOS>BOND
     1     1     2    1
     2     2     3    1
     3     2     4    1
     4     4     5    1
     5     5     6   ar
     6     6     7   ar
     7     7     8   ar
     8     8     9   ar
     9     9    10    1
    10    10    11    1
    11    11    12   ar
    12    12    13   ar
    13    13    14   ar
    14    14    15   ar
    15    15    16   ar
    16     9    17   ar
    17    17    18   ar
    18    18    19   ar
    19    19    20   ar
    20    20    21   ar
    21    21    22   ar
    22    22    23   ar
    23    23    24   ar
    24    23    25    1
    25    25    26    1
    26    26    27    1
    27    27    28   ar
    28    28    29   ar
    29    29    30    1
    30    29    31   ar
    31    31    32   ar
    32    21    33    1
    33    33    34    2
    34    33    35   am
    35    35    36    1
    36    24     5   ar
    37    32    27   ar
    38    18     6   ar
    39    24    19   ar
    40    16    11   ar
    41    36    20    1
    42    32    22    1
    43     1    37    1
    44     1    38    1
    45     1    39    1
    46     2    40    1
    47     3    41    1
    48     3    42    1
    49     3    43    1
    50     4    44    1
    51     4    45    1
    52     7    46    1
    53     8    47    1
    54    10    48    1
    55    13    49    1
    56    14    50    1
    57    15    51    1
    58    17    52    1
    59    25    53    1
    60    25    54    1
    61    26    55    1
    62    26    56    1
    63    30    57    1
    64    30    58    1
    65    30    59    1
    66    31    60    1
    67    35    61    1
    68    36    62    1
    69    36    63    1
