
     RDKit          3D

 68 73  0  0  0  0  0  0  0  0999 V2000
    7.9827    2.6019   -3.3745 O   0  0  0  0  0  0  0  0  0  0  0  0
    7.0825    2.1933   -2.6028 C   0  0  0  0  0  0  0  0  0  0  0  0
    5.7689    2.4584   -2.9418 O   0  0  0  0  0  0  0  0  0  0  0  0
    7.3712    1.4602   -1.3804 C   0  0  0  0  0  0  0  0  0  0  0  0
    8.6672    1.1563   -0.9936 C   0  0  0  0  0  0  0  0  0  0  0  0
    8.9578    0.4587    0.1657 C   0  0  0  0  0  0  0  0  0  0  0  0
    7.9013    0.0566    0.9590 C   0  0  0  0  0  0  0  0  0  0  0  0
    7.8160   -0.6133    2.1135 N   0  0  0  0  0  0  0  0  0  0  0  0
    6.5409   -0.7688    2.5108 C   0  0  0  0  0  0  0  0  0  0  0  0
    5.7213   -0.1636    1.5605 C   0  0  0  0  0  0  0  0  0  0  0  0
    4.2467   -0.0629    1.5462 C   0  0  0  0  0  0  0  0  0  0  0  0
    3.5994   -1.0194    0.5629 C   0  0  2  0  0  0  0  0  0  0  0  0
    2.1393   -0.8697    0.6003 N   0  0  0  0  0  0  0  0  0  0  0  0
    1.3859   -0.4891   -0.5162 C   0  0  0  0  0  0  0  0  0  0  0  0
    2.0328   -0.2689   -1.6019 O   0  0  0  0  0  0  0  0  0  0  0  0
   -0.0584   -0.3429   -0.4731 C   0  0  0  0  0  0  0  0  0  0  0  0
   -0.7942   -0.6494    0.6443 C   0  0  0  0  0  0  0  0  0  0  0  0
   -2.1590   -0.5077    0.7030 C   0  0  0  0  0  0  0  0  0  0  0  0
   -2.8270   -0.0385   -0.4021 C   0  0  0  0  0  0  0  0  0  0  0  0
   -2.1473    0.2925   -1.5699 C   0  0  0  0  0  0  0  0  0  0  0  0
   -0.7797    0.1284   -1.5666 C   0  0  0  0  0  0  0  0  0  0  0  0
   -3.0524    0.7215   -2.4696 N   0  0  0  0  0  0  0  0  0  0  0  0
   -4.2827    0.6815   -1.9322 C   0  0  0  0  0  0  0  0  0  0  0  0
   -5.5003    1.0782   -2.6246 C   0  0  0  0  0  0  0  0  0  0  0  0
   -6.0452    0.5028   -3.7493 C   0  0  0  0  0  0  0  0  0  0  0  0
   -7.1962    1.1893   -4.0677 C   0  0  0  0  0  0  0  0  0  0  0  0
   -7.3527    2.1526   -3.1701 O   0  0  0  0  0  0  0  0  0  0  0  0
   -6.3700    2.1178   -2.3020 C   0  0  0  0  0  0  0  0  0  0  0  0
   -4.1310    0.2115   -0.6588 N   0  0  0  0  0  0  0  0  0  0  0  0
   -5.2317    0.0342    0.2198 C   0  0  0  0  0  0  0  0  0  0  0  0
   -5.2513    0.8667    1.4618 C   0  0  0  0  0  0  0  0  0  0  0  0
   -6.6050    0.6273    2.1082 C   0  0  0  0  0  0  0  0  0  0  0  0
   -6.8271   -0.8230    2.4608 C   0  0  0  0  0  0  0  0  0  0  0  0
   -5.5753   -1.5958    2.1185 C   0  0  0  0  0  0  0  0  0  0  0  0
   -5.2774   -1.4138    0.6649 C   0  0  0  0  0  0  0  0  0  0  0  0
    3.8880   -2.4005    1.0295 C   0  0  0  0  0  0  0  0  0  0  0  0
    3.0061   -3.2241    1.3752 O   0  0  0  0  0  0  0  0  0  0  0  0
    5.2068   -2.8780    1.1121 O   0  0  0  0  0  0  0  0  0  0  0  0
    6.5909    0.3399    0.6097 C   0  0  0  0  0  0  0  0  0  0  0  0
    6.3508    1.0381   -0.5563 C   0  0  0  0  0  0  0  0  0  0  0  0
    5.4754    2.6433   -3.9141 H   0  0  0  0  0  0  0  0  0  0  0  0
    9.4533    1.5070   -1.6732 H   0  0  0  0  0  0  0  0  0  0  0  0
    9.9787    0.2352    0.4420 H   0  0  0  0  0  0  0  0  0  0  0  0
    8.6821   -0.9574    2.6137 H   0  0  0  0  0  0  0  0  0  0  0  0
    6.2274   -1.2668    3.3965 H   0  0  0  0  0  0  0  0  0  0  0  0
    3.9672    0.9699    1.1819 H   0  0  0  0  0  0  0  0  0  0  0  0
    3.7940   -0.1485    2.5546 H   0  0  0  0  0  0  0  0  0  0  0  0
    3.9182   -0.8415   -0.4621 H   0  0  0  0  0  0  0  0  0  0  0  0
    1.6609   -1.0576    1.5059 H   0  0  0  0  0  0  0  0  0  0  0  0
   -0.3206   -1.0209    1.5344 H   0  0  0  0  0  0  0  0  0  0  0  0
   -2.6861   -0.7567    1.5864 H   0  0  0  0  0  0  0  0  0  0  0  0
   -0.2103    0.3747   -2.4521 H   0  0  0  0  0  0  0  0  0  0  0  0
   -5.6220   -0.3403   -4.2723 H   0  0  0  0  0  0  0  0  0  0  0  0
   -7.8826    0.9987   -4.9057 H   0  0  0  0  0  0  0  0  0  0  0  0
   -6.2857    2.8083   -1.4781 H   0  0  0  0  0  0  0  0  0  0  0  0
   -6.1851    0.2852   -0.3300 H   0  0  0  0  0  0  0  0  0  0  0  0
   -5.2734    1.9717    1.2113 H   0  0  0  0  0  0  0  0  0  0  0  0
   -4.5044    0.6310    2.2186 H   0  0  0  0  0  0  0  0  0  0  0  0
   -6.6736    1.2555    3.0388 H   0  0  0  0  0  0  0  0  0  0  0  0
   -7.4259    0.9785    1.4401 H   0  0  0  0  0  0  0  0  0  0  0  0
   -7.0829   -0.9184    3.5413 H   0  0  0  0  0  0  0  0  0  0  0  0
   -7.6566   -1.2276    1.8185 H   0  0  0  0  0  0  0  0  0  0  0  0
   -4.7126   -1.3079    2.7452 H   0  0  0  0  0  0  0  0  0  0  0  0
   -5.7933   -2.6829    2.2639 H   0  0  0  0  0  0  0  0  0  0  0  0
   -4.3346   -1.9470    0.3598 H   0  0  0  0  0  0  0  0  0  0  0  0
   -6.0665   -1.9358    0.0478 H   0  0  0  0  0  0  0  0  0  0  0  0
    5.4490   -3.7343    1.5855 H   0  0  0  0  0  0  0  0  0  0  0  0
    5.3177    1.2463   -0.8031 H   0  0  0  0  0  0  0  0  0  0  0  0
  1  2  2  0
  2  3  1  0
  2  4  1  0
  4  5  2  0
  5  6  1  0
  6  7  2  0
  7  8  1  0
  8  9  1  0
  9 10  2  0
 10 11  1  0
 11 12  1  0
 12 13  1  0
 13 14  1  0
 14 15  2  0
 14 16  1  0
 16 17  2  0
 17 18  1  0
 18 19  2  0
 19 20  1  0
 20 21  2  0
 20 22  1  0
 22 23  2  0
 23 24  1  0
 24 25  1  0
 25 26  2  0
 26 27  1  0
 27 28  1  0
 23 29  1  0
 29 30  1  0
 30 31  1  0
 31 32  1  0
 32 33  1  0
 33 34  1  0
 34 35  1  0
 12 36  1  0
 36 37  2  0
 36 38  1  0
 10 39  1  0
 39 40  2  0
 40  4  1  0
 39  7  1  0
 21 16  1  0
 28 24  2  0
 35 30  1  0
 29 19  1  0
  3 41  1  0
  5 42  1  0
  6 43  1  0
  8 44  1  0
  9 45  1  0
 11 46  1  0
 11 47  1  0
 12 48  1  6
 13 49  1  0
 17 50  1  0
 18 51  1  0
 21 52  1  0
 25 53  1  0
 26 54  1  0
 28 55  1  0
 30 56  1  0
 31 57  1  0
 31 58  1  0
 32 59  1  0
 32 60  1  0
 33 61  1  0
 33 62  1  0
 34 63  1  0
 34 64  1  0
 35 65  1  0
 35 66  1  0
 38 67  1  0
 40 68  1  0
M  END
$$$$
