@<TRIPOS>MOLECULE
*****
 68 73 0 0 0
SMALL
GASTEIGER

@<TRIPOS>ATOM
      1 O           7.9827    2.6019   -3.3745 O.2     1  UNL1       -0.2451
      2 C           7.0825    2.1933   -2.6028 C.2     1  UNL1        0.3368
      3 O           5.7689    2.4584   -2.9418 O.3     1  UNL1       -0.4771
      4 C           7.3712    1.4602   -1.3804 C.ar    1  UNL1        0.0595
      5 C           8.6672    1.1563   -0.9936 C.ar    1  UNL1       -0.0458
      6 C           8.9578    0.4587    0.1657 C.ar    1  UNL1       -0.0370
      7 C           7.9013    0.0566    0.9590 C.ar    1  UNL1        0.0468
      8 N           7.8160   -0.6133    2.1135 N.ar    1  UNL1       -0.3604
      9 C           6.5409   -0.7688    2.5108 C.ar    1  UNL1        0.0060
     10 C           5.7213   -0.1636    1.5605 C.ar    1  UNL1       -0.0201
     11 C           4.2467   -0.0629    1.5462 C.3     1  UNL1        0.0032
     12 CA          3.5994   -1.0194    0.5629 C.3     1  UNL1        0.1245
     13 N           2.1393   -0.8697    0.6003 N.am    1  UNL1       -0.2981
     14 C           1.3859   -0.4891   -0.5162 C.2     1  UNL1        0.2448
     15 O           2.0328   -0.2689   -1.6019 O.2     1  UNL1       -0.2702
     16 C          -0.0584   -0.3429   -0.4731 C.ar    1  UNL1        0.0388
     17 C          -0.7942   -0.6494    0.6443 C.ar    1  UNL1       -0.0476
     18 C          -2.1590   -0.5077    0.7030 C.ar    1  UNL1       -0.0353
     19 C          -2.8270   -0.0385   -0.4021 C.ar    1  UNL1        0.0694
     20 C          -2.1473    0.2925   -1.5699 C.ar    1  UNL1        0.0904
     21 C          -0.7797    0.1284   -1.5666 C.ar    1  UNL1       -0.0221
     22 N          -3.0524    0.7215   -2.4696 N.ar    1  UNL1       -0.2274
     23 C          -4.2827    0.6815   -1.9322 C.ar    1  UNL1        0.1451
     24 C          -5.5003    1.0782   -2.6246 C.ar    1  UNL1        0.0551
     25 C          -6.0452    0.5028   -3.7493 C.ar    1  UNL1       -0.0132
     26 C          -7.1962    1.1893   -4.0677 C.ar    1  UNL1        0.0924
     27 O          -7.3527    2.1526   -3.1701 O.2     1  UNL1       -0.4703
     28 C          -6.3700    2.1178   -2.3020 C.ar    1  UNL1        0.1023
     29 N          -4.1310    0.2115   -0.6588 N.ar    1  UNL1       -0.3204
     30 C          -5.2317    0.0342    0.2198 C.3     1  UNL1        0.0365
     31 C          -5.2513    0.8667    1.4618 C.3     1  UNL1       -0.0320
     32 C          -6.6050    0.6273    2.1082 C.3     1  UNL1       -0.0512
     33 C          -6.8271   -0.8230    2.4608 C.3     1  UNL1       -0.0529
     34 C          -5.5753   -1.5958    2.1185 C.3     1  UNL1       -0.0512
     35 C          -5.2774   -1.4138    0.6649 C.3     1  UNL1       -0.0320
     36 C           3.8880   -2.4005    1.0295 C.2     1  UNL1        0.3256
     37 O           3.0061   -3.2241    1.3752 O.2     1  UNL1       -0.2489
     38 OXT         5.2068   -2.8780    1.1121 O.3     1  UNL1       -0.4793
     39 C           6.5909    0.3399    0.6097 C.ar    1  UNL1        0.0037
     40 C           6.3508    1.0381   -0.5563 C.ar    1  UNL1       -0.0383
     41 H           5.4754    2.6433   -3.9141 H       1  UNL1        0.2954
     42 H           9.4533    1.5070   -1.6732 H       1  UNL1        0.0626
     43 H           9.9787    0.2352    0.4420 H       1  UNL1        0.0638
     44 H           8.6821   -0.9574    2.6137 H       1  UNL1        0.1653
     45 H           6.2274   -1.2668    3.3965 H       1  UNL1        0.0810
     46 H           3.9672    0.9699    1.1819 H       1  UNL1        0.0337
     47 H           3.7940   -0.1485    2.5546 H       1  UNL1        0.0337
     48 HA          3.9182   -0.8415   -0.4621 H       1  UNL1        0.0618
     49 H           1.6609   -1.0576    1.5059 H       1  UNL1        0.1498
     50 H          -0.3206   -1.0209    1.5344 H       1  UNL1        0.0626
     51 H          -2.6861   -0.7567    1.5864 H       1  UNL1        0.0639
     52 H          -0.2103    0.3747   -2.4521 H       1  UNL1        0.0647
     53 H          -5.6220   -0.3403   -4.2723 H       1  UNL1        0.0656
     54 H          -7.8826    0.9987   -4.9057 H       1  UNL1        0.1029
     55 H          -6.2857    2.8083   -1.4781 H       1  UNL1        0.1036
     56 H          -6.1851    0.2852   -0.3300 H       1  UNL1        0.0528
     57 H          -5.2734    1.9717    1.2113 H       1  UNL1        0.0285
     58 H          -4.5044    0.6310    2.2186 H       1  UNL1        0.0285
     59 H          -6.6736    1.2555    3.0388 H       1  UNL1        0.0266
     60 H          -7.4259    0.9785    1.4401 H       1  UNL1        0.0266
     61 H          -7.0829   -0.9184    3.5413 H       1  UNL1        0.0265
     62 H          -7.6566   -1.2276    1.8185 H       1  UNL1        0.0265
     63 H          -4.7126   -1.3079    2.7452 H       1  UNL1        0.0266
     64 H          -5.7933   -2.6829    2.2639 H       1  UNL1        0.0266
     65 H          -4.3346   -1.9470    0.3598 H       1  UNL1        0.0285
     66 H          -6.0665   -1.9358    0.0478 H       1  UNL1        0.0285
     67 HXT         5.4490   -3.7343    1.5855 H       1  UNL1        0.2951
     68 H           5.3177    1.2463   -0.8031 H       1  UNL1        0.0632
@<TRIPOS>BOND
     1     1     2    2
     2     2     3    1
     3     2     4    1
     4     4     5   ar
     5     5     6   ar
     6     6     7   ar
     7     7     8   ar
     8     8     9   ar
     9     9    10   ar
    10    10    11    1
    11    11    12    1
    12    12    13    1
    13    13    14   am
    14    14    15    2
    15    14    16    1
    16    16    17   ar
    17    17    18   ar
    18    18    19   ar
    19    19    20   ar
    20    20    21   ar
    21    20    22   ar
    22    22    23   ar
    23    23    24    1
    24    24    25   ar
    25    25    26   ar
    26    26    27   ar
    27    27    28   ar
    28    23    29   ar
    29    29    30    1
    30    30    31    1
    31    31    32    1
    32    32    33    1
    33    33    34    1
    34    34    35    1
    35    12    36    1
    36    36    37    2
    37    36    38    1
    38    10    39   ar
    39    39    40   ar
    40    40     4   ar
    41    39     7   ar
    42    21    16   ar
    43    28    24   ar
    44    35    30    1
    45    29    19   ar
    46     3    41    1
    47     5    42    1
    48     6    43    1
    49     8    44    1
    50     9    45    1
    51    11    46    1
    52    11    47    1
    53    12    48    1
    54    13    49    1
    55    17    50    1
    56    18    51    1
    57    21    52    1
    58    25    53    1
    59    26    54    1
    60    28    55    1
    61    30    56    1
    62    31    57    1
    63    31    58    1
    64    32    59    1
    65    32    60    1
    66    33    61    1
    67    33    62    1
    68    34    63    1
    69    34    64    1
    70    35    65    1
    71    35    66    1
    72    38    67    1
    73    40    68    1
