
     RDKit          3D

 46 49  0  0  0  0  0  0  0  0999 V2000
   -2.4113   -0.3828    2.4829 C   0  0  0  0  0  0  0  0  0  0  0  0
   -2.2903   -0.0898    0.9669 C   0  0  2  0  0  0  0  0  0  0  0  0
   -1.0179   -0.8012    0.5915 C   0  0  0  0  0  0  0  0  0  0  0  0
    0.1183   -0.0968    0.2709 C   0  0  0  0  0  0  0  0  0  0  0  0
    1.3173   -0.7047   -0.0599 C   0  0  0  0  0  0  0  0  0  0  0  0
    2.4967    0.0963   -0.3971 C   0  0  0  0  0  0  0  0  0  0  0  0
    3.7119   -0.2069    0.0479 C   0  0  0  0  0  0  0  0  0  0  0  0
    3.8707   -1.2866    0.8368 F   0  0  0  0  0  0  0  0  0  0  0  0
    4.8835    0.5894   -0.2975 C   0  0  0  0  0  0  0  0  0  0  0  0
    6.0982    0.2331    0.2426 C   0  0  0  0  0  0  0  0  0  0  0  0
    7.2503    0.9313   -0.0398 C   0  0  0  0  0  0  0  0  0  0  0  0
    7.1106    2.0052   -0.8936 C   0  0  0  0  0  0  0  0  0  0  0  0
    8.5079    2.9918   -1.3403 Cl  0  0  0  0  0  0  0  0  0  0  0  0
    5.8949    2.3579   -1.4316 C   0  0  0  0  0  0  0  0  0  0  0  0
    4.8161    1.6420   -1.1203 N   0  0  0  0  0  0  0  0  0  0  0  0
    1.3210   -2.0934   -0.0548 C   0  0  0  0  0  0  0  0  0  0  0  0
    0.1854   -2.8128    0.2646 C   0  0  0  0  0  0  0  0  0  0  0  0
   -0.9912   -2.1760    0.5899 C   0  0  0  0  0  0  0  0  0  0  0  0
   -2.0859   -2.9208    0.8962 F   0  0  0  0  0  0  0  0  0  0  0  0
   -2.0832    1.2965    0.8898 N   0  0  0  0  0  0  0  0  0  0  0  0
   -2.6309    2.1817    0.1934 C   0  0  0  0  0  0  0  0  0  0  0  0
   -2.2692    3.5617    0.2640 N   0  0  0  0  0  0  0  0  0  0  0  0
   -3.9207    1.7094   -0.9400 S   0  0  0  0  0  0  0  0  0  0  0  0
   -4.2332   -0.0306   -0.6818 C   0  0  1  0  0  0  0  0  0  0  0  0
   -5.6599   -0.4193   -0.7891 C   0  0  0  0  0  0  0  0  0  0  0  0
   -6.1270   -1.5545   -0.0981 N   0  0  0  0  0  0  0  0  0  0  0  0
   -6.4317    0.2565   -1.4858 O   0  0  0  0  0  0  0  0  0  0  0  0
   -3.2637   -1.0471   -1.1846 C   0  0  0  0  0  0  0  0  0  0  0  0
   -3.4250   -0.7226    0.3153 C   0  0  1  0  0  0  0  0  0  0  0  0
   -3.2011    0.2344    2.9245 H   0  0  0  0  0  0  0  0  0  0  0  0
   -1.4527   -0.0063    2.9087 H   0  0  0  0  0  0  0  0  0  0  0  0
   -2.4663   -1.4542    2.6702 H   0  0  0  0  0  0  0  0  0  0  0  0
    0.0995    1.0008    0.2718 H   0  0  0  0  0  0  0  0  0  0  0  0
    2.4294    0.9751   -1.0262 H   0  0  0  0  0  0  0  0  0  0  0  0
    6.1720   -0.6247    0.9207 H   0  0  0  0  0  0  0  0  0  0  0  0
    8.2167    0.6889    0.3581 H   0  0  0  0  0  0  0  0  0  0  0  0
    5.8349    3.2295   -2.1145 H   0  0  0  0  0  0  0  0  0  0  0  0
    2.2327   -2.5815   -0.3077 H   0  0  0  0  0  0  0  0  0  0  0  0
    0.2280   -3.9158    0.2568 H   0  0  0  0  0  0  0  0  0  0  0  0
   -2.7854    4.2333    0.8528 H   0  0  0  0  0  0  0  0  0  0  0  0
   -1.4612    3.8674   -0.3045 H   0  0  0  0  0  0  0  0  0  0  0  0
   -6.7312   -1.4403    0.7437 H   0  0  0  0  0  0  0  0  0  0  0  0
   -5.8553   -2.4971   -0.4473 H   0  0  0  0  0  0  0  0  0  0  0  0
   -2.4112   -0.6237   -1.7314 H   0  0  0  0  0  0  0  0  0  0  0  0
   -3.6392   -2.0275   -1.5472 H   0  0  0  0  0  0  0  0  0  0  0  0
   -3.9515   -1.5654    0.8640 H   0  0  0  0  0  0  0  0  0  0  0  0
  2  1  1  1
  2  3  1  0
  3  4  2  0
  4  5  1  0
  5  6  1  0
  6  7  2  0
  7  8  1  0
  7  9  1  0
  9 10  2  0
 10 11  1  0
 11 12  2  0
 12 13  1  0
 12 14  1  0
 14 15  2  0
  5 16  2  0
 16 17  1  0
 17 18  2  0
 18 19  1  0
  2 20  1  0
 20 21  2  0
 21 22  1  0
 21 23  1  0
 23 24  1  0
 24 25  1  1
 25 26  1  0
 25 27  2  0
 24 28  1  0
 28 29  1  0
 29  2  1  0
 18  3  1  0
 29 24  1  0
 15  9  1  0
  1 30  1  0
  1 31  1  0
  1 32  1  0
  4 33  1  0
  6 34  1  0
 10 35  1  0
 11 36  1  0
 14 37  1  0
 16 38  1  0
 17 39  1  0
 22 40  1  0
 22 41  1  0
 26 42  1  0
 26 43  1  0
 28 44  1  0
 28 45  1  0
 29 46  1  1
M  END
$$$$
