@<TRIPOS>MOLECULE
*****
 46 49 0 0 0
SMALL
GASTEIGER

@<TRIPOS>ATOM
      1 C          -2.4113   -0.3828    2.4829 C.3     1  UNL1       -0.0351
      2 C          -2.2903   -0.0898    0.9669 C.3     1  UNL1        0.0935
      3 C          -1.0179   -0.8012    0.5915 C.ar    1  UNL1        0.0158
      4 C           0.1183   -0.0968    0.2709 C.ar    1  UNL1       -0.0463
      5 C           1.3173   -0.7047   -0.0599 C.ar    1  UNL1       -0.0217
      6 C           2.4967    0.0963   -0.3971 C.2     1  UNL1       -0.0172
      7 C           3.7119   -0.2069    0.0479 C.2     1  UNL1        0.1492
      8 F           3.8707   -1.2866    0.8368 F       1  UNL1       -0.2032
      9 C           4.8835    0.5894   -0.2975 C.ar    1  UNL1        0.0990
     10 C           6.0982    0.2331    0.2426 C.ar    1  UNL1       -0.0321
     11 C           7.2503    0.9313   -0.0398 C.ar    1  UNL1       -0.0398
     12 C           7.1106    2.0052   -0.8936 C.ar    1  UNL1        0.0591
     13 CL          8.5079    2.9918   -1.3403 Cl      1  UNL1       -0.0820
     14 C           5.8949    2.3579   -1.4316 C.ar    1  UNL1        0.0466
     15 N           4.8161    1.6420   -1.1203 N.ar    1  UNL1       -0.2512
     16 C           1.3210   -2.0934   -0.0548 C.ar    1  UNL1       -0.0518
     17 C           0.1854   -2.8128    0.2646 C.ar    1  UNL1       -0.0255
     18 C          -0.9912   -2.1760    0.5899 C.ar    1  UNL1        0.1289
     19 F          -2.0859   -2.9208    0.8962 F       1  UNL1       -0.2051
     20 N          -2.0832    1.2965    0.8898 N.2     1  UNL1       -0.2521
     21 C          -2.6309    2.1817    0.1934 C.2     1  UNL1        0.1485
     22 N          -2.2692    3.5617    0.2640 N.pl3   1  UNL1       -0.3380
     23 S          -3.9207    1.7094   -0.9400 S.3     1  UNL1       -0.0746
     24 C          -4.2332   -0.0306   -0.6818 C.3     1  UNL1        0.1050
     25 C          -5.6599   -0.4193   -0.7891 C.2     1  UNL1        0.2273
     26 N          -6.1270   -1.5545   -0.0981 N.am    1  UNL1       -0.3282
     27 O          -6.4317    0.2565   -1.4858 O.2     1  UNL1       -0.2745
     28 C          -3.2637   -1.0471   -1.1846 C.3     1  UNL1       -0.0220
     29 C          -3.4250   -0.7226    0.3153 C.3     1  UNL1        0.0134
     30 H          -3.2011    0.2344    2.9245 H       1  UNL1        0.0256
     31 H          -1.4527   -0.0063    2.9087 H       1  UNL1        0.0256
     32 H          -2.4663   -1.4542    2.6702 H       1  UNL1        0.0256
     33 H           0.0995    1.0008    0.2718 H       1  UNL1        0.0628
     34 H           2.4294    0.9751   -1.0262 H       1  UNL1        0.0653
     35 H           6.1720   -0.6247    0.9207 H       1  UNL1        0.0640
     36 H           8.2167    0.6889    0.3581 H       1  UNL1        0.0633
     37 H           5.8349    3.2295   -2.1145 H       1  UNL1        0.0844
     38 H           2.2327   -2.5815   -0.3077 H       1  UNL1        0.0624
     39 H           0.2280   -3.9158    0.2568 H       1  UNL1        0.0646
     40 H          -2.7854    4.2333    0.8528 H       1  UNL1        0.1442
     41 H          -1.4612    3.8674   -0.3045 H       1  UNL1        0.1442
     42 H          -6.7312   -1.4403    0.7437 H       1  UNL1        0.1450
     43 H          -5.8553   -2.4971   -0.4473 H       1  UNL1        0.1450
     44 H          -2.4112   -0.6237   -1.7314 H       1  UNL1        0.0287
     45 H          -3.6392   -2.0275   -1.5472 H       1  UNL1        0.0287
     46 H          -3.9515   -1.5654    0.8640 H       1  UNL1        0.0346
@<TRIPOS>BOND
     1     2     1    1
     2     2     3    1
     3     3     4   ar
     4     4     5   ar
     5     5     6    1
     6     6     7    2
     7     7     8    1
     8     7     9    1
     9     9    10   ar
    10    10    11   ar
    11    11    12   ar
    12    12    13    1
    13    12    14   ar
    14    14    15   ar
    15     5    16   ar
    16    16    17   ar
    17    17    18   ar
    18    18    19    1
    19     2    20    1
    20    20    21    2
    21    21    22    1
    22    21    23    1
    23    23    24    1
    24    24    25    1
    25    25    26   am
    26    25    27    2
    27    24    28    1
    28    28    29    1
    29    29     2    1
    30    18     3   ar
    31    29    24    1
    32    15     9   ar
    33     1    30    1
    34     1    31    1
    35     1    32    1
    36     4    33    1
    37     6    34    1
    38    10    35    1
    39    11    36    1
    40    14    37    1
    41    16    38    1
    42    17    39    1
    43    22    40    1
    44    22    41    1
    45    26    42    1
    46    26    43    1
    47    28    44    1
    48    28    45    1
    49    29    46    1
