
     RDKit          3D

 61 65  0  0  0  0  0  0  0  0999 V2000
    3.0011   -0.4351   -1.2750 C   0  0  0  0  0  0  0  0  0  0  0  0
    2.1031    0.1160   -0.1831 C   0  0  0  0  0  0  0  0  0  0  0  0
    2.7921    0.1183    1.1482 C   0  0  0  0  0  0  0  0  0  0  0  0
    0.9267   -0.7918   -0.1401 C   0  0  0  0  0  0  0  0  0  0  0  0
    1.0304   -2.0141   -0.3683 O   0  0  0  0  0  0  0  0  0  0  0  0
   -0.2342   -0.0876    0.1753 N   0  0  0  0  0  0  0  0  0  0  0  0
   -1.5556   -0.5041    0.5611 C   0  0  1  0  0  0  0  0  0  0  0  0
   -2.3525   -1.2286   -0.4640 C   0  0  0  0  0  0  0  0  0  0  0  0
   -2.1791   -2.7202   -0.4840 C   0  0  0  0  0  0  0  0  0  0  0  0
   -2.3235   -3.3709    0.8648 C   0  0  0  0  0  0  0  0  0  0  0  0
   -1.4280   -2.7014    1.8474 C   0  0  0  0  0  0  0  0  0  0  0  0
   -1.6912   -1.2279    1.8564 C   0  0  0  0  0  0  0  0  0  0  0  0
   -3.1447   -1.0554    2.2908 C   0  0  0  0  0  0  0  0  0  0  0  0
   -4.0482   -1.7218    1.2699 C   0  0  2  0  0  0  0  0  0  0  0  0
   -5.4640   -1.4563    1.6380 C   0  0  0  0  0  0  0  0  0  0  0  0
   -6.4853   -2.2038    1.0130 N   0  0  0  0  0  0  0  0  0  0  0  0
   -5.8017   -0.5905    2.4883 O   0  0  0  0  0  0  0  0  0  0  0  0
   -3.7942   -3.1839    1.2536 C   0  0  0  0  0  0  0  0  0  0  0  0
   -3.8289   -1.0194   -0.0574 C   0  0  0  0  0  0  0  0  0  0  0  0
    0.0951    1.3444    0.0291 C   0  0  0  0  0  0  0  0  0  0  0  0
    1.4832    1.4550   -0.5162 C   0  0  0  0  0  0  0  0  0  0  0  0
    1.5232    1.7736   -2.0055 C   0  0  0  0  0  0  0  0  0  0  0  0
    2.7941    1.8323   -2.4948 O   0  0  0  0  0  0  0  0  0  0  0  0
    3.7552    2.7976   -2.1835 C   0  0  0  0  0  0  0  0  0  0  0  0
    5.0092    2.8014   -2.7178 C   0  0  0  0  0  0  0  0  0  0  0  0
    5.8850    3.7747   -2.3354 C   0  0  0  0  0  0  0  0  0  0  0  0
    5.5309    4.7842   -1.3978 C   0  0  0  0  0  0  0  0  0  0  0  0
    6.3983    5.6455   -0.9317 C   0  0  0  0  0  0  0  0  0  0  0  0
    7.2813    6.5425   -0.4689 N   0  0  0  0  0  0  0  0  0  0  0  0
    4.1969    4.7167   -0.8905 C   0  0  0  0  0  0  0  0  0  0  0  0
    3.4173    3.7536   -1.3045 N   0  0  0  0  0  0  0  0  0  0  0  0
    2.5840   -0.3810   -2.2800 H   0  0  0  0  0  0  0  0  0  0  0  0
    3.9448    0.1414   -1.2426 H   0  0  0  0  0  0  0  0  0  0  0  0
    3.3122   -1.4745   -1.0018 H   0  0  0  0  0  0  0  0  0  0  0  0
    3.5629    0.8944    1.2088 H   0  0  0  0  0  0  0  0  0  0  0  0
    3.2150   -0.9192    1.2943 H   0  0  0  0  0  0  0  0  0  0  0  0
    1.9800    0.2171    1.9190 H   0  0  0  0  0  0  0  0  0  0  0  0
   -2.1642    0.4645    0.7287 H   0  0  0  0  0  0  0  0  0  0  0  0
   -2.2732   -0.8325   -1.4741 H   0  0  0  0  0  0  0  0  0  0  0  0
   -3.0730   -3.1008   -1.0906 H   0  0  0  0  0  0  0  0  0  0  0  0
   -1.3024   -3.1074   -0.9770 H   0  0  0  0  0  0  0  0  0  0  0  0
   -2.0286   -4.4174    0.7679 H   0  0  0  0  0  0  0  0  0  0  0  0
   -1.6765   -3.0382    2.9088 H   0  0  0  0  0  0  0  0  0  0  0  0
   -0.3864   -2.9327    1.6423 H   0  0  0  0  0  0  0  0  0  0  0  0
   -1.0496   -0.7887    2.6413 H   0  0  0  0  0  0  0  0  0  0  0  0
   -3.2465   -1.6321    3.2344 H   0  0  0  0  0  0  0  0  0  0  0  0
   -3.4448   -0.0315    2.4706 H   0  0  0  0  0  0  0  0  0  0  0  0
   -6.3242   -3.1882    0.7831 H   0  0  0  0  0  0  0  0  0  0  0  0
   -7.3936   -1.7590    0.7833 H   0  0  0  0  0  0  0  0  0  0  0  0
   -4.3750   -3.6522    0.4295 H   0  0  0  0  0  0  0  0  0  0  0  0
   -4.0167   -3.6058    2.2350 H   0  0  0  0  0  0  0  0  0  0  0  0
   -3.9000    0.0782    0.1983 H   0  0  0  0  0  0  0  0  0  0  0  0
   -4.5311   -1.2898   -0.8317 H   0  0  0  0  0  0  0  0  0  0  0  0
   -0.6646    1.8759   -0.5750 H   0  0  0  0  0  0  0  0  0  0  0  0
    0.1436    1.7513    1.0763 H   0  0  0  0  0  0  0  0  0  0  0  0
    2.1093    2.2385   -0.0418 H   0  0  0  0  0  0  0  0  0  0  0  0
    1.0938    2.8267   -2.0462 H   0  0  0  0  0  0  0  0  0  0  0  0
    0.8583    1.1761   -2.6196 H   0  0  0  0  0  0  0  0  0  0  0  0
    5.3226    2.0326   -3.4531 H   0  0  0  0  0  0  0  0  0  0  0  0
    6.8958    3.8139   -2.7378 H   0  0  0  0  0  0  0  0  0  0  0  0
    3.9361    5.5078   -0.1677 H   0  0  0  0  0  0  0  0  0  0  0  0
  1  2  1  0
  2  3  1  0
  2  4  1  0
  4  5  2  0
  4  6  1  0
  6  7  1  0
  7  8  1  0
  8  9  1  0
  9 10  1  0
 10 11  1  0
 11 12  1  0
 12 13  1  0
 13 14  1  0
 14 15  1  1
 15 16  1  0
 15 17  2  0
 14 18  1  0
 14 19  1  0
  6 20  1  0
 20 21  1  0
 21 22  1  0
 22 23  1  0
 23 24  1  0
 24 25  2  0
 25 26  1  0
 26 27  2  0
 27 28  1  0
 28 29  3  0
 27 30  1  0
 30 31  2  0
 21  2  1  0
 31 24  1  0
 12  7  1  0
 19  8  1  0
 18 10  1  0
  1 32  1  0
  1 33  1  0
  1 34  1  0
  3 35  1  0
  3 36  1  0
  3 37  1  0
  7 38  1  1
  8 39  1  0
  9 40  1  0
  9 41  1  0
 10 42  1  0
 11 43  1  0
 11 44  1  0
 12 45  1  0
 13 46  1  0
 13 47  1  0
 16 48  1  0
 16 49  1  0
 18 50  1  0
 18 51  1  0
 19 52  1  0
 19 53  1  0
 20 54  1  0
 20 55  1  0
 21 56  1  0
 22 57  1  0
 22 58  1  0
 25 59  1  0
 26 60  1  0
 30 61  1  0
M  END
$$$$
