@<TRIPOS>MOLECULE
*****
 61 65 0 0 0
SMALL
GASTEIGER

@<TRIPOS>ATOM
      1 C           3.0011   -0.4351   -1.2750 C.3     1  UNL1       -0.0511
      2 C           2.1031    0.1160   -0.1831 C.3     1  UNL1        0.0489
      3 C           2.7921    0.1183    1.1482 C.3     1  UNL1       -0.0511
      4 C           0.9267   -0.7918   -0.1401 C.2     1  UNL1        0.2219
      5 O           1.0304   -2.0141   -0.3683 O.2     1  UNL1       -0.2750
      6 N          -0.2342   -0.0876    0.1753 N.am    1  UNL1       -0.2970
      7 C          -1.5556   -0.5041    0.5611 C.3     1  UNL1        0.0317
      8 C          -2.3525   -1.2286   -0.4640 C.3     1  UNL1       -0.0209
      9 C          -2.1791   -2.7202   -0.4840 C.3     1  UNL1       -0.0456
     10 C          -2.3235   -3.3709    0.8648 C.3     1  UNL1       -0.0395
     11 C          -1.4280   -2.7014    1.8474 C.3     1  UNL1       -0.0456
     12 C          -1.6912   -1.2279    1.8564 C.3     1  UNL1       -0.0209
     13 C          -3.1447   -1.0554    2.2908 C.3     1  UNL1       -0.0345
     14 C          -4.0482   -1.7218    1.2699 C.3     1  UNL1        0.0476
     15 C          -5.4640   -1.4563    1.6380 C.2     1  UNL1        0.2167
     16 N          -6.4853   -2.2038    1.0130 N.am    1  UNL1       -0.3289
     17 O          -5.8017   -0.5905    2.4883 O.2     1  UNL1       -0.2754
     18 C          -3.7942   -3.1839    1.2536 C.3     1  UNL1       -0.0362
     19 C          -3.8289   -1.0194   -0.0574 C.3     1  UNL1       -0.0345
     20 C           0.0951    1.3444    0.0291 C.3     1  UNL1        0.0219
     21 C           1.4832    1.4550   -0.5162 C.3     1  UNL1        0.0224
     22 C           1.5232    1.7736   -2.0055 C.3     1  UNL1        0.0964
     23 O           2.7941    1.8323   -2.4948 O.3     1  UNL1       -0.4760
     24 C           3.7552    2.7976   -2.1835 C.ar    1  UNL1        0.2147
     25 C           5.0092    2.8014   -2.7178 C.ar    1  UNL1        0.0012
     26 C           5.8850    3.7747   -2.3354 C.ar    1  UNL1       -0.0379
     27 C           5.5309    4.7842   -1.3978 C.ar    1  UNL1        0.0701
     28 C           6.3983    5.6455   -0.9317 C.1     1  UNL1        0.1007
     29 N           7.2813    6.5425   -0.4689 N.1     1  UNL1       -0.1908
     30 C           4.1969    4.7167   -0.8905 C.ar    1  UNL1        0.0487
     31 N           3.4173    3.7536   -1.3045 N.ar    1  UNL1       -0.2200
     32 H           2.5840   -0.3810   -2.2800 H       1  UNL1        0.0240
     33 H           3.9448    0.1414   -1.2426 H       1  UNL1        0.0240
     34 H           3.3122   -1.4745   -1.0018 H       1  UNL1        0.0240
     35 H           3.5629    0.8944    1.2088 H       1  UNL1        0.0240
     36 H           3.2150   -0.9192    1.2943 H       1  UNL1        0.0240
     37 H           1.9800    0.2171    1.9190 H       1  UNL1        0.0240
     38 H          -2.1642    0.4645    0.7287 H       1  UNL1        0.0506
     39 H          -2.2732   -0.8325   -1.4741 H       1  UNL1        0.0319
     40 H          -3.0730   -3.1008   -1.0906 H       1  UNL1        0.0271
     41 H          -1.3024   -3.1074   -0.9770 H       1  UNL1        0.0271
     42 H          -2.0286   -4.4174    0.7679 H       1  UNL1        0.0301
     43 H          -1.6765   -3.0382    2.9088 H       1  UNL1        0.0271
     44 H          -0.3864   -2.9327    1.6423 H       1  UNL1        0.0271
     45 H          -1.0496   -0.7887    2.6413 H       1  UNL1        0.0319
     46 H          -3.2465   -1.6321    3.2344 H       1  UNL1        0.0278
     47 H          -3.4448   -0.0315    2.4706 H       1  UNL1        0.0278
     48 H          -6.3242   -3.1882    0.7831 H       1  UNL1        0.1449
     49 H          -7.3936   -1.7590    0.7833 H       1  UNL1        0.1449
     50 H          -4.3750   -3.6522    0.4295 H       1  UNL1        0.0278
     51 H          -4.0167   -3.6058    2.2350 H       1  UNL1        0.0278
     52 H          -3.9000    0.0782    0.1983 H       1  UNL1        0.0278
     53 H          -4.5311   -1.2898   -0.8317 H       1  UNL1        0.0278
     54 H          -0.6646    1.8759   -0.5750 H       1  UNL1        0.0469
     55 H           0.1436    1.7513    1.0763 H       1  UNL1        0.0469
     56 H           2.1093    2.2385   -0.0418 H       1  UNL1        0.0359
     57 H           1.0938    2.8267   -2.0462 H       1  UNL1        0.0700
     58 H           0.8583    1.1761   -2.6196 H       1  UNL1        0.0700
     59 H           5.3226    2.0326   -3.4531 H       1  UNL1        0.0671
     60 H           6.8958    3.8139   -2.7378 H       1  UNL1        0.0632
     61 H           3.9361    5.5078   -0.1677 H       1  UNL1        0.0844
@<TRIPOS>BOND
     1     1     2    1
     2     2     3    1
     3     2     4    1
     4     4     5    2
     5     4     6   am
     6     6     7    1
     7     7     8    1
     8     8     9    1
     9     9    10    1
    10    10    11    1
    11    11    12    1
    12    12    13    1
    13    13    14    1
    14    14    15    1
    15    15    16   am
    16    15    17    2
    17    14    18    1
    18    14    19    1
    19     6    20    1
    20    20    21    1
    21    21    22    1
    22    22    23    1
    23    23    24    1
    24    24    25   ar
    25    25    26   ar
    26    26    27   ar
    27    27    28    1
    28    28    29    3
    29    27    30   ar
    30    30    31   ar
    31    21     2    1
    32    31    24   ar
    33    12     7    1
    34    19     8    1
    35    18    10    1
    36     1    32    1
    37     1    33    1
    38     1    34    1
    39     3    35    1
    40     3    36    1
    41     3    37    1
    42     7    38    1
    43     8    39    1
    44     9    40    1
    45     9    41    1
    46    10    42    1
    47    11    43    1
    48    11    44    1
    49    12    45    1
    50    13    46    1
    51    13    47    1
    52    16    48    1
    53    16    49    1
    54    18    50    1
    55    18    51    1
    56    19    52    1
    57    19    53    1
    58    20    54    1
    59    20    55    1
    60    21    56    1
    61    22    57    1
    62    22    58    1
    63    25    59    1
    64    26    60    1
    65    30    61    1
