@<TRIPOS>MOLECULE
*****
 50 54 0 0 0
SMALL
GASTEIGER

@<TRIPOS>ATOM
      1 C           1.2095   -2.0053   -1.6822 C.3     1  UNL1        0.1064
      2 C           0.4104   -2.6760   -2.7740 C.3     1  UNL1       -0.0116
      3 C          -0.9123   -1.9397   -2.6706 C.3     1  UNL1        0.0170
      4 N          -1.1293   -1.9885   -1.2364 N.am    1  UNL1       -0.2958
      5 C          -2.3445   -2.2588   -0.4900 C.3     1  UNL1        0.0398
      6 C          -3.0166   -0.9535   -0.2659 C.ar    1  UNL1       -0.0294
      7 C          -2.7806   -0.1586    0.8383 C.ar    1  UNL1       -0.0461
      8 C          -3.4441    1.0434    0.9778 C.ar    1  UNL1        0.0220
      9 C          -4.3432    1.4532    0.0165 C.ar    1  UNL1       -0.0132
     10 C          -5.0046    2.6622    0.1657 C.ar    1  UNL1       -0.0357
     11 C          -4.7597    3.4399    1.2669 C.ar    1  UNL1        0.0303
     12 N          -3.8763    3.0606    2.2335 N.ar    1  UNL1       -0.2401
     13 C          -3.2405    1.8672    2.0606 C.ar    1  UNL1        0.1239
     14 N          -2.3115    1.4361    3.0467 N.pl3   1  UNL1       -0.3427
     15 C          -4.5978    0.6750   -1.0998 C.ar    1  UNL1       -0.0536
     16 C          -3.9307   -0.5212   -1.2285 C.ar    1  UNL1       -0.0565
     17 C           0.1500   -1.7044   -0.6813 C.2     1  UNL1        0.2345
     18 O           0.3968   -1.2599    0.4874 O.2     1  UNL1       -0.2738
     19 N           2.1777   -2.8417   -1.0734 N.3     1  UNL1       -0.1775
     20 S           3.7830   -2.2900   -1.0634 S.O2    1  UNL1        0.0654
     21 O           4.5986   -3.3393   -0.3582 O.2     1  UNL1       -0.1525
     22 O           4.3755   -2.1953   -2.4458 O.2     1  UNL1       -0.1525
     23 C           4.0108   -0.8095   -0.2030 C.ar    1  UNL1        0.1451
     24 C           4.7816   -0.5078    0.8799 C.ar    1  UNL1       -0.0020
     25 C           4.7893    0.7605    1.3821 C.ar    1  UNL1        0.0799
     26 C           3.9693    1.7159    0.7256 C.ar    1  UNL1        0.0394
     27 S           3.1846    0.6975   -0.6531 S.2     1  UNL1       -0.0670
     28 C           3.8000    3.0385    1.0270 C.ar    1  UNL1       -0.0445
     29 C           4.5161    3.5075    2.1064 C.ar    1  UNL1       -0.0425
     30 C           5.3136    2.5848    2.7475 C.ar    1  UNL1        0.0283
     31 N           5.4532    1.2915    2.4202 N.ar    1  UNL1       -0.2544
     32 H           1.6350   -1.0626   -2.0906 H       1  UNL1        0.0573
     33 H           0.8544   -2.5563   -3.7705 H       1  UNL1        0.0301
     34 H           0.1930   -3.7326   -2.5106 H       1  UNL1        0.0301
     35 H          -1.7188   -2.3988   -3.2604 H       1  UNL1        0.0465
     36 H          -0.7245   -0.8726   -2.9706 H       1  UNL1        0.0465
     37 H          -2.1166   -2.7426    0.4874 H       1  UNL1        0.0514
     38 H          -3.0592   -2.9104   -1.0371 H       1  UNL1        0.0514
     39 H          -2.0739   -0.4875    1.5874 H       1  UNL1        0.0628
     40 H          -5.7055    2.9381   -0.6248 H       1  UNL1        0.0639
     41 H          -5.3340    4.3635    1.2775 H       1  UNL1        0.0830
     42 H          -2.3183    0.5594    3.6248 H       1  UNL1        0.1437
     43 H          -2.1395    0.6449    3.7025 H       1  UNL1        0.1437
     44 H          -5.3007    0.9679   -1.8774 H       1  UNL1        0.0624
     45 H          -4.1315   -1.1321   -2.1061 H       1  UNL1        0.0621
     46 H           1.8965   -3.1267   -0.1332 H       1  UNL1        0.1489
     47 H           5.3693   -1.3035    1.3074 H       1  UNL1        0.0664
     48 H           3.1323    3.6053    0.4105 H       1  UNL1        0.0630
     49 H           4.4106    4.5428    2.3762 H       1  UNL1        0.0633
     50 H           5.9033    2.9196    3.6163 H       1  UNL1        0.0830
@<TRIPOS>BOND
     1     1     2    1
     2     2     3    1
     3     3     4    1
     4     4     5    1
     5     5     6    1
     6     6     7   ar
     7     7     8   ar
     8     8     9   ar
     9     9    10   ar
    10    10    11   ar
    11    11    12   ar
    12    12    13   ar
    13    13    14    1
    14     9    15   ar
    15    15    16   ar
    16     4    17   am
    17    17    18    2
    18     1    19    1
    19    19    20    1
    20    20    21    2
    21    20    22    2
    22    20    23    1
    23    23    24   ar
    24    24    25   ar
    25    25    26   ar
    26    26    27   ar
    27    26    28   ar
    28    28    29   ar
    29    29    30   ar
    30    30    31   ar
    31    17     1    1
    32    27    23   ar
    33    16     6   ar
    34    31    25   ar
    35    13     8   ar
    36     1    32    1
    37     2    33    1
    38     2    34    1
    39     3    35    1
    40     3    36    1
    41     5    37    1
    42     5    38    1
    43     7    39    1
    44    10    40    1
    45    11    41    1
    46    14    42    1
    47    14    43    1
    48    15    44    1
    49    16    45    1
    50    19    46    1
    51    24    47    1
    52    28    48    1
    53    29    49    1
    54    30    50    1
