@<TRIPOS>MOLECULE
*****
 37 39 0 0 0
SMALL
GASTEIGER

@<TRIPOS>ATOM
      1 N          -0.9015   -3.1691    0.2845 N.3     1  UNL1       -0.3291
      2 C          -1.9254   -2.1477    0.3762 C.3     1  UNL1        0.0039
      3 C          -1.5356   -1.0428   -0.5741 C.3     1  UNL1        0.0215
      4 C          -2.4699    0.0862   -0.6110 C.ar    1  UNL1       -0.0387
      5 C          -3.0278    0.4461    0.5828 C.ar    1  UNL1       -0.0566
      6 C          -3.9279    1.4975    0.6830 C.ar    1  UNL1       -0.0431
      7 C          -4.2967    2.2305   -0.4487 C.ar    1  UNL1        0.0410
      8 CL         -5.4145    3.5563   -0.4022 Cl      1  UNL1       -0.0835
      9 C          -3.7344    1.8685   -1.6552 C.ar    1  UNL1       -0.0431
     10 C          -2.8329    0.8121   -1.7416 C.ar    1  UNL1       -0.0566
     11 C          -0.1169   -0.6417   -0.3390 C.ar    1  UNL1       -0.0387
     12 C           0.2738   -0.5687    0.9845 C.ar    1  UNL1       -0.0574
     13 C           1.5943   -0.1971    1.2091 C.ar    1  UNL1       -0.0537
     14 C           2.4439    0.0777    0.1352 C.ar    1  UNL1       -0.0149
     15 C           1.9937   -0.0135   -1.1498 C.ar    1  UNL1       -0.0537
     16 C           0.6964   -0.3773   -1.4090 C.ar    1  UNL1       -0.0574
     17 C           3.8376    0.4712    0.3191 C.ar    1  UNL1        0.0193
     18 C           4.6232    1.2933   -0.4624 C.ar    1  UNL1        0.0300
     19 N           5.8466    1.3427    0.1366 N.ar    1  UNL1       -0.2841
     20 N           5.8225    0.5911    1.2323 N.ar    1  UNL1       -0.1817
     21 C           4.6143    0.0432    1.3773 C.ar    1  UNL1        0.0568
     22 H           0.0144   -2.8001   -0.0275 H       1  UNL1        0.1182
     23 H          -1.2089   -4.0488   -0.1372 H       1  UNL1        0.1182
     24 H          -2.0282   -1.8432    1.4178 H       1  UNL1        0.0431
     25 H          -2.8825   -2.5970   -0.0069 H       1  UNL1        0.0431
     26 H          -1.5827   -1.5164   -1.5999 H       1  UNL1        0.0410
     27 H          -2.8739    0.0058    1.5790 H       1  UNL1        0.0621
     28 H          -4.4146    1.8479    1.5828 H       1  UNL1        0.0632
     29 H          -3.9701    2.3840   -2.5602 H       1  UNL1        0.0632
     30 H          -2.3569    0.4801   -2.6627 H       1  UNL1        0.0621
     31 H          -0.3391   -0.7688    1.8350 H       1  UNL1        0.0621
     32 H           1.9677   -0.1201    2.2172 H       1  UNL1        0.0624
     33 H           2.6355    0.1954   -2.0188 H       1  UNL1        0.0624
     34 H           0.3312   -0.4519   -2.4317 H       1  UNL1        0.0621
     35 H           4.2024    1.7392   -1.3520 H       1  UNL1        0.0830
     36 H           6.5431    1.9417   -0.3648 H       1  UNL1        0.1882
     37 H           4.3998   -0.6063    2.2181 H       1  UNL1        0.0854
@<TRIPOS>BOND
     1     1     2    1
     2     2     3    1
     3     3     4    1
     4     4     5   ar
     5     5     6   ar
     6     6     7   ar
     7     7     8    1
     8     7     9   ar
     9     9    10   ar
    10     3    11    1
    11    11    12   ar
    12    12    13   ar
    13    13    14   ar
    14    14    15   ar
    15    15    16   ar
    16    14    17    1
    17    17    18   ar
    18    18    19   ar
    19    19    20   ar
    20    20    21   ar
    21    10     4   ar
    22    16    11   ar
    23    21    17   ar
    24     1    22    1
    25     1    23    1
    26     2    24    1
    27     2    25    1
    28     3    26    1
    29     5    27    1
    30     6    28    1
    31     9    29    1
    32    10    30    1
    33    12    31    1
    34    13    32    1
    35    15    33    1
    36    16    34    1
    37    18    35    1
    38    19    36    1
    39    21    37    1
