@<TRIPOS>MOLECULE
*****
 34 33 0 0 0
SMALL
GASTEIGER

@<TRIPOS>ATOM
      1 O           0.8344   -0.1959    1.7243 O.3     1  UNL1       -0.3868
      2 C           1.4412   -1.1394    0.8997 C.3     1  UNL1        0.1077
      3 C           2.8774   -0.7744    0.6086 C.3     1  UNL1        0.0875
      4 O           2.9861    0.4549   -0.0290 O.3     1  UNL1       -0.2841
      5 P           4.5420    0.9256   -0.3830 P.3     1  UNL1        0.4724
      6 O           5.6768   -0.2874   -0.2014 O.3     1  UNL1       -0.3026
      7 O           4.6163    1.5111   -1.9780 O.3     1  UNL1       -0.3026
      8 O           4.9017    2.0742    0.5282 O.2     1  UNL1       -0.2275
      9 C           0.6707   -1.2952   -0.3949 C.3     1  UNL1        0.1159
     10 O           0.6387   -0.0719   -1.0520 O.3     1  UNL1       -0.3861
     11 C          -0.7337   -1.7471   -0.1694 C.3     1  UNL1        0.1434
     12 O          -1.3398   -1.8684   -1.4177 O.3     1  UNL1       -0.3815
     13 C          -1.5337   -0.7662    0.6137 C.2     1  UNL1        0.1900
     14 O          -1.7971   -0.0953    1.6135 O.2     1  UNL1       -0.2921
     15 C          -2.7584   -0.0978    0.0359 C.3     1  UNL1        0.1198
     16 O          -3.3059    0.7566    0.9627 O.3     1  UNL1       -0.2790
     17 P          -4.6708    1.5200    0.3597 P.3     1  UNL1        0.4728
     18 O          -4.1594    3.0324   -0.2400 O.3     1  UNL1       -0.3026
     19 O          -5.8166    1.7809    1.5705 O.3     1  UNL1       -0.3026
     20 O          -5.2511    0.7297   -0.7739 O.2     1  UNL1       -0.2275
     21 H           1.5164    0.3042    2.2256 H       1  UNL1        0.2100
     22 H           1.4519   -2.1023    1.4521 H       1  UNL1        0.0643
     23 H           3.4797   -0.7954    1.5256 H       1  UNL1        0.0592
     24 H           3.2681   -1.5344   -0.1094 H       1  UNL1        0.0592
     25 H           5.8669   -0.6727   -1.0901 H       1  UNL1        0.2220
     26 H           4.6789    2.4850   -2.0021 H       1  UNL1        0.2220
     27 H           1.1782   -2.0189   -1.0408 H       1  UNL1        0.0650
     28 H           0.0796   -0.1250   -1.8688 H       1  UNL1        0.2100
     29 H          -0.7607   -2.6995    0.3981 H       1  UNL1        0.0701
     30 H          -1.6906   -2.7842   -1.5091 H       1  UNL1        0.2105
     31 H          -2.4651    0.4666   -0.8691 H       1  UNL1        0.0646
     32 H          -3.4444   -0.9396   -0.2299 H       1  UNL1        0.0646
     33 H          -4.6866    3.3364   -1.0049 H       1  UNL1        0.2220
     34 H          -6.2911    2.6335    1.4230 H       1  UNL1        0.2220
@<TRIPOS>BOND
     1     1     2    1
     2     2     3    1
     3     3     4    1
     4     4     5    1
     5     5     6    1
     6     5     7    1
     7     5     8    2
     8     2     9    1
     9     9    10    1
    10     9    11    1
    11    11    12    1
    12    11    13    1
    13    13    14    2
    14    13    15    1
    15    15    16    1
    16    16    17    1
    17    17    18    1
    18    17    19    1
    19    17    20    2
    20     1    21    1
    21     2    22    1
    22     3    23    1
    23     3    24    1
    24     6    25    1
    25     7    26    1
    26     9    27    1
    27    10    28    1
    28    11    29    1
    29    12    30    1
    30    15    31    1
    31    15    32    1
    32    18    33    1
    33    19    34    1
