@<TRIPOS>MOLECULE
*****
 80 85 0 0 0
SMALL
GASTEIGER

@<TRIPOS>ATOM
      1 C           1.9965   -2.9228   -0.3438 C.3     1  UNL1       -0.0219
      2 C           3.0957   -1.9426   -0.1080 C.ar    1  UNL1        0.0464
      3 N           4.3464   -2.3295   -0.4748 N.ar    1  UNL1       -0.2175
      4 C           5.4130   -1.5421   -0.2892 C.ar    1  UNL1        0.2207
      5 O           6.6993   -1.9682   -0.6789 O.3     1  UNL1       -0.4380
      6 C           7.7444   -1.1001   -0.4565 C.ar    1  UNL1        0.1304
      7 C           8.1086   -0.1984   -1.4146 C.ar    1  UNL1       -0.0185
      8 C           9.1466    0.6627   -1.1917 C.ar    1  UNL1       -0.0443
      9 C           9.8244    0.6117    0.0139 C.ar    1  UNL1        0.0591
     10 C          10.9312    1.5104    0.2860 C.2     1  UNL1        0.3368
     11 O          11.2655    2.3403   -0.5986 O.2     1  UNL1       -0.2451
     12 O          11.6047    1.4536    1.4970 O.3     1  UNL1       -0.4771
     13 C           9.4520   -0.2984    0.9731 C.ar    1  UNL1       -0.0443
     14 C           8.4158   -1.1499    0.7366 C.ar    1  UNL1       -0.0185
     15 C           5.2301   -0.3109    0.2885 C.ar    1  UNL1        0.0007
     16 C           3.9709    0.0819    0.6588 C.ar    1  UNL1       -0.0506
     17 C           2.8357   -0.7282    0.4731 C.ar    1  UNL1       -0.0121
     18 C           1.5106   -0.2169    0.8775 C.3     1  UNL1        0.0257
     19 N           0.7638    0.3225   -0.1583 N.3     1  UNL1       -0.2980
     20 C           0.3347   -0.3841   -1.2640 C.3     1  UNL1        0.0009
     21 C          -0.5310    0.4789   -2.1558 C.3     1  UNL1       -0.0213
     22 C          -1.4835    1.3787   -1.4040 C.3     1  UNL1        0.0305
     23 N          -2.6850    0.7165   -0.9703 N.am    1  UNL1       -0.2738
     24 C          -2.9164   -0.2927   -0.0010 C.2     1  UNL1        0.3059
     25 O          -2.0460   -0.6548    0.8540 O.2     1  UNL1       -0.2524
     26 N          -4.2268   -0.8347   -0.1097 N.am    1  UNL1       -0.2802
     27 C          -4.7903   -1.7882    0.8285 C.3     1  UNL1        0.0317
     28 C          -5.1073   -3.0892    0.1319 C.3     1  UNL1       -0.0106
     29 C          -6.0533   -3.8521    1.0684 C.3     1  UNL1        0.0493
     30 O          -7.3221   -3.2760    1.0810 O.3     1  UNL1       -0.3796
     31 C          -7.2924   -1.9060    0.9003 C.3     1  UNL1        0.0493
     32 C          -6.0431   -1.2855    1.4891 C.3     1  UNL1       -0.0106
     33 C          -4.8245   -0.2572   -1.2851 C.3     1  UNL1        0.0393
     34 C          -4.0149    0.9885   -1.5123 C.3     1  UNL1        0.0687
     35 C          -4.6481    2.0999   -0.7583 C.ar    1  UNL1       -0.0255
     36 C          -4.6314    2.1818    0.6159 C.ar    1  UNL1       -0.0567
     37 C          -5.2451    3.2547    1.2364 C.ar    1  UNL1       -0.0614
     38 C          -5.8769    4.2503    0.5059 C.ar    1  UNL1       -0.0617
     39 C          -5.9008    4.1795   -0.8795 C.ar    1  UNL1       -0.0614
     40 C          -5.2881    3.1087   -1.4922 C.ar    1  UNL1       -0.0567
     41 C          -0.8195    2.1821   -0.3376 C.3     1  UNL1       -0.0213
     42 C           0.6304    1.7486   -0.1939 C.3     1  UNL1        0.0009
     43 H           1.7842   -2.9502   -1.4212 H       1  UNL1        0.0293
     44 H           1.1167   -2.7619    0.3001 H       1  UNL1        0.0293
     45 H           2.3515   -3.9641   -0.0747 H       1  UNL1        0.0293
     46 H           7.6104   -0.1171   -2.3774 H       1  UNL1        0.0654
     47 H           9.4434    1.3752   -1.9346 H       1  UNL1        0.0627
     48 H          12.5298    1.8721    1.5508 H       1  UNL1        0.2954
     49 H           9.9612   -0.3725    1.9411 H       1  UNL1        0.0627
     50 H           8.1298   -1.8668    1.5037 H       1  UNL1        0.0654
     51 H           6.0866    0.3315    0.4418 H       1  UNL1        0.0671
     52 H           3.7881    1.0542    1.1209 H       1  UNL1        0.0623
     53 H           1.6186    0.5138    1.7267 H       1  UNL1        0.0476
     54 H           0.9385   -1.0707    1.3483 H       1  UNL1        0.0476
     55 H           1.2035   -0.6863   -1.9312 H       1  UNL1        0.0427
     56 H          -0.2375   -1.3228   -1.0581 H       1  UNL1        0.0427
     57 H          -1.1013   -0.1170   -2.8883 H       1  UNL1        0.0295
     58 H           0.1432    1.1520   -2.7554 H       1  UNL1        0.0295
     59 H          -1.8013    2.1369   -2.1959 H       1  UNL1        0.0502
     60 H          -4.0470   -2.0096    1.6135 H       1  UNL1        0.0502
     61 H          -5.6002   -2.9593   -0.8325 H       1  UNL1        0.0305
     62 H          -4.2016   -3.7274    0.0359 H       1  UNL1        0.0305
     63 H          -5.6542   -3.8484    2.0949 H       1  UNL1        0.0560
     64 H          -6.1649   -4.9065    0.7616 H       1  UNL1        0.0560
     65 H          -8.1590   -1.4036    1.4174 H       1  UNL1        0.0560
     66 H          -7.4227   -1.6914   -0.1723 H       1  UNL1        0.0560
     67 H          -6.0536   -1.4567    2.5716 H       1  UNL1        0.0305
     68 H          -6.1330   -0.1924    1.3341 H       1  UNL1        0.0305
     69 H          -5.9027   -0.0411   -1.1752 H       1  UNL1        0.0487
     70 H          -4.6137   -0.9431   -2.1315 H       1  UNL1        0.0487
     71 H          -3.9478    1.2449   -2.5966 H       1  UNL1        0.0567
     72 H          -4.1507    1.4270    1.2142 H       1  UNL1        0.0621
     73 H          -5.2161    3.2934    2.3270 H       1  UNL1        0.0618
     74 H          -6.3480    5.0771    1.0173 H       1  UNL1        0.0618
     75 H          -6.3961    4.9615   -1.4351 H       1  UNL1        0.0618
     76 H          -5.3163    3.0690   -2.5733 H       1  UNL1        0.0621
     77 H          -1.3512    2.1252    0.6451 H       1  UNL1        0.0295
     78 H          -0.7811    3.2664   -0.5714 H       1  UNL1        0.0295
     79 H           1.2161    2.1298   -1.0555 H       1  UNL1        0.0427
     80 H           1.1049    2.1561    0.7213 H       1  UNL1        0.0427
@<TRIPOS>BOND
     1     1     2    1
     2     2     3   ar
     3     3     4   ar
     4     4     5    1
     5     5     6    1
     6     6     7   ar
     7     7     8   ar
     8     8     9   ar
     9     9    10    1
    10    10    11    2
    11    10    12    1
    12     9    13   ar
    13    13    14   ar
    14     4    15   ar
    15    15    16   ar
    16    16    17   ar
    17    17    18    1
    18    18    19    1
    19    19    20    1
    20    20    21    1
    21    21    22    1
    22    22    23    1
    23    23    24   am
    24    24    25    2
    25    24    26   am
    26    26    27    1
    27    27    28    1
    28    28    29    1
    29    29    30    1
    30    30    31    1
    31    31    32    1
    32    26    33    1
    33    33    34    1
    34    34    35    1
    35    35    36   ar
    36    36    37   ar
    37    37    38   ar
    38    38    39   ar
    39    39    40   ar
    40    22    41    1
    41    41    42    1
    42    17     2   ar
    43    42    19    1
    44    14     6   ar
    45    34    23    1
    46    40    35   ar
    47    32    27    1
    48     1    43    1
    49     1    44    1
    50     1    45    1
    51     7    46    1
    52     8    47    1
    53    12    48    1
    54    13    49    1
    55    14    50    1
    56    15    51    1
    57    16    52    1
    58    18    53    1
    59    18    54    1
    60    20    55    1
    61    20    56    1
    62    21    57    1
    63    21    58    1
    64    22    59    1
    65    27    60    1
    66    28    61    1
    67    28    62    1
    68    29    63    1
    69    29    64    1
    70    31    65    1
    71    31    66    1
    72    32    67    1
    73    32    68    1
    74    33    69    1
    75    33    70    1
    76    34    71    1
    77    36    72    1
    78    37    73    1
    79    38    74    1
    80    39    75    1
    81    40    76    1
    82    41    77    1
    83    41    78    1
    84    42    79    1
    85    42    80    1
