@<TRIPOS>MOLECULE
*****
 64 68 0 0 0
SMALL
GASTEIGER

@<TRIPOS>ATOM
      1 C           6.7973   -2.7662    1.5796 C.3     1  UNL1       -0.0223
      2 C           6.4825   -1.5150    0.8743 C.ar    1  UNL1        0.0403
      3 C           5.1390   -1.1915    0.6925 C.ar    1  UNL1       -0.0194
      4 C           4.7640   -0.0513    0.0495 C.ar    1  UNL1        0.0370
      5 N           3.4529    0.3566   -0.1953 N.pl3   1  UNL1       -0.2835
      6 C           2.2969   -0.4111    0.0083 C.ar    1  UNL1        0.2212
      7 N           2.2733   -1.6700    0.4329 N.ar    1  UNL1       -0.2219
      8 C           1.1334   -2.3323    0.6019 C.ar    1  UNL1        0.0442
      9 C          -0.1031   -1.7300    0.3386 C.ar    1  UNL1        0.0650
     10 C          -1.3630   -2.4115    0.5084 C.ar    1  UNL1        0.1137
     11 N          -2.5655   -2.3017    0.4134 N.ar    1  UNL1       -0.2389
     12 C          -3.5031   -3.1548    0.6555 C.ar    1  UNL1        0.0788
     13 C          -4.9501   -2.9386    0.5129 C.ar    1  UNL1        0.0009
     14 C          -5.3909   -1.7145    0.0793 C.ar    1  UNL1       -0.0525
     15 C          -6.7451   -1.4548   -0.0735 C.ar    1  UNL1       -0.0611
     16 C          -7.6604   -2.4400    0.2142 C.ar    1  UNL1       -0.0617
     17 C          -7.2444   -3.6677    0.6478 C.ar    1  UNL1       -0.0611
     18 C          -5.8849   -3.8945    0.7898 C.ar    1  UNL1       -0.0525
     19 C          -3.0404   -4.4102    1.1007 C.ar    1  UNL1        0.0037
     20 S          -1.2901   -4.2014    1.1148 S.2     1  UNL1       -0.0749
     21 C          -0.0956   -0.4319   -0.1000 C.ar    1  UNL1        0.1339
     22 N          -1.3137    0.2177   -0.3812 N.pl3   1  UNL1       -0.3230
     23 C          -1.2498    1.5892   -0.8384 C.3     1  UNL1        0.0507
     24 C          -0.6124    2.5271    0.1631 C.3     1  UNL1       -0.0247
     25 C          -0.9470    3.8748   -0.4663 C.3     1  UNL1        0.0124
     26 C          -1.0766    4.9494    0.5897 C.3     1  UNL1        0.0495
     27 O           0.1183    5.0806    1.2939 O.3     1  UNL1       -0.3946
     28 C          -2.2407    3.6753   -1.2238 C.3     1  UNL1        0.0877
     29 O          -2.0043    3.9219   -2.5961 O.3     1  UNL1       -0.3888
     30 C          -2.6153    2.2104   -1.0102 C.3     1  UNL1        0.0996
     31 O          -3.3163    1.6960   -2.0812 O.3     1  UNL1       -0.3874
     32 N           1.0857    0.1711   -0.2470 N.ar    1  UNL1       -0.1988
     33 C           5.8002    0.7684   -0.4127 C.ar    1  UNL1       -0.0194
     34 C           7.1014    0.4454   -0.2309 C.ar    1  UNL1        0.0403
     35 C           8.1444    1.3817   -0.7592 C.3     1  UNL1       -0.0223
     36 N           7.4109   -0.6826    0.4049 N.ar    1  UNL1       -0.2569
     37 H           6.9449   -2.6226    2.6773 H       1  UNL1        0.0292
     38 H           5.9690   -3.5184    1.4865 H       1  UNL1        0.0292
     39 H           7.7007   -3.2808    1.1767 H       1  UNL1        0.0292
     40 H           4.3768   -1.8818    1.0909 H       1  UNL1        0.0654
     41 H           3.3000    1.3448   -0.5703 H       1  UNL1        0.1550
     42 H           1.1452   -3.3770    0.9557 H       1  UNL1        0.0839
     43 H          -4.6735   -0.9434   -0.1457 H       1  UNL1        0.0624
     44 H          -7.0969   -0.4829   -0.4178 H       1  UNL1        0.0618
     45 H          -8.7307   -2.2018    0.0823 H       1  UNL1        0.0618
     46 H          -7.9405   -4.4447    0.8760 H       1  UNL1        0.0618
     47 H          -5.5583   -4.8764    1.1362 H       1  UNL1        0.0624
     48 H          -3.6359   -5.3158    1.3770 H       1  UNL1        0.0715
     49 H          -2.2530   -0.1893   -0.2934 H       1  UNL1        0.1479
     50 H          -0.7036    1.7017   -1.7949 H       1  UNL1        0.0524
     51 H          -1.1979    2.4140    1.1048 H       1  UNL1        0.0288
     52 H           0.4591    2.3886    0.3007 H       1  UNL1        0.0288
     53 H          -0.0983    4.1405   -1.1104 H       1  UNL1        0.0349
     54 H          -1.2649    5.9290    0.1065 H       1  UNL1        0.0561
     55 H          -1.8939    4.7120    1.3186 H       1  UNL1        0.0561
     56 H          -0.0157    5.4060    2.2181 H       1  UNL1        0.2094
     57 H          -3.0480    4.3579   -0.8690 H       1  UNL1        0.0623
     58 H          -1.9701    3.0394   -3.0393 H       1  UNL1        0.2099
     59 H          -3.1451    2.1179   -0.0484 H       1  UNL1        0.0638
     60 H          -4.2563    1.5933   -1.7950 H       1  UNL1        0.2100
     61 H           5.5556    1.6863   -0.9305 H       1  UNL1        0.0654
     62 H           8.3348    2.2239   -0.0687 H       1  UNL1        0.0292
     63 H           7.7951    1.7641   -1.7439 H       1  UNL1        0.0292
     64 H           9.1142    0.8212   -0.8550 H       1  UNL1        0.0292
@<TRIPOS>BOND
     1     1     2    1
     2     2     3   ar
     3     3     4   ar
     4     4     5    1
     5     5     6    1
     6     6     7   ar
     7     7     8   ar
     8     8     9   ar
     9     9    10    1
    10    10    11   ar
    11    11    12   ar
    12    12    13    1
    13    13    14   ar
    14    14    15   ar
    15    15    16   ar
    16    16    17   ar
    17    17    18   ar
    18    12    19   ar
    19    19    20   ar
    20     9    21   ar
    21    21    22    1
    22    22    23    1
    23    23    24    1
    24    24    25    1
    25    25    26    1
    26    26    27    1
    27    25    28    1
    28    28    29    1
    29    28    30    1
    30    30    31    1
    31    21    32   ar
    32     4    33   ar
    33    33    34   ar
    34    34    35    1
    35    34    36   ar
    36    36     2   ar
    37    32     6   ar
    38    20    10   ar
    39    30    23    1
    40    18    13   ar
    41     1    37    1
    42     1    38    1
    43     1    39    1
    44     3    40    1
    45     5    41    1
    46     8    42    1
    47    14    43    1
    48    15    44    1
    49    16    45    1
    50    17    46    1
    51    18    47    1
    52    19    48    1
    53    22    49    1
    54    23    50    1
    55    24    51    1
    56    24    52    1
    57    25    53    1
    58    26    54    1
    59    26    55    1
    60    27    56    1
    61    28    57    1
    62    29    58    1
    63    30    59    1
    64    31    60    1
    65    33    61    1
    66    35    62    1
    67    35    63    1
    68    35    64    1
