
     RDKit          3D

 40 42  0  0  0  0  0  0  0  0999 V2000
    7.5078    2.8086    0.8981 Cl  0  0  0  0  0  0  0  0  0  0  0  0
    6.0574    1.8787    0.6497 C   0  0  0  0  0  0  0  0  0  0  0  0
    6.0683    0.5279    0.8795 C   0  0  0  0  0  0  0  0  0  0  0  0
    4.9307   -0.2135    0.6868 C   0  0  0  0  0  0  0  0  0  0  0  0
    3.7295    0.3127    0.2634 C   0  0  0  0  0  0  0  0  0  0  0  0
    2.6180   -0.5358    0.0959 N   0  0  0  0  0  0  0  0  0  0  0  0
    1.2874   -0.3094   -0.3141 C   0  0  0  0  0  0  0  0  0  0  0  0
    1.1535    0.9067   -0.5568 O   0  0  0  0  0  0  0  0  0  0  0  0
    0.2773   -1.3414   -0.4224 C   0  0  0  0  0  0  0  0  0  0  0  0
   -0.9966   -1.0419   -0.8399 C   0  0  0  0  0  0  0  0  0  0  0  0
   -1.4465    0.2408   -1.2224 N   0  0  0  0  0  0  0  0  0  0  0  0
   -2.7383    0.7269   -1.6621 C   0  0  0  0  0  0  0  0  0  0  0  0
   -3.7558    0.7996   -0.5945 C   0  0  0  0  0  0  0  0  0  0  0  0
   -4.7685    0.0242   -0.1337 C   0  0  0  0  0  0  0  0  0  0  0  0
   -5.5594    0.3502    0.9276 C   0  0  0  0  0  0  0  0  0  0  0  0
   -5.3681    1.4955    1.5917 N   0  0  0  0  0  0  0  0  0  0  0  0
   -4.3772    2.3436    1.2071 C   0  0  0  0  0  0  0  0  0  0  0  0
   -3.5826    1.9922    0.1234 C   0  0  0  0  0  0  0  0  0  0  0  0
   -1.9121   -2.0702   -0.9177 C   0  0  0  0  0  0  0  0  0  0  0  0
   -1.6509   -3.3956   -0.6055 C   0  0  0  0  0  0  0  0  0  0  0  0
   -0.3468   -3.6802   -0.1819 C   0  0  0  0  0  0  0  0  0  0  0  0
    0.5611   -2.6474   -0.1075 C   0  0  0  0  0  0  0  0  0  0  0  0
    3.7845    1.6696    0.0509 C   0  0  0  0  0  0  0  0  0  0  0  0
    4.8897    2.4712    0.2246 C   0  0  0  0  0  0  0  0  0  0  0  0
    6.9889    0.0800    1.2115 H   0  0  0  0  0  0  0  0  0  0  0  0
    5.0495   -1.2814    0.8992 H   0  0  0  0  0  0  0  0  0  0  0  0
    2.8036   -1.5584    0.3200 H   0  0  0  0  0  0  0  0  0  0  0  0
   -0.8684    1.1040   -1.2436 H   0  0  0  0  0  0  0  0  0  0  0  0
   -2.7184    1.6755   -2.2164 H   0  0  0  0  0  0  0  0  0  0  0  0
   -3.1646   -0.0054   -2.4242 H   0  0  0  0  0  0  0  0  0  0  0  0
   -4.8887   -0.8694   -0.7033 H   0  0  0  0  0  0  0  0  0  0  0  0
   -6.3185   -0.3790    1.1624 H   0  0  0  0  0  0  0  0  0  0  0  0
   -4.2959    3.2367    1.7946 H   0  0  0  0  0  0  0  0  0  0  0  0
   -2.8403    2.7832   -0.0479 H   0  0  0  0  0  0  0  0  0  0  0  0
   -2.9214   -1.9243   -1.2449 H   0  0  0  0  0  0  0  0  0  0  0  0
   -2.3857   -4.1847   -0.6740 H   0  0  0  0  0  0  0  0  0  0  0  0
   -0.1240   -4.7159    0.0673 H   0  0  0  0  0  0  0  0  0  0  0  0
    1.5171   -3.0087    0.2304 H   0  0  0  0  0  0  0  0  0  0  0  0
    2.9241    2.1997   -0.2780 H   0  0  0  0  0  0  0  0  0  0  0  0
    4.8804    3.5351    0.0433 H   0  0  0  0  0  0  0  0  0  0  0  0
  1  2  1  0
  2  3  2  0
  3  4  1  0
  4  5  2  0
  5  6  1  0
  6  7  1  0
  7  8  2  0
  7  9  1  0
  9 10  1  0
 10 11  1  0
 11 12  1  0
 12 13  1  0
 13 14  2  0
 14 15  1  0
 15 16  2  0
 16 17  1  0
 17 18  2  0
 10 19  2  0
 19 20  1  0
 20 21  2  0
 21 22  1  0
  5 23  1  0
 23 24  2  0
 24  2  1  0
 22  9  2  0
 18 13  1  0
  3 25  1  0
  4 26  1  0
  6 27  1  0
 11 28  1  0
 12 29  1  0
 12 30  1  0
 14 31  1  0
 15 32  1  0
 17 33  1  0
 18 34  1  0
 19 35  1  0
 20 36  1  0
 21 37  1  0
 22 38  1  0
 23 39  1  0
 24 40  1  0
M  END
$$$$
