@<TRIPOS>MOLECULE
*****
 40 42 0 0 0
SMALL
GASTEIGER

@<TRIPOS>ATOM
      1 CL          7.5078    2.8086    0.8981 Cl      1  UNL1       -0.0835
      2 C           6.0574    1.8787    0.6497 C.ar    1  UNL1        0.0411
      3 C           6.0683    0.5279    0.8795 C.ar    1  UNL1       -0.0416
      4 C           4.9307   -0.2135    0.6868 C.ar    1  UNL1       -0.0391
      5 C           3.7295    0.3127    0.2634 C.ar    1  UNL1        0.0338
      6 N           2.6180   -0.5358    0.0959 N.am    1  UNL1       -0.2815
      7 C           1.2874   -0.3094   -0.3141 C.2     1  UNL1        0.2500
      8 O           1.1535    0.9067   -0.5568 O.2     1  UNL1       -0.2698
      9 C           0.2773   -1.3414   -0.4224 C.ar    1  UNL1        0.0578
     10 C          -0.9966   -1.0419   -0.8399 C.ar    1  UNL1        0.0396
     11 N          -1.4465    0.2408   -1.2224 N.pl3   1  UNL1       -0.3391
     12 C          -2.7383    0.7269   -1.6621 C.3     1  UNL1        0.0345
     13 C          -3.7558    0.7996   -0.5945 C.ar    1  UNL1       -0.0276
     14 C          -4.7685    0.0242   -0.1337 C.ar    1  UNL1       -0.0389
     15 C          -5.5594    0.3502    0.9276 C.ar    1  UNL1        0.0279
     16 N          -5.3681    1.4955    1.5917 N.ar    1  UNL1       -0.2632
     17 C          -4.3772    2.3436    1.2071 C.ar    1  UNL1        0.0279
     18 C          -3.5826    1.9922    0.1234 C.ar    1  UNL1       -0.0389
     19 C          -1.9121   -2.0702   -0.9177 C.ar    1  UNL1       -0.0401
     20 C          -1.6509   -3.3956   -0.6055 C.ar    1  UNL1       -0.0600
     21 C          -0.3468   -3.6802   -0.1819 C.ar    1  UNL1       -0.0609
     22 C           0.5611   -2.6474   -0.1075 C.ar    1  UNL1       -0.0478
     23 C           3.7845    1.6696    0.0509 C.ar    1  UNL1       -0.0391
     24 C           4.8897    2.4712    0.2246 C.ar    1  UNL1       -0.0416
     25 H           6.9889    0.0800    1.2115 H       1  UNL1        0.0633
     26 H           5.0495   -1.2814    0.8992 H       1  UNL1        0.0636
     27 H           2.8036   -1.5584    0.3200 H       1  UNL1        0.1551
     28 H          -0.8684    1.1040   -1.2436 H       1  UNL1        0.1464
     29 H          -2.7184    1.6755   -2.2164 H       1  UNL1        0.0511
     30 H          -3.1646   -0.0054   -2.4242 H       1  UNL1        0.0511
     31 H          -4.8887   -0.8694   -0.7033 H       1  UNL1        0.0636
     32 H          -6.3185   -0.3790    1.1624 H       1  UNL1        0.0829
     33 H          -4.2959    3.2367    1.7946 H       1  UNL1        0.0829
     34 H          -2.8403    2.7832   -0.0479 H       1  UNL1        0.0636
     35 H          -2.9214   -1.9243   -1.2449 H       1  UNL1        0.0636
     36 H          -2.3857   -4.1847   -0.6740 H       1  UNL1        0.0618
     37 H          -0.1240   -4.7159    0.0673 H       1  UNL1        0.0618
     38 H           1.5171   -3.0087    0.2304 H       1  UNL1        0.0626
     39 H           2.9241    2.1997   -0.2780 H       1  UNL1        0.0636
     40 H           4.8804    3.5351    0.0433 H       1  UNL1        0.0633
@<TRIPOS>BOND
     1     1     2    1
     2     2     3   ar
     3     3     4   ar
     4     4     5   ar
     5     5     6    1
     6     6     7   am
     7     7     8    2
     8     7     9    1
     9     9    10   ar
    10    10    11    1
    11    11    12    1
    12    12    13    1
    13    13    14   ar
    14    14    15   ar
    15    15    16   ar
    16    16    17   ar
    17    17    18   ar
    18    10    19   ar
    19    19    20   ar
    20    20    21   ar
    21    21    22   ar
    22     5    23   ar
    23    23    24   ar
    24    24     2   ar
    25    22     9   ar
    26    18    13   ar
    27     3    25    1
    28     4    26    1
    29     6    27    1
    30    11    28    1
    31    12    29    1
    32    12    30    1
    33    14    31    1
    34    15    32    1
    35    17    33    1
    36    18    34    1
    37    19    35    1
    38    20    36    1
    39    21    37    1
    40    22    38    1
    41    23    39    1
    42    24    40    1
