
     RDKit          3D

 32 34  0  0  0  0  0  0  0  0999 V2000
    5.6609   -0.0987   -1.0779 C   0  0  0  0  0  0  0  0  0  0  0  0
    4.9353   -0.1264    0.1257 O   0  0  0  0  0  0  0  0  0  0  0  0
    3.5716   -0.0571    0.2255 C   0  0  0  0  0  0  0  0  0  0  0  0
    2.7990    0.0500   -0.9269 C   0  0  0  0  0  0  0  0  0  0  0  0
    1.4296    0.1195   -0.8270 C   0  0  0  0  0  0  0  0  0  0  0  0
    0.8012    0.0854    0.3956 C   0  0  0  0  0  0  0  0  0  0  0  0
   -0.6759    0.1654    0.4127 C   0  0  0  0  0  0  0  0  0  0  0  0
   -1.3599    0.2669   -0.7264 N   0  0  0  0  0  0  0  0  0  0  0  0
   -2.7035    0.3398   -0.7123 C   0  0  0  0  0  0  0  0  0  0  0  0
   -3.4337    0.4450   -1.8730 C   0  0  0  0  0  0  0  0  0  0  0  0
   -4.8003    0.5199   -1.8713 C   0  0  0  0  0  0  0  0  0  0  0  0
   -5.5186    0.4925   -0.6804 C   0  0  0  0  0  0  0  0  0  0  0  0
   -4.7841    0.3870    0.4815 C   0  0  0  0  0  0  0  0  0  0  0  0
   -3.4097    0.3113    0.4856 C   0  0  0  0  0  0  0  0  0  0  0  0
   -2.6744    0.2065    1.6339 C   0  0  0  0  0  0  0  0  0  0  0  0
   -3.2266    0.1739    2.7556 O   0  0  0  0  0  0  0  0  0  0  0  0
   -1.3405    0.1370    1.5696 N   0  0  0  0  0  0  0  0  0  0  0  0
    1.5801   -0.0202    1.5139 C   0  0  0  0  0  0  0  0  0  0  0  0
    2.9746   -0.0932    1.4522 C   0  0  0  0  0  0  0  0  0  0  0  0
    3.6976   -0.2004    2.6546 O   0  0  0  0  0  0  0  0  0  0  0  0
    5.8485    0.9473   -1.4440 H   0  0  0  0  0  0  0  0  0  0  0  0
    5.1550   -0.6998   -1.8657 H   0  0  0  0  0  0  0  0  0  0  0  0
    6.6594   -0.5956   -0.9141 H   0  0  0  0  0  0  0  0  0  0  0  0
    3.2695    0.0788   -1.9001 H   0  0  0  0  0  0  0  0  0  0  0  0
    0.8429    0.2016   -1.7151 H   0  0  0  0  0  0  0  0  0  0  0  0
   -2.8835    0.4671   -2.8043 H   0  0  0  0  0  0  0  0  0  0  0  0
   -5.3697    0.6035   -2.8034 H   0  0  0  0  0  0  0  0  0  0  0  0
   -6.5990    0.5513   -0.6716 H   0  0  0  0  0  0  0  0  0  0  0  0
   -5.3065    0.3631    1.4175 H   0  0  0  0  0  0  0  0  0  0  0  0
   -0.8048    0.0559    2.4906 H   0  0  0  0  0  0  0  0  0  0  0  0
    1.1275   -0.0503    2.4932 H   0  0  0  0  0  0  0  0  0  0  0  0
    4.5382   -0.7715    2.7057 H   0  0  0  0  0  0  0  0  0  0  0  0
  1  2  1  0
  2  3  1  0
  3  4  2  0
  4  5  1  0
  5  6  2  0
  6  7  1  0
  7  8  2  0
  8  9  1  0
  9 10  2  0
 10 11  1  0
 11 12  2  0
 12 13  1  0
 13 14  2  0
 14 15  1  0
 15 16  2  0
 15 17  1  0
  6 18  1  0
 18 19  2  0
 19 20  1  0
 19  3  1  0
 17  7  1  0
 14  9  1  0
  1 21  1  0
  1 22  1  0
  1 23  1  0
  4 24  1  0
  5 25  1  0
 10 26  1  0
 11 27  1  0
 12 28  1  0
 13 29  1  0
 17 30  1  0
 18 31  1  0
 20 32  1  0
M  END
$$$$
