@<TRIPOS>MOLECULE
*****
 32 34 0 0 0
SMALL
GASTEIGER

@<TRIPOS>ATOM
      1 C           5.6609   -0.0987   -1.0779 C.3     1  UNL1        0.0790
      2 O           4.9353   -0.1264    0.1257 O.3     1  UNL1       -0.4915
      3 C           3.5716   -0.0571    0.2255 C.ar    1  UNL1        0.1613
      4 C           2.7990    0.0500   -0.9269 C.ar    1  UNL1       -0.0156
      5 C           1.4296    0.1195   -0.8270 C.ar    1  UNL1       -0.0474
      6 C           0.8012    0.0854    0.3956 C.ar    1  UNL1        0.0210
      7 C          -0.6759    0.1654    0.4127 C.ar    1  UNL1        0.1416
      8 N          -1.3599    0.2669   -0.7264 N.ar    1  UNL1       -0.2290
      9 C          -2.7035    0.3398   -0.7123 C.ar    1  UNL1        0.0785
     10 C          -3.4337    0.4450   -1.8730 C.ar    1  UNL1       -0.0355
     11 C          -4.8003    0.5199   -1.8713 C.ar    1  UNL1       -0.0597
     12 C          -5.5186    0.4925   -0.6804 C.ar    1  UNL1       -0.0609
     13 C          -4.7841    0.3870    0.4815 C.ar    1  UNL1       -0.0474
     14 C          -3.4097    0.3113    0.4856 C.ar    1  UNL1        0.0647
     15 C          -2.6744    0.2065    1.6339 C.ar    1  UNL1        0.2595
     16 O          -3.2266    0.1739    2.7556 O.2     1  UNL1       -0.2671
     17 N          -1.3405    0.1370    1.5696 N.ar    1  UNL1       -0.3064
     18 C           1.5801   -0.0202    1.5139 C.ar    1  UNL1       -0.0059
     19 C           2.9746   -0.0932    1.4522 C.ar    1  UNL1        0.1591
     20 O           3.6976   -0.2004    2.6546 O.3     1  UNL1       -0.5033
     21 H           5.8485    0.9473   -1.4440 H       1  UNL1        0.0660
     22 H           5.1550   -0.6998   -1.8657 H       1  UNL1        0.0660
     23 H           6.6594   -0.5956   -0.9141 H       1  UNL1        0.0660
     24 H           3.2695    0.0788   -1.9001 H       1  UNL1        0.0655
     25 H           0.8429    0.2016   -1.7151 H       1  UNL1        0.0626
     26 H          -2.8835    0.4671   -2.8043 H       1  UNL1        0.0639
     27 H          -5.3697    0.6035   -2.8034 H       1  UNL1        0.0618
     28 H          -6.5990    0.5513   -0.6716 H       1  UNL1        0.0618
     29 H          -5.3065    0.3631    1.4175 H       1  UNL1        0.0626
     30 H          -0.8048    0.0559    2.4906 H       1  UNL1        0.1704
     31 H           1.1275   -0.0503    2.4932 H       1  UNL1        0.0662
     32 H           4.5382   -0.7715    2.7057 H       1  UNL1        0.2923
@<TRIPOS>BOND
     1     1     2    1
     2     2     3    1
     3     3     4   ar
     4     4     5   ar
     5     5     6   ar
     6     6     7    1
     7     7     8   ar
     8     8     9   ar
     9     9    10   ar
    10    10    11   ar
    11    11    12   ar
    12    12    13   ar
    13    13    14   ar
    14    14    15   ar
    15    15    16    2
    16    15    17   ar
    17     6    18   ar
    18    18    19   ar
    19    19    20    1
    20    19     3   ar
    21    17     7   ar
    22    14     9   ar
    23     1    21    1
    24     1    22    1
    25     1    23    1
    26     4    24    1
    27     5    25    1
    28    10    26    1
    29    11    27    1
    30    12    28    1
    31    13    29    1
    32    17    30    1
    33    18    31    1
    34    20    32    1
