@<TRIPOS>MOLECULE
*****
 17 11 0 0 0
SMALL
GASTEIGER

@<TRIPOS>ATOM
      1 O          -0.0057    0.3852   -0.0000 O.3     1  HOH1       -0.4105
      2 O           0.5705    0.0000    0.0000 O.2     1  HOH1        0.0000
      3 O          -0.5705    0.0000    0.0000 O.2     1  HOH1        0.0000
      4 O          -1.3915   -0.3226   -0.0000 O.co2   2  UNL2       -0.7937
      5 CL         -0.0025    0.6435   -0.0000 Cl      2  UNL2       -0.4126
      6 O           1.3940   -0.3209    0.0000 O.co2   2  UNL2       -0.7937
      7 O          -1.3915   -0.3226   -0.0000 O.co2   3  UNL3       -0.7937
      8 CL         -0.0025    0.6435   -0.0000 Cl      3  UNL3       -0.4126
      9 O           1.3940   -0.3209    0.0000 O.co2   3  UNL3       -0.7937
     10 O          -1.3915   -0.3226   -0.0000 O.co2   4  UNL4       -0.7937
     11 CL         -0.0025    0.6435   -0.0000 Cl      4  UNL4       -0.4126
     12 O           1.3940   -0.3209    0.0000 O.co2   4  UNL4       -0.7937
     13 O          -1.3915   -0.3226   -0.0000 O.co2   5  UNL5       -0.7937
     14 CL         -0.0025    0.6435   -0.0000 Cl      5  UNL5       -0.4126
     15 O           1.3940   -0.3209    0.0000 O.co2   5  UNL5       -0.7937
     16 H          -0.7961   -0.1947   -0.0000 H       0  HOH0        0.2052
     17 H           0.8018   -0.1905    0.0000 H       0  HOH0        0.2052
@<TRIPOS>UNITY_ATOM_ATTR
4 1
charge -1
5 1
charge 1
6 1
charge -1
7 1
charge -1
8 1
charge 1
9 1
charge -1
10 1
charge -1
11 1
charge 1
12 1
charge -1
13 1
charge -1
14 1
charge 1
15 1
charge -1
@<TRIPOS>BOND
     1     2     3    2
     2     4     5    1
     3     5     6    1
     4     7     8    1
     5     8     9    1
     6    10    11    1
     7    11    12    1
     8    13    14    1
     9    14    15    1
    10     1    16    1
    11     1    17    1
