@<TRIPOS>MOLECULE
*****
 38 41 0 0 0
SMALL
GASTEIGER

@<TRIPOS>ATOM
      1 O           2.6226   -1.1609    2.4856 O.2     1  UNL1       -0.2700
      2 C           2.5903   -0.7223    1.2976 C.2     1  UNL1        0.2471
      3 C           3.7269   -0.0044    0.7705 C.ar    1  UNL1        0.0410
      4 C           4.9289   -0.6512    0.4895 C.ar    1  UNL1       -0.0142
      5 C           6.0404   -0.0072   -0.0184 C.ar    1  UNL1        0.1255
      6 F           7.2139   -0.6003   -0.3006 F       1  UNL1       -0.2054
      7 C           5.9425    1.3532   -0.2564 C.ar    1  UNL1       -0.0081
      8 C           4.7737    2.0320    0.0090 C.ar    1  UNL1        0.0444
      9 CL          4.6857    3.7699   -0.3056 Cl      1  UNL1       -0.0834
     10 C           3.6848    1.3617    0.5138 C.ar    1  UNL1       -0.0311
     11 N           1.4485   -0.9430    0.5139 N.am    1  UNL1       -0.2912
     12 C           1.3614   -0.4734   -0.8401 C.3     1  UNL1        0.0223
     13 C           0.2734   -1.2504   -1.5683 C.3     1  UNL1        0.0233
     14 C          -0.9923   -0.9001   -0.8594 C.ar    1  UNL1        0.1319
     15 O          -2.1705   -0.4390   -1.1215 O.2     1  UNL1       -0.4387
     16 C          -2.9293   -0.3207   -0.0604 C.ar    1  UNL1        0.2465
     17 C          -4.2969    0.1582    0.0453 C.ar    1  UNL1        0.1257
     18 C          -4.9978    0.5102   -1.0723 C.ar    1  UNL1       -0.0283
     19 C          -6.2867    0.9897   -1.0251 C.ar    1  UNL1       -0.0228
     20 C          -6.8829    1.1145    0.2137 C.ar    1  UNL1        0.1414
     21 F          -8.1551    1.5866    0.2947 F       1  UNL1       -0.2039
     22 C          -6.1768    0.7601    1.3356 C.ar    1  UNL1        0.0636
     23 N          -4.9150    0.2960    1.2312 N.ar    1  UNL1       -0.2474
     24 N          -2.1433   -0.7555    0.9747 N.ar    1  UNL1       -0.2108
     25 C          -0.9581   -1.1168    0.5349 C.ar    1  UNL1        0.1003
     26 C           0.3298   -1.6545    1.0999 C.3     1  UNL1        0.0605
     27 H           5.0002   -1.7032    0.6771 H       1  UNL1        0.0654
     28 H           6.7756    1.9198   -0.6531 H       1  UNL1        0.0661
     29 H           2.7619    1.8852    0.7293 H       1  UNL1        0.0640
     30 H           1.0723    0.6081   -0.8371 H       1  UNL1        0.0469
     31 H           2.3358   -0.5195   -1.3664 H       1  UNL1        0.0469
     32 H           0.2365   -0.9412   -2.6338 H       1  UNL1        0.0359
     33 H           0.4188   -2.3370   -1.4554 H       1  UNL1        0.0359
     34 H          -4.5190    0.4083   -2.0321 H       1  UNL1        0.0641
     35 H          -6.8115    1.2625   -1.9424 H       1  UNL1        0.0647
     36 H          -6.6699    0.8728    2.3075 H       1  UNL1        0.0859
     37 H           0.3333   -2.7318    0.7716 H       1  UNL1        0.0530
     38 H           0.3483   -1.6562    2.1849 H       1  UNL1        0.0530
@<TRIPOS>BOND
     1     1     2    2
     2     2     3    1
     3     3     4   ar
     4     4     5   ar
     5     5     6    1
     6     5     7   ar
     7     7     8   ar
     8     8     9    1
     9     8    10   ar
    10     2    11   am
    11    11    12    1
    12    12    13    1
    13    13    14    1
    14    14    15   ar
    15    15    16   ar
    16    16    17    1
    17    17    18   ar
    18    18    19   ar
    19    19    20   ar
    20    20    21    1
    21    20    22   ar
    22    22    23   ar
    23    16    24   ar
    24    24    25   ar
    25    25    26    1
    26    10     3   ar
    27    26    11    1
    28    25    14   ar
    29    23    17   ar
    30     4    27    1
    31     7    28    1
    32    10    29    1
    33    12    30    1
    34    12    31    1
    35    13    32    1
    36    13    33    1
    37    18    34    1
    38    19    35    1
    39    22    36    1
    40    26    37    1
    41    26    38    1
