
     RDKit          3D

 38 41  0  0  0  0  0  0  0  0999 V2000
    2.6226   -1.1609    2.4856 O   0  0  0  0  0  0  0  0  0  0  0  0
    2.5903   -0.7223    1.2976 C   0  0  0  0  0  0  0  0  0  0  0  0
    3.7269   -0.0044    0.7705 C   0  0  0  0  0  0  0  0  0  0  0  0
    4.9289   -0.6512    0.4895 C   0  0  0  0  0  0  0  0  0  0  0  0
    6.0404   -0.0072   -0.0184 C   0  0  0  0  0  0  0  0  0  0  0  0
    7.2139   -0.6003   -0.3006 F   0  0  0  0  0  0  0  0  0  0  0  0
    5.9425    1.3532   -0.2564 C   0  0  0  0  0  0  0  0  0  0  0  0
    4.7737    2.0320    0.0090 C   0  0  0  0  0  0  0  0  0  0  0  0
    4.6857    3.7699   -0.3056 Cl  0  0  0  0  0  0  0  0  0  0  0  0
    3.6848    1.3617    0.5138 C   0  0  0  0  0  0  0  0  0  0  0  0
    1.4485   -0.9430    0.5139 N   0  0  0  0  0  0  0  0  0  0  0  0
    1.3614   -0.4734   -0.8401 C   0  0  0  0  0  0  0  0  0  0  0  0
    0.2734   -1.2504   -1.5683 C   0  0  0  0  0  0  0  0  0  0  0  0
   -0.9923   -0.9001   -0.8594 C   0  0  0  0  0  0  0  0  0  0  0  0
   -2.1705   -0.4390   -1.1215 O   0  0  0  0  0  0  0  0  0  0  0  0
   -2.9293   -0.3207   -0.0604 C   0  0  0  0  0  0  0  0  0  0  0  0
   -4.2969    0.1582    0.0453 C   0  0  0  0  0  0  0  0  0  0  0  0
   -4.9978    0.5102   -1.0723 C   0  0  0  0  0  0  0  0  0  0  0  0
   -6.2867    0.9897   -1.0251 C   0  0  0  0  0  0  0  0  0  0  0  0
   -6.8829    1.1145    0.2137 C   0  0  0  0  0  0  0  0  0  0  0  0
   -8.1551    1.5866    0.2947 F   0  0  0  0  0  0  0  0  0  0  0  0
   -6.1768    0.7601    1.3356 C   0  0  0  0  0  0  0  0  0  0  0  0
   -4.9150    0.2960    1.2312 N   0  0  0  0  0  0  0  0  0  0  0  0
   -2.1433   -0.7555    0.9747 N   0  0  0  0  0  0  0  0  0  0  0  0
   -0.9581   -1.1168    0.5349 C   0  0  0  0  0  0  0  0  0  0  0  0
    0.3298   -1.6545    1.0999 C   0  0  0  0  0  0  0  0  0  0  0  0
    5.0002   -1.7032    0.6771 H   0  0  0  0  0  0  0  0  0  0  0  0
    6.7756    1.9198   -0.6531 H   0  0  0  0  0  0  0  0  0  0  0  0
    2.7619    1.8852    0.7293 H   0  0  0  0  0  0  0  0  0  0  0  0
    1.0723    0.6081   -0.8371 H   0  0  0  0  0  0  0  0  0  0  0  0
    2.3358   -0.5195   -1.3664 H   0  0  0  0  0  0  0  0  0  0  0  0
    0.2365   -0.9412   -2.6338 H   0  0  0  0  0  0  0  0  0  0  0  0
    0.4188   -2.3370   -1.4554 H   0  0  0  0  0  0  0  0  0  0  0  0
   -4.5190    0.4083   -2.0321 H   0  0  0  0  0  0  0  0  0  0  0  0
   -6.8115    1.2625   -1.9424 H   0  0  0  0  0  0  0  0  0  0  0  0
   -6.6699    0.8728    2.3075 H   0  0  0  0  0  0  0  0  0  0  0  0
    0.3333   -2.7318    0.7716 H   0  0  0  0  0  0  0  0  0  0  0  0
    0.3483   -1.6562    2.1849 H   0  0  0  0  0  0  0  0  0  0  0  0
  1  2  2  0
  2  3  1  0
  3  4  2  0
  4  5  1  0
  5  6  1  0
  5  7  2  0
  7  8  1  0
  8  9  1  0
  8 10  2  0
  2 11  1  0
 11 12  1  0
 12 13  1  0
 13 14  1  0
 14 15  1  0
 15 16  1  0
 16 17  1  0
 17 18  2  0
 18 19  1  0
 19 20  2  0
 20 21  1  0
 20 22  1  0
 22 23  2  0
 16 24  2  0
 24 25  1  0
 25 26  1  0
 10  3  1  0
 26 11  1  0
 25 14  2  0
 23 17  1  0
  4 27  1  0
  7 28  1  0
 10 29  1  0
 12 30  1  0
 12 31  1  0
 13 32  1  0
 13 33  1  0
 18 34  1  0
 19 35  1  0
 22 36  1  0
 26 37  1  0
 26 38  1  0
M  END
$$$$
