
     RDKit          3D

 55 59  0  0  0  0  0  0  0  0999 V2000
    3.4768    2.0805    1.8625 N   0  0  0  0  0  0  0  0  0  0  0  0
    3.4728    1.4331    0.5822 C   0  0  1  0  0  0  0  0  0  0  0  0
    2.3395    0.3761    0.6038 C   0  0  0  0  0  0  0  0  0  0  0  0
    2.5470   -0.4846   -0.5346 N   0  0  0  0  0  0  0  0  0  0  0  0
    2.6274   -1.8674   -0.4122 C   0  0  0  0  0  0  0  0  0  0  0  0
    3.8768   -2.4859   -0.6033 C   0  0  0  0  0  0  0  0  0  0  0  0
    4.0199   -3.8402   -0.4632 C   0  0  0  0  0  0  0  0  0  0  0  0
    2.9393   -4.5594   -0.1396 N   0  0  0  0  0  0  0  0  0  0  0  0
    1.7198   -3.9686    0.0479 C   0  0  0  0  0  0  0  0  0  0  0  0
    1.5149   -2.6121   -0.0798 C   0  0  0  0  0  0  0  0  0  0  0  0
    0.2849   -1.9588    0.0672 N   0  0  0  0  0  0  0  0  0  0  0  0
   -0.9267   -2.5611    0.4688 C   0  0  0  0  0  0  0  0  0  0  0  0
   -1.1678   -3.8307    0.8002 N   0  0  0  0  0  0  0  0  0  0  0  0
   -2.4485   -4.0302    1.1290 C   0  0  0  0  0  0  0  0  0  0  0  0
   -3.0711   -2.8135    1.0015 C   0  0  0  0  0  0  0  0  0  0  0  0
   -4.3943   -2.3903    1.2034 C   0  0  0  0  0  0  0  0  0  0  0  0
   -4.6397   -1.0553    0.9659 C   0  0  0  0  0  0  0  0  0  0  0  0
   -3.6554   -0.1808    0.5554 C   0  0  0  0  0  0  0  0  0  0  0  0
   -3.9962    1.2300    0.3227 C   0  0  0  0  0  0  0  0  0  0  0  0
   -4.4138    1.6885   -0.9103 C   0  0  0  0  0  0  0  0  0  0  0  0
   -4.5050    0.7982   -1.9238 F   0  0  0  0  0  0  0  0  0  0  0  0
   -4.7430    3.0005   -1.1691 C   0  0  0  0  0  0  0  0  0  0  0  0
   -4.6576    3.9275   -0.1508 C   0  0  0  0  0  0  0  0  0  0  0  0
   -4.2390    3.4899    1.1012 C   0  0  0  0  0  0  0  0  0  0  0  0
   -3.9151    2.1686    1.3328 C   0  0  0  0  0  0  0  0  0  0  0  0
   -3.5175    1.8156    2.5690 F   0  0  0  0  0  0  0  0  0  0  0  0
   -2.4136   -0.6547    0.3827 N   0  0  0  0  0  0  0  0  0  0  0  0
   -2.1368   -1.9417    0.6027 N   0  0  0  0  0  0  0  0  0  0  0  0
    2.6878    0.1733   -1.8124 C   0  0  0  0  0  0  0  0  0  0  0  0
    2.4907    1.6668   -1.6729 C   0  0  1  0  0  0  0  0  0  0  0  0
    1.0700    2.0060   -1.6172 N   0  0  0  0  0  0  0  0  0  0  0  0
    3.2346    2.3225   -0.5769 C   0  0  2  0  0  0  0  0  0  0  0  0
    4.4545    2.8806   -1.0081 O   0  0  0  0  0  0  0  0  0  0  0  0
    4.3148    2.6389    2.0574 H   0  0  0  0  0  0  0  0  0  0  0  0
    3.2523    1.4036    2.6294 H   0  0  0  0  0  0  0  0  0  0  0  0
    4.4139    0.8461    0.4894 H   0  0  0  0  0  0  0  0  0  0  0  0
    1.3745    0.9377    0.5626 H   0  0  0  0  0  0  0  0  0  0  0  0
    2.4080   -0.1029    1.5783 H   0  0  0  0  0  0  0  0  0  0  0  0
    4.7500   -1.8831   -0.8675 H   0  0  0  0  0  0  0  0  0  0  0  0
    5.0034   -4.3058   -0.6162 H   0  0  0  0  0  0  0  0  0  0  0  0
    0.8775   -4.6102    0.3084 H   0  0  0  0  0  0  0  0  0  0  0  0
    0.2540   -0.9322   -0.1510 H   0  0  0  0  0  0  0  0  0  0  0  0
   -2.9388   -4.9563    1.4408 H   0  0  0  0  0  0  0  0  0  0  0  0
   -5.1204   -3.1030    1.5211 H   0  0  0  0  0  0  0  0  0  0  0  0
   -5.6393   -0.6799    1.1064 H   0  0  0  0  0  0  0  0  0  0  0  0
   -5.0696    3.3027   -2.1750 H   0  0  0  0  0  0  0  0  0  0  0  0
   -4.9141    4.9705   -0.3373 H   0  0  0  0  0  0  0  0  0  0  0  0
   -4.1872    4.2505    1.8673 H   0  0  0  0  0  0  0  0  0  0  0  0
    1.9092   -0.2081   -2.4836 H   0  0  0  0  0  0  0  0  0  0  0  0
    3.7147   -0.0117   -2.1608 H   0  0  0  0  0  0  0  0  0  0  0  0
    2.8625    2.1080   -2.6445 H   0  0  0  0  0  0  0  0  0  0  0  0
    0.5569    1.1464   -1.9401 H   0  0  0  0  0  0  0  0  0  0  0  0
    0.8196    2.7532   -2.2974 H   0  0  0  0  0  0  0  0  0  0  0  0
    2.6563    3.2188   -0.2052 H   0  0  0  0  0  0  0  0  0  0  0  0
    4.7863    3.3941   -0.2071 H   0  0  0  0  0  0  0  0  0  0  0  0
  1  2  1  0
  2  3  1  0
  3  4  1  0
  4  5  1  0
  5  6  2  0
  6  7  1  0
  7  8  2  0
  8  9  1  0
  9 10  2  0
 10 11  1  0
 11 12  1  0
 12 13  2  0
 13 14  1  0
 14 15  2  0
 15 16  1  0
 16 17  2  0
 17 18  1  0
 18 19  1  0
 19 20  2  0
 20 21  1  0
 20 22  1  0
 22 23  2  0
 23 24  1  0
 24 25  2  0
 25 26  1  0
 18 27  2  0
 27 28  1  0
  4 29  1  0
 29 30  1  0
 30 31  1  0
 30 32  1  0
 32 33  1  0
 32  2  1  0
 10  5  1  0
 28 12  1  0
 28 15  1  0
 25 19  1  0
  1 34  1  0
  1 35  1  0
  2 36  1  6
  3 37  1  0
  3 38  1  0
  6 39  1  0
  7 40  1  0
  9 41  1  0
 11 42  1  0
 14 43  1  0
 16 44  1  0
 17 45  1  0
 22 46  1  0
 23 47  1  0
 24 48  1  0
 29 49  1  0
 29 50  1  0
 30 51  1  6
 31 52  1  0
 31 53  1  0
 32 54  1  1
 33 55  1  0
M  END
$$$$
