@<TRIPOS>MOLECULE
*****
 55 59 0 0 0
SMALL
GASTEIGER

@<TRIPOS>ATOM
      1 N           3.4768    2.0805    1.8625 N.3     1  UNL1       -0.3239
      2 C           3.4728    1.4331    0.5822 C.3     1  UNL1        0.0485
      3 C           2.3395    0.3761    0.6038 C.3     1  UNL1        0.0299
      4 N           2.5470   -0.4846   -0.5346 N.pl3   1  UNL1       -0.3253
      5 C           2.6274   -1.8674   -0.4122 C.ar    1  UNL1        0.0542
      6 C           3.8768   -2.4859   -0.6033 C.ar    1  UNL1       -0.0207
      7 C           4.0199   -3.8402   -0.4632 C.ar    1  UNL1        0.0294
      8 N           2.9393   -4.5594   -0.1396 N.ar    1  UNL1       -0.2613
      9 C           1.7198   -3.9686    0.0479 C.ar    1  UNL1        0.0506
     10 C           1.5149   -2.6121   -0.0798 C.ar    1  UNL1        0.0732
     11 N           0.2849   -1.9588    0.0672 N.pl3   1  UNL1       -0.2809
     12 C          -0.9267   -2.5611    0.4688 C.ar    1  UNL1        0.2213
     13 N          -1.1678   -3.8307    0.8002 N.ar    1  UNL1       -0.2205
     14 C          -2.4485   -4.0302    1.1290 C.ar    1  UNL1        0.0567
     15 C          -3.0711   -2.8135    1.0015 C.ar    1  UNL1        0.0871
     16 C          -4.3943   -2.3903    1.2034 C.ar    1  UNL1       -0.0326
     17 C          -4.6397   -1.0553    0.9659 C.ar    1  UNL1       -0.0318
     18 C          -3.6554   -0.1808    0.5554 C.ar    1  UNL1        0.0974
     19 C          -3.9962    1.2300    0.3227 C.ar    1  UNL1        0.0723
     20 C          -4.4138    1.6885   -0.9103 C.ar    1  UNL1        0.1354
     21 F          -4.5050    0.7982   -1.9238 F       1  UNL1       -0.2047
     22 C          -4.7430    3.0005   -1.1691 C.ar    1  UNL1       -0.0256
     23 C          -4.6576    3.9275   -0.1508 C.ar    1  UNL1       -0.0563
     24 C          -4.2390    3.4899    1.1012 C.ar    1  UNL1       -0.0256
     25 C          -3.9151    2.1686    1.3328 C.ar    1  UNL1        0.1354
     26 F          -3.5175    1.8156    2.5690 F       1  UNL1       -0.2047
     27 N          -2.4136   -0.6547    0.3827 N.ar    1  UNL1       -0.1633
     28 N          -2.1368   -1.9417    0.6027 N.ar    1  UNL1       -0.1997
     29 C           2.6878    0.1733   -1.8124 C.3     1  UNL1        0.0299
     30 C           2.4907    1.6668   -1.6729 C.3     1  UNL1        0.0485
     31 N           1.0700    2.0060   -1.6172 N.3     1  UNL1       -0.3239
     32 C           3.2346    2.3225   -0.5769 C.3     1  UNL1        0.0883
     33 O           4.4545    2.8806   -1.0081 O.3     1  UNL1       -0.3886
     34 H           4.3148    2.6389    2.0574 H       1  UNL1        0.1186
     35 H           3.2523    1.4036    2.6294 H       1  UNL1        0.1186
     36 H           4.4139    0.8461    0.4894 H       1  UNL1        0.0500
     37 H           1.3745    0.9377    0.5626 H       1  UNL1        0.0480
     38 H           2.4080   -0.1029    1.5783 H       1  UNL1        0.0480
     39 H           4.7500   -1.8831   -0.8675 H       1  UNL1        0.0652
     40 H           5.0034   -4.3058   -0.6162 H       1  UNL1        0.0830
     41 H           0.8775   -4.6102    0.3084 H       1  UNL1        0.0849
     42 H           0.2540   -0.9322   -0.1510 H       1  UNL1        0.1551
     43 H          -2.9388   -4.9563    1.4408 H       1  UNL1        0.0852
     44 H          -5.1204   -3.1030    1.5211 H       1  UNL1        0.0640
     45 H          -5.6393   -0.6799    1.1064 H       1  UNL1        0.0640
     46 H          -5.0696    3.3027   -2.1750 H       1  UNL1        0.0646
     47 H          -4.9141    4.9705   -0.3373 H       1  UNL1        0.0619
     48 H          -4.1872    4.2505    1.8673 H       1  UNL1        0.0646
     49 H           1.9092   -0.2081   -2.4836 H       1  UNL1        0.0480
     50 H           3.7147   -0.0117   -2.1608 H       1  UNL1        0.0480
     51 H           2.8625    2.1080   -2.6445 H       1  UNL1        0.0500
     52 H           0.5569    1.1464   -1.9401 H       1  UNL1        0.1186
     53 H           0.8196    2.7532   -2.2974 H       1  UNL1        0.1186
     54 H           2.6563    3.2188   -0.2052 H       1  UNL1        0.0625
     55 H           4.7863    3.3941   -0.2071 H       1  UNL1        0.2099
@<TRIPOS>BOND
     1     1     2    1
     2     2     3    1
     3     3     4    1
     4     4     5    1
     5     5     6   ar
     6     6     7   ar
     7     7     8   ar
     8     8     9   ar
     9     9    10   ar
    10    10    11    1
    11    11    12    1
    12    12    13   ar
    13    13    14   ar
    14    14    15   ar
    15    15    16   ar
    16    16    17   ar
    17    17    18   ar
    18    18    19    1
    19    19    20   ar
    20    20    21    1
    21    20    22   ar
    22    22    23   ar
    23    23    24   ar
    24    24    25   ar
    25    25    26    1
    26    18    27   ar
    27    27    28   ar
    28     4    29    1
    29    29    30    1
    30    30    31    1
    31    30    32    1
    32    32    33    1
    33    32     2    1
    34    10     5   ar
    35    28    12   ar
    36    28    15   ar
    37    25    19   ar
    38     1    34    1
    39     1    35    1
    40     2    36    1
    41     3    37    1
    42     3    38    1
    43     6    39    1
    44     7    40    1
    45     9    41    1
    46    11    42    1
    47    14    43    1
    48    16    44    1
    49    17    45    1
    50    22    46    1
    51    23    47    1
    52    24    48    1
    53    29    49    1
    54    29    50    1
    55    30    51    1
    56    31    52    1
    57    31    53    1
    58    32    54    1
    59    33    55    1
