@<TRIPOS>MOLECULE
*****
 52 56 0 0 0
SMALL
GASTEIGER

@<TRIPOS>ATOM
      1 O           2.3611    2.0075   -0.9866 O.2     1  UNL1       -0.2526
      2 C           1.7728    0.9035   -0.7927 C.2     1  UNL1        0.3024
      3 N           2.6095   -0.2370   -0.7411 N.am    1  UNL1       -0.2958
      4 C           4.0448   -0.1775   -0.8963 C.3     1  UNL1        0.0320
      5 C           4.5908   -1.2842   -1.7944 C.3     1  UNL1       -0.0254
      6 C           4.9445   -1.1677   -0.2872 C.3     1  UNL1        0.0043
      7 C           6.3470   -0.7802    0.0098 C.ar    1  UNL1       -0.0425
      8 C           7.0384    0.1290   -0.7666 C.ar    1  UNL1       -0.0582
      9 C           8.3422    0.4791   -0.4776 C.ar    1  UNL1       -0.0615
     10 C           9.0105   -0.0645    0.5996 C.ar    1  UNL1       -0.0617
     11 C           8.3275   -0.9736    1.3805 C.ar    1  UNL1       -0.0615
     12 C           7.0160   -1.3237    1.0871 C.ar    1  UNL1       -0.0582
     13 N           0.3611    0.8516   -0.6410 N.am    1  UNL1       -0.2856
     14 C          -0.3522   -0.3681   -0.4210 C.3     1  UNL1        0.0168
     15 C          -1.6425   -0.3296   -1.2282 C.3     1  UNL1       -0.0257
     16 C          -2.5384    0.8086   -0.8211 C.3     1  UNL1        0.0410
     17 C          -3.6095    0.3198    0.0758 C.ar    1  UNL1        0.2309
     18 N          -4.9333    0.3478   -0.1528 N.ar    1  UNL1       -0.1898
     19 C          -5.5884   -0.1952    0.9120 C.ar    1  UNL1        0.2204
     20 C          -7.0332   -0.3557    1.0667 C.ar    1  UNL1        0.1111
     21 C          -7.7333    0.5396    1.8436 C.ar    1  UNL1       -0.0325
     22 C          -9.1138    0.4289    2.0221 C.ar    1  UNL1       -0.0582
     23 C          -9.7617   -0.6005    1.4009 C.ar    1  UNL1       -0.0436
     24 C          -9.0537   -1.4944    0.6236 C.ar    1  UNL1        0.0284
     25 N          -7.7122   -1.3478    0.4783 N.ar    1  UNL1       -0.2517
     26 N          -4.6131   -0.5418    1.7700 N.ar    1  UNL1       -0.0545
     27 O          -3.4728   -0.2285    1.2530 O.2     1  UNL1       -0.3374
     28 C          -1.7923    1.9315   -0.1613 C.3     1  UNL1       -0.0257
     29 C          -0.3921    2.0883   -0.7115 C.3     1  UNL1        0.0168
     30 H           2.1944   -1.1797   -0.5841 H       1  UNL1        0.1505
     31 H           4.4395    0.8406   -1.0599 H       1  UNL1        0.0505
     32 H           3.9381   -2.1122   -2.0772 H       1  UNL1        0.0290
     33 H           5.3957   -0.9734   -2.4882 H       1  UNL1        0.0290
     34 H           4.5017   -1.8937    0.3953 H       1  UNL1        0.0367
     35 H           6.5047    0.5570   -1.6189 H       1  UNL1        0.0620
     36 H           8.8818    1.1914   -1.0870 H       1  UNL1        0.0618
     37 H          10.0382    0.2042    0.8367 H       1  UNL1        0.0618
     38 H           8.8304   -1.4147    2.2322 H       1  UNL1        0.0618
     39 H           6.4821   -2.0472    1.7142 H       1  UNL1        0.0620
     40 H           0.1664   -1.2828   -0.7047 H       1  UNL1        0.0465
     41 H          -0.6778   -0.3678    0.6534 H       1  UNL1        0.0465
     42 H          -1.3401   -0.2631   -2.2961 H       1  UNL1        0.0288
     43 H          -2.1844   -1.3094   -1.1279 H       1  UNL1        0.0288
     44 H          -3.0081    1.2176   -1.7488 H       1  UNL1        0.0397
     45 H          -7.2668    1.3687    2.3543 H       1  UNL1        0.0640
     46 H          -9.6593    1.1457    2.6412 H       1  UNL1        0.0619
     47 H         -10.8382   -0.7468    1.4969 H       1  UNL1        0.0633
     48 H          -9.5590   -2.3180    0.1241 H       1  UNL1        0.0830
     49 H          -1.7054    1.8163    0.9349 H       1  UNL1        0.0288
     50 H          -2.3360    2.8742   -0.3766 H       1  UNL1        0.0288
     51 H          -0.3771    2.4246   -1.7599 H       1  UNL1        0.0465
     52 H           0.1556    2.8269   -0.0977 H       1  UNL1        0.0465
@<TRIPOS>BOND
     1     1     2    2
     2     2     3   am
     3     3     4    1
     4     4     5    1
     5     5     6    1
     6     6     7    1
     7     7     8   ar
     8     8     9   ar
     9     9    10   ar
    10    10    11   ar
    11    11    12   ar
    12     2    13   am
    13    13    14    1
    14    14    15    1
    15    15    16    1
    16    16    17    1
    17    17    18   ar
    18    18    19   ar
    19    19    20    1
    20    20    21   ar
    21    21    22   ar
    22    22    23   ar
    23    23    24   ar
    24    24    25   ar
    25    19    26   ar
    26    26    27   ar
    27    16    28    1
    28    28    29    1
    29     6     4    1
    30    12     7   ar
    31    29    13    1
    32    27    17   ar
    33    25    20   ar
    34     3    30    1
    35     4    31    1
    36     5    32    1
    37     5    33    1
    38     6    34    1
    39     8    35    1
    40     9    36    1
    41    10    37    1
    42    11    38    1
    43    12    39    1
    44    14    40    1
    45    14    41    1
    46    15    42    1
    47    15    43    1
    48    16    44    1
    49    21    45    1
    50    22    46    1
    51    23    47    1
    52    24    48    1
    53    28    49    1
    54    28    50    1
    55    29    51    1
    56    29    52    1
