
     RDKit          3D

 52 56  0  0  0  0  0  0  0  0999 V2000
    2.3611    2.0075   -0.9866 O   0  0  0  0  0  0  0  0  0  0  0  0
    1.7728    0.9035   -0.7927 C   0  0  0  0  0  0  0  0  0  0  0  0
    2.6095   -0.2370   -0.7411 N   0  0  0  0  0  0  0  0  0  0  0  0
    4.0448   -0.1775   -0.8963 C   0  0  2  0  0  0  0  0  0  0  0  0
    4.5908   -1.2842   -1.7944 C   0  0  0  0  0  0  0  0  0  0  0  0
    4.9445   -1.1677   -0.2872 C   0  0  1  0  0  0  0  0  0  0  0  0
    6.3470   -0.7802    0.0098 C   0  0  0  0  0  0  0  0  0  0  0  0
    7.0384    0.1290   -0.7666 C   0  0  0  0  0  0  0  0  0  0  0  0
    8.3422    0.4791   -0.4776 C   0  0  0  0  0  0  0  0  0  0  0  0
    9.0105   -0.0645    0.5996 C   0  0  0  0  0  0  0  0  0  0  0  0
    8.3275   -0.9736    1.3805 C   0  0  0  0  0  0  0  0  0  0  0  0
    7.0160   -1.3237    1.0871 C   0  0  0  0  0  0  0  0  0  0  0  0
    0.3611    0.8516   -0.6410 N   0  0  0  0  0  0  0  0  0  0  0  0
   -0.3522   -0.3681   -0.4210 C   0  0  0  0  0  0  0  0  0  0  0  0
   -1.6425   -0.3296   -1.2282 C   0  0  0  0  0  0  0  0  0  0  0  0
   -2.5384    0.8086   -0.8211 C   0  0  0  0  0  0  0  0  0  0  0  0
   -3.6095    0.3198    0.0758 C   0  0  0  0  0  0  0  0  0  0  0  0
   -4.9333    0.3478   -0.1528 N   0  0  0  0  0  0  0  0  0  0  0  0
   -5.5884   -0.1952    0.9120 C   0  0  0  0  0  0  0  0  0  0  0  0
   -7.0332   -0.3557    1.0667 C   0  0  0  0  0  0  0  0  0  0  0  0
   -7.7333    0.5396    1.8436 C   0  0  0  0  0  0  0  0  0  0  0  0
   -9.1138    0.4289    2.0221 C   0  0  0  0  0  0  0  0  0  0  0  0
   -9.7617   -0.6005    1.4009 C   0  0  0  0  0  0  0  0  0  0  0  0
   -9.0537   -1.4944    0.6236 C   0  0  0  0  0  0  0  0  0  0  0  0
   -7.7122   -1.3478    0.4783 N   0  0  0  0  0  0  0  0  0  0  0  0
   -4.6131   -0.5418    1.7700 N   0  0  0  0  0  0  0  0  0  0  0  0
   -3.4728   -0.2285    1.2530 O   0  0  0  0  0  0  0  0  0  0  0  0
   -1.7923    1.9315   -0.1613 C   0  0  0  0  0  0  0  0  0  0  0  0
   -0.3921    2.0883   -0.7115 C   0  0  0  0  0  0  0  0  0  0  0  0
    2.1944   -1.1797   -0.5841 H   0  0  0  0  0  0  0  0  0  0  0  0
    4.4395    0.8406   -1.0599 H   0  0  0  0  0  0  0  0  0  0  0  0
    3.9381   -2.1122   -2.0772 H   0  0  0  0  0  0  0  0  0  0  0  0
    5.3957   -0.9734   -2.4882 H   0  0  0  0  0  0  0  0  0  0  0  0
    4.5017   -1.8937    0.3953 H   0  0  0  0  0  0  0  0  0  0  0  0
    6.5047    0.5570   -1.6189 H   0  0  0  0  0  0  0  0  0  0  0  0
    8.8818    1.1914   -1.0870 H   0  0  0  0  0  0  0  0  0  0  0  0
   10.0382    0.2042    0.8367 H   0  0  0  0  0  0  0  0  0  0  0  0
    8.8304   -1.4147    2.2322 H   0  0  0  0  0  0  0  0  0  0  0  0
    6.4821   -2.0472    1.7142 H   0  0  0  0  0  0  0  0  0  0  0  0
    0.1664   -1.2828   -0.7047 H   0  0  0  0  0  0  0  0  0  0  0  0
   -0.6778   -0.3678    0.6534 H   0  0  0  0  0  0  0  0  0  0  0  0
   -1.3401   -0.2631   -2.2961 H   0  0  0  0  0  0  0  0  0  0  0  0
   -2.1844   -1.3094   -1.1279 H   0  0  0  0  0  0  0  0  0  0  0  0
   -3.0081    1.2176   -1.7488 H   0  0  0  0  0  0  0  0  0  0  0  0
   -7.2668    1.3687    2.3543 H   0  0  0  0  0  0  0  0  0  0  0  0
   -9.6593    1.1457    2.6412 H   0  0  0  0  0  0  0  0  0  0  0  0
  -10.8382   -0.7468    1.4969 H   0  0  0  0  0  0  0  0  0  0  0  0
   -9.5590   -2.3180    0.1241 H   0  0  0  0  0  0  0  0  0  0  0  0
   -1.7054    1.8163    0.9349 H   0  0  0  0  0  0  0  0  0  0  0  0
   -2.3360    2.8742   -0.3766 H   0  0  0  0  0  0  0  0  0  0  0  0
   -0.3771    2.4246   -1.7599 H   0  0  0  0  0  0  0  0  0  0  0  0
    0.1556    2.8269   -0.0977 H   0  0  0  0  0  0  0  0  0  0  0  0
  1  2  2  0
  2  3  1  0
  3  4  1  0
  4  5  1  0
  5  6  1  0
  6  7  1  0
  7  8  2  0
  8  9  1  0
  9 10  2  0
 10 11  1  0
 11 12  2  0
  2 13  1  0
 13 14  1  0
 14 15  1  0
 15 16  1  0
 16 17  1  0
 17 18  2  0
 18 19  1  0
 19 20  1  0
 20 21  2  0
 21 22  1  0
 22 23  2  0
 23 24  1  0
 24 25  2  0
 19 26  2  0
 26 27  1  0
 16 28  1  0
 28 29  1  0
  6  4  1  0
 12  7  1  0
 29 13  1  0
 27 17  1  0
 25 20  1  0
  3 30  1  0
  4 31  1  6
  5 32  1  0
  5 33  1  0
  6 34  1  1
  8 35  1  0
  9 36  1  0
 10 37  1  0
 11 38  1  0
 12 39  1  0
 14 40  1  0
 14 41  1  0
 15 42  1  0
 15 43  1  0
 16 44  1  0
 21 45  1  0
 22 46  1  0
 23 47  1  0
 24 48  1  0
 28 49  1  0
 28 50  1  0
 29 51  1  0
 29 52  1  0
M  END
$$$$
