@<TRIPOS>MOLECULE
*****
 75 82 0 0 0
SMALL
GASTEIGER

@<TRIPOS>ATOM
      1 C         -11.1875    1.9817   -1.6941 C.3     1  UNL1       -0.0041
      2 C          -9.9994    1.0718   -1.5963 C.ar    1  UNL1        0.1346
      3 N          -9.9126   -0.1970   -2.0157 N.ar    1  UNL1       -0.1340
      4 N          -8.6928   -0.6870   -1.7571 N.ar    1  UNL1       -0.1287
      5 C          -8.0020    0.2937   -1.1645 C.ar    1  UNL1        0.1703
      6 C          -6.7076    0.3170   -0.6996 C.ar    1  UNL1        0.0456
      7 C          -5.8711   -0.7870   -0.7984 C.ar    1  UNL1       -0.0392
      8 C          -4.5823   -0.6860   -0.3113 C.ar    1  UNL1        0.0088
      9 C          -3.6490   -1.8098   -0.3778 C.ar    1  UNL1       -0.0158
     10 C          -3.9284   -3.0253    0.2393 C.ar    1  UNL1       -0.0540
     11 C          -3.0556   -4.0911    0.1853 C.ar    1  UNL1       -0.0612
     12 C          -1.8692   -3.9904   -0.4848 C.ar    1  UNL1       -0.0617
     13 C          -1.5585   -2.8170   -1.1026 C.ar    1  UNL1       -0.0612
     14 C          -2.4448   -1.7374   -1.0469 C.ar    1  UNL1       -0.0540
     15 C          -4.0964    0.4820    0.2730 C.ar    1  UNL1        0.0794
     16 C          -2.7332    0.5855    0.7705 C.ar    1  UNL1        0.0010
     17 C          -1.8904    1.5358    0.2310 C.ar    1  UNL1       -0.0522
     18 C          -0.5764    1.7052    0.6434 C.ar    1  UNL1       -0.0567
     19 C          -0.0697    0.9102    1.6243 C.ar    1  UNL1       -0.0333
     20 C           1.3117    1.0448    2.0819 C.3     1  UNL1        0.0240
     21 N           2.1522    0.1131    1.3900 N.3     1  UNL1       -0.2981
     22 C           2.1975    0.3762   -0.0018 C.3     1  UNL1       -0.0001
     23 C           3.6178    0.1019   -0.5487 C.3     1  UNL1       -0.0304
     24 C           4.4831    1.1276    0.1593 C.3     1  UNL1        0.0212
     25 C           5.8903    1.1174   -0.2864 C.ar    1  UNL1        0.1344
     26 N           6.5295    2.1620   -0.8342 N.ar    1  UNL1       -0.1339
     27 N           7.7608    1.8256   -1.1164 N.ar    1  UNL1       -0.1278
     28 C           7.9278    0.5469   -0.7488 C.ar    1  UNL1        0.1800
     29 C           9.1796   -0.2343   -0.8945 C.ar    1  UNL1        0.1077
     30 C           9.2744   -1.5369   -0.5048 C.ar    1  UNL1       -0.0326
     31 C          10.4841   -2.2024   -0.6776 C.ar    1  UNL1       -0.0582
     32 C          11.5708   -1.5436   -1.2382 C.ar    1  UNL1       -0.0436
     33 C          11.4265   -0.2310   -1.6148 C.ar    1  UNL1        0.0284
     34 N          10.2496    0.3574   -1.4279 N.ar    1  UNL1       -0.2519
     35 N           6.7774    0.0852   -0.2304 N.ar    1  UNL1       -0.3237
     36 C           4.4199    0.9635    1.6489 C.3     1  UNL1       -0.0304
     37 C           3.3930   -0.0297    2.0683 C.3     1  UNL1       -0.0001
     38 C          -0.8822   -0.0504    2.1872 C.ar    1  UNL1       -0.0567
     39 C          -2.1856   -0.1976    1.7582 C.ar    1  UNL1       -0.0522
     40 N          -4.9633    1.5187    0.3382 N.ar    1  UNL1       -0.2459
     41 C          -6.2255    1.4777   -0.1180 C.ar    1  UNL1        0.0766
     42 C          -7.0690    2.5867   -0.0232 C.ar    1  UNL1       -0.0190
     43 C          -8.3601    2.5161   -0.5039 C.ar    1  UNL1        0.0149
     44 N          -8.8000    1.3747   -1.0635 N.ar    1  UNL1       -0.2860
     45 H         -10.7942    2.9545   -2.1048 H       1  UNL1        0.0308
     46 H         -11.6497    2.1439   -0.7101 H       1  UNL1        0.0308
     47 H         -11.8970    1.5976   -2.4596 H       1  UNL1        0.0308
     48 H          -6.2210   -1.7084   -1.2490 H       1  UNL1        0.0632
     49 H          -4.8872   -3.0855    0.7736 H       1  UNL1        0.0624
     50 H          -3.3562   -5.0041    0.6974 H       1  UNL1        0.0618
     51 H          -1.1966   -4.8557   -0.5102 H       1  UNL1        0.0618
     52 H          -0.6241   -2.7173   -1.6388 H       1  UNL1        0.0618
     53 H          -2.1499   -0.8320   -1.5496 H       1  UNL1        0.0624
     54 H          -2.2837    2.1884   -0.5639 H       1  UNL1        0.0624
     55 H           0.0057    2.4824    0.1744 H       1  UNL1        0.0621
     56 H           1.3068    0.8440    3.1946 H       1  UNL1        0.0476
     57 H           1.6922    2.0952    1.9788 H       1  UNL1        0.0476
     58 H           1.4574   -0.2754   -0.5215 H       1  UNL1        0.0427
     59 H           2.0055    1.4226   -0.3108 H       1  UNL1        0.0427
     60 H           3.8483   -0.9239   -0.2716 H       1  UNL1        0.0284
     61 H           3.6044    0.3194   -1.6141 H       1  UNL1        0.0284
     62 H           4.0280    2.1238   -0.0959 H       1  UNL1        0.0380
     63 H           8.4078   -2.0189   -0.0715 H       1  UNL1        0.0640
     64 H          10.5729   -3.2420   -0.3699 H       1  UNL1        0.0619
     65 H          12.4924   -2.1079   -1.3516 H       1  UNL1        0.0633
     66 H          12.2795    0.2891   -2.0554 H       1  UNL1        0.0830
     67 H           6.5842   -0.8630    0.1425 H       1  UNL1        0.1686
     68 H           4.1473    1.9365    2.1435 H       1  UNL1        0.0284
     69 H           5.4149    0.6615    2.0914 H       1  UNL1        0.0284
     70 H           3.1868    0.1434    3.1653 H       1  UNL1        0.0427
     71 H           3.7445   -1.0814    2.0137 H       1  UNL1        0.0427
     72 H          -0.4901   -0.7027    2.9834 H       1  UNL1        0.0621
     73 H          -2.7878   -0.9586    2.2252 H       1  UNL1        0.0624
     74 H          -6.7215    3.5006    0.4228 H       1  UNL1        0.0654
     75 H          -9.0529    3.3494   -0.4507 H       1  UNL1        0.0814
@<TRIPOS>BOND
     1     1     2    1
     2     2     3   ar
     3     3     4   ar
     4     4     5   ar
     5     5     6   ar
     6     6     7   ar
     7     7     8   ar
     8     8     9    1
     9     9    10   ar
    10    10    11   ar
    11    11    12   ar
    12    12    13   ar
    13    13    14   ar
    14     8    15   ar
    15    15    16    1
    16    16    17   ar
    17    17    18   ar
    18    18    19   ar
    19    19    20    1
    20    20    21    1
    21    21    22    1
    22    22    23    1
    23    23    24    1
    24    24    25    1
    25    25    26   ar
    26    26    27   ar
    27    27    28   ar
    28    28    29    1
    29    29    30   ar
    30    30    31   ar
    31    31    32   ar
    32    32    33   ar
    33    33    34   ar
    34    28    35   ar
    35    24    36    1
    36    36    37    1
    37    19    38   ar
    38    38    39   ar
    39    15    40   ar
    40    40    41   ar
    41    41    42   ar
    42    42    43   ar
    43    43    44   ar
    44    44     2   ar
    45    44     5   ar
    46    41     6   ar
    47    14     9   ar
    48    39    16   ar
    49    37    21    1
    50    35    25   ar
    51    34    29   ar
    52     1    45    1
    53     1    46    1
    54     1    47    1
    55     7    48    1
    56    10    49    1
    57    11    50    1
    58    12    51    1
    59    13    52    1
    60    14    53    1
    61    17    54    1
    62    18    55    1
    63    20    56    1
    64    20    57    1
    65    22    58    1
    66    22    59    1
    67    23    60    1
    68    23    61    1
    69    24    62    1
    70    30    63    1
    71    31    64    1
    72    32    65    1
    73    33    66    1
    74    35    67    1
    75    36    68    1
    76    36    69    1
    77    37    70    1
    78    37    71    1
    79    38    72    1
    80    39    73    1
    81    42    74    1
    82    43    75    1
