@<TRIPOS>MOLECULE
*****
 60 59 0 0 0
SMALL
GASTEIGER

@<TRIPOS>ATOM
      1 C           7.1475    1.6471   -1.4059 C.3     1  UNL1       -0.0653
      2 C           7.1556    0.4129   -0.5611 C.3     1  UNL1       -0.0559
      3 C           6.6775   -0.8150   -1.2938 C.3     1  UNL1       -0.0533
      4 C           5.2705   -0.6746   -1.7981 C.3     1  UNL1       -0.0531
      5 C           4.2854   -0.4318   -0.6492 C.3     1  UNL1       -0.0531
      6 C           2.8936   -0.2949   -1.1745 C.3     1  UNL1       -0.0531
      7 C           1.9105   -0.0084   -0.0438 C.3     1  UNL1       -0.0531
      8 C           1.8571   -1.0791    0.9570 C.3     1  UNL1       -0.0531
      9 C           1.0058   -0.9002    2.1404 C.3     1  UNL1       -0.0529
     10 C          -0.4453   -0.6698    2.0621 C.3     1  UNL1       -0.0483
     11 C          -0.9303    0.6020    1.4804 C.3     1  UNL1       -0.0125
     12 C          -2.4343    0.7544    1.4338 C.3     1  UNL1       -0.0306
     13 N          -3.1582   -0.2360    0.6807 N.4     1  UNL1        0.2391
     14 C          -2.3963   -0.7371   -0.4750 C.3     1  UNL1       -0.0415
     15 C          -3.5049   -1.3450    1.5116 C.3     1  UNL1       -0.0415
     16 C          -4.3077    0.4685    0.1192 C.3     1  UNL1       -0.0290
     17 C          -5.6265    0.0575    0.6549 C.3     1  UNL1        0.0093
     18 C          -6.7771    0.8410    0.1022 C.3     1  UNL1        0.0974
     19 S          -6.9493    0.7079   -1.6421 S.O2    1  UNL1        0.0799
     20 O          -5.6215    1.2905   -2.4636 O.3     1  UNL1       -0.2539
     21 O          -7.0180   -0.7817   -1.9546 O.2     1  UNL1       -0.1474
     22 O          -8.2203    1.3843   -2.0877 O.2     1  UNL1       -0.1474
     23 H           6.8286    1.4745   -2.4462 H       1  UNL1        0.0230
     24 H           8.1244    2.1761   -1.4387 H       1  UNL1        0.0230
     25 H           6.4296    2.3797   -0.9415 H       1  UNL1        0.0230
     26 H           8.2124    0.2082   -0.2618 H       1  UNL1        0.0263
     27 H           6.6081    0.5673    0.3883 H       1  UNL1        0.0263
     28 H           7.3249   -0.9308   -2.1851 H       1  UNL1        0.0265
     29 H           6.7860   -1.6760   -0.6291 H       1  UNL1        0.0265
     30 H           5.1644    0.1300   -2.5256 H       1  UNL1        0.0265
     31 H           4.9831   -1.6322   -2.2775 H       1  UNL1        0.0265
     32 H           4.3673   -1.2679    0.0810 H       1  UNL1        0.0265
     33 H           4.5615    0.5009   -0.1196 H       1  UNL1        0.0265
     34 H           2.5749   -1.1729   -1.7644 H       1  UNL1        0.0265
     35 H           2.8597    0.5592   -1.9103 H       1  UNL1        0.0265
     36 H           2.0452    0.9757    0.4136 H       1  UNL1        0.0265
     37 H           0.9309    0.0582   -0.6387 H       1  UNL1        0.0265
     38 H           2.9420   -1.2557    1.2951 H       1  UNL1        0.0265
     39 H           1.6512   -2.0853    0.4379 H       1  UNL1        0.0265
     40 H           1.1063   -1.8902    2.7366 H       1  UNL1        0.0265
     41 H           1.4956   -0.1662    2.8717 H       1  UNL1        0.0265
     42 H          -0.8529   -1.5753    1.4854 H       1  UNL1        0.0267
     43 H          -0.8242   -0.7834    3.1387 H       1  UNL1        0.0267
     44 H          -0.6533    1.3836    2.3141 H       1  UNL1        0.0317
     45 H          -0.4433    1.0167    0.6296 H       1  UNL1        0.0317
     46 H          -2.6321    1.7445    0.9765 H       1  UNL1        0.0815
     47 H          -2.8202    0.8066    2.4771 H       1  UNL1        0.0815
     48 H          -2.9402   -0.5419   -1.4352 H       1  UNL1        0.0778
     49 H          -1.4010   -0.3042   -0.4668 H       1  UNL1        0.0778
     50 H          -2.3065   -1.8504   -0.3915 H       1  UNL1        0.0778
     51 H          -3.0989   -2.2805    1.0631 H       1  UNL1        0.0778
     52 H          -3.0791   -1.1695    2.5292 H       1  UNL1        0.0778
     53 H          -4.5576   -1.5181    1.6600 H       1  UNL1        0.0778
     54 H          -4.1508    1.5827    0.1736 H       1  UNL1        0.0815
     55 H          -4.3342    0.2509   -0.9870 H       1  UNL1        0.0815
     56 H          -5.6016    0.1554    1.7648 H       1  UNL1        0.0333
     57 H          -5.8160   -0.9972    0.3113 H       1  UNL1        0.0333
     58 H          -7.7332    0.4412    0.5440 H       1  UNL1        0.0527
     59 H          -6.7546    1.9048    0.4329 H       1  UNL1        0.0527
     60 H          -5.8100    2.1517   -2.8984 H       1  UNL1        0.2445
@<TRIPOS>UNITY_ATOM_ATTR
13 1
charge 1
@<TRIPOS>BOND
     1     1     2    1
     2     2     3    1
     3     3     4    1
     4     4     5    1
     5     5     6    1
     6     6     7    1
     7     7     8    1
     8     8     9    1
     9     9    10    1
    10    10    11    1
    11    11    12    1
    12    12    13    1
    13    13    14    1
    14    13    15    1
    15    13    16    1
    16    16    17    1
    17    17    18    1
    18    18    19    1
    19    19    20    1
    20    19    21    2
    21    19    22    2
    22     1    23    1
    23     1    24    1
    24     1    25    1
    25     2    26    1
    26     2    27    1
    27     3    28    1
    28     3    29    1
    29     4    30    1
    30     4    31    1
    31     5    32    1
    32     5    33    1
    33     6    34    1
    34     6    35    1
    35     7    36    1
    36     7    37    1
    37     8    38    1
    38     8    39    1
    39     9    40    1
    40     9    41    1
    41    10    42    1
    42    10    43    1
    43    11    44    1
    44    11    45    1
    45    12    46    1
    46    12    47    1
    47    14    48    1
    48    14    49    1
    49    14    50    1
    50    15    51    1
    51    15    52    1
    52    15    53    1
    53    16    54    1
    54    16    55    1
    55    17    56    1
    56    17    57    1
    57    18    58    1
    58    18    59    1
    59    20    60    1
