
     RDKit          3D

 60 59  0  0  0  0  0  0  0  0999 V2000
    7.1475    1.6471   -1.4059 C   0  0  0  0  0  0  0  0  0  0  0  0
    7.1556    0.4129   -0.5611 C   0  0  0  0  0  0  0  0  0  0  0  0
    6.6775   -0.8150   -1.2938 C   0  0  0  0  0  0  0  0  0  0  0  0
    5.2705   -0.6746   -1.7981 C   0  0  0  0  0  0  0  0  0  0  0  0
    4.2854   -0.4318   -0.6492 C   0  0  0  0  0  0  0  0  0  0  0  0
    2.8936   -0.2949   -1.1745 C   0  0  0  0  0  0  0  0  0  0  0  0
    1.9105   -0.0084   -0.0438 C   0  0  0  0  0  0  0  0  0  0  0  0
    1.8571   -1.0791    0.9570 C   0  0  0  0  0  0  0  0  0  0  0  0
    1.0058   -0.9002    2.1404 C   0  0  0  0  0  0  0  0  0  0  0  0
   -0.4453   -0.6698    2.0621 C   0  0  0  0  0  0  0  0  0  0  0  0
   -0.9303    0.6020    1.4804 C   0  0  0  0  0  0  0  0  0  0  0  0
   -2.4343    0.7544    1.4338 C   0  0  0  0  0  0  0  0  0  0  0  0
   -3.1582   -0.2360    0.6807 N   0  0  0  0  0  4  0  0  0  0  0  0
   -2.3963   -0.7371   -0.4750 C   0  0  0  0  0  0  0  0  0  0  0  0
   -3.5049   -1.3450    1.5116 C   0  0  0  0  0  0  0  0  0  0  0  0
   -4.3077    0.4685    0.1192 C   0  0  0  0  0  0  0  0  0  0  0  0
   -5.6265    0.0575    0.6549 C   0  0  0  0  0  0  0  0  0  0  0  0
   -6.7771    0.8410    0.1022 C   0  0  0  0  0  0  0  0  0  0  0  0
   -6.9493    0.7079   -1.6421 S   0  0  0  0  0  0  0  0  0  0  0  0
   -5.6215    1.2905   -2.4636 O   0  0  0  0  0  0  0  0  0  0  0  0
   -7.0180   -0.7817   -1.9546 O   0  0  0  0  0  0  0  0  0  0  0  0
   -8.2203    1.3843   -2.0877 O   0  0  0  0  0  0  0  0  0  0  0  0
    6.8286    1.4745   -2.4462 H   0  0  0  0  0  0  0  0  0  0  0  0
    8.1244    2.1761   -1.4387 H   0  0  0  0  0  0  0  0  0  0  0  0
    6.4296    2.3797   -0.9415 H   0  0  0  0  0  0  0  0  0  0  0  0
    8.2124    0.2082   -0.2618 H   0  0  0  0  0  0  0  0  0  0  0  0
    6.6081    0.5673    0.3883 H   0  0  0  0  0  0  0  0  0  0  0  0
    7.3249   -0.9308   -2.1851 H   0  0  0  0  0  0  0  0  0  0  0  0
    6.7860   -1.6760   -0.6291 H   0  0  0  0  0  0  0  0  0  0  0  0
    5.1644    0.1300   -2.5256 H   0  0  0  0  0  0  0  0  0  0  0  0
    4.9831   -1.6322   -2.2775 H   0  0  0  0  0  0  0  0  0  0  0  0
    4.3673   -1.2679    0.0810 H   0  0  0  0  0  0  0  0  0  0  0  0
    4.5615    0.5009   -0.1196 H   0  0  0  0  0  0  0  0  0  0  0  0
    2.5749   -1.1729   -1.7644 H   0  0  0  0  0  0  0  0  0  0  0  0
    2.8597    0.5592   -1.9103 H   0  0  0  0  0  0  0  0  0  0  0  0
    2.0452    0.9757    0.4136 H   0  0  0  0  0  0  0  0  0  0  0  0
    0.9309    0.0582   -0.6387 H   0  0  0  0  0  0  0  0  0  0  0  0
    2.9420   -1.2557    1.2951 H   0  0  0  0  0  0  0  0  0  0  0  0
    1.6512   -2.0853    0.4379 H   0  0  0  0  0  0  0  0  0  0  0  0
    1.1063   -1.8902    2.7366 H   0  0  0  0  0  0  0  0  0  0  0  0
    1.4956   -0.1662    2.8717 H   0  0  0  0  0  0  0  0  0  0  0  0
   -0.8529   -1.5753    1.4854 H   0  0  0  0  0  0  0  0  0  0  0  0
   -0.8242   -0.7834    3.1387 H   0  0  0  0  0  0  0  0  0  0  0  0
   -0.6533    1.3836    2.3141 H   0  0  0  0  0  0  0  0  0  0  0  0
   -0.4433    1.0167    0.6296 H   0  0  0  0  0  0  0  0  0  0  0  0
   -2.6321    1.7445    0.9765 H   0  0  0  0  0  0  0  0  0  0  0  0
   -2.8202    0.8066    2.4771 H   0  0  0  0  0  0  0  0  0  0  0  0
   -2.9402   -0.5419   -1.4352 H   0  0  0  0  0  0  0  0  0  0  0  0
   -1.4010   -0.3042   -0.4668 H   0  0  0  0  0  0  0  0  0  0  0  0
   -2.3065   -1.8504   -0.3915 H   0  0  0  0  0  0  0  0  0  0  0  0
   -3.0989   -2.2805    1.0631 H   0  0  0  0  0  0  0  0  0  0  0  0
   -3.0791   -1.1695    2.5292 H   0  0  0  0  0  0  0  0  0  0  0  0
   -4.5576   -1.5181    1.6600 H   0  0  0  0  0  0  0  0  0  0  0  0
   -4.1508    1.5827    0.1736 H   0  0  0  0  0  0  0  0  0  0  0  0
   -4.3342    0.2509   -0.9870 H   0  0  0  0  0  0  0  0  0  0  0  0
   -5.6016    0.1554    1.7648 H   0  0  0  0  0  0  0  0  0  0  0  0
   -5.8160   -0.9972    0.3113 H   0  0  0  0  0  0  0  0  0  0  0  0
   -7.7332    0.4412    0.5440 H   0  0  0  0  0  0  0  0  0  0  0  0
   -6.7546    1.9048    0.4329 H   0  0  0  0  0  0  0  0  0  0  0  0
   -5.8100    2.1517   -2.8984 H   0  0  0  0  0  0  0  0  0  0  0  0
  1  2  1  0
  2  3  1  0
  3  4  1  0
  4  5  1  0
  5  6  1  0
  6  7  1  0
  7  8  1  0
  8  9  1  0
  9 10  1  0
 10 11  1  0
 11 12  1  0
 12 13  1  0
 13 14  1  0
 13 15  1  0
 13 16  1  0
 16 17  1  0
 17 18  1  0
 18 19  1  0
 19 20  1  0
 19 21  2  0
 19 22  2  0
  1 23  1  0
  1 24  1  0
  1 25  1  0
  2 26  1  0
  2 27  1  0
  3 28  1  0
  3 29  1  0
  4 30  1  0
  4 31  1  0
  5 32  1  0
  5 33  1  0
  6 34  1  0
  6 35  1  0
  7 36  1  0
  7 37  1  0
  8 38  1  0
  8 39  1  0
  9 40  1  0
  9 41  1  0
 10 42  1  0
 10 43  1  0
 11 44  1  0
 11 45  1  0
 12 46  1  0
 12 47  1  0
 14 48  1  0
 14 49  1  0
 14 50  1  0
 15 51  1  0
 15 52  1  0
 15 53  1  0
 16 54  1  0
 16 55  1  0
 17 56  1  0
 17 57  1  0
 18 58  1  0
 18 59  1  0
 20 60  1  0
M  CHG  1  13   1
M  END
$$$$
