@<TRIPOS>MOLECULE
*****
 67 72 0 0 0
SMALL
GASTEIGER

@<TRIPOS>ATOM
      1 C          -5.1578    3.2364    0.0844 C.3     1  UNL1       -0.0380
      2 C          -5.7953    2.0612    0.7248 C.ar    1  UNL1       -0.0279
      3 C          -6.7312    2.2291    1.7514 C.ar    1  UNL1       -0.0557
      4 C          -7.2802    1.1139    2.2995 C.ar    1  UNL1       -0.0433
      5 C          -6.9230   -0.1301    1.8549 C.ar    1  UNL1        0.0279
      6 N          -6.0190   -0.2529    0.8652 N.ar    1  UNL1       -0.2583
      7 C          -5.4404    0.8089    0.2823 C.ar    1  UNL1        0.0581
      8 C          -4.4693    0.6157   -0.7880 C.3     1  UNL1        0.0415
      9 N          -3.0990    0.8112   -0.4153 N.3     1  UNL1       -0.2965
     10 C          -2.2996    0.5607   -1.6231 C.3     1  UNL1        0.0017
     11 C          -1.7402   -0.8601   -1.5613 C.3     1  UNL1       -0.0095
     12 C          -0.6705   -0.8564   -0.5195 C.3     1  UNL1        0.1240
     13 C          -1.1511   -0.1143    0.6801 C.3     1  UNL1       -0.0095
     14 C          -2.6617    0.0345    0.7056 C.3     1  UNL1        0.0017
     15 C           0.5518   -0.2490   -1.1458 C.2     1  UNL1        0.2516
     16 O           0.6329    0.5096   -2.1267 O.2     1  UNL1       -0.2724
     17 N           1.6170   -0.7441   -0.3551 N.am    1  UNL1       -0.1920
     18 C           2.8931   -0.0996   -0.1792 C.ar    1  UNL1        0.0455
     19 C           3.1409    1.1281   -0.7504 C.ar    1  UNL1       -0.0392
     20 C           4.3703    1.7867   -0.6124 C.ar    1  UNL1       -0.0523
     21 C           5.3858    1.2136    0.1129 C.ar    1  UNL1       -0.0178
     22 C           6.6531    1.8840    0.2591 C.ar    1  UNL1       -0.0179
     23 C           7.1721    2.7033   -0.7282 C.ar    1  UNL1       -0.0540
     24 C           8.3857    3.3442   -0.5856 C.ar    1  UNL1       -0.0612
     25 C           9.1370    3.1909    0.5604 C.ar    1  UNL1       -0.0617
     26 C           8.6212    2.3724    1.5503 C.ar    1  UNL1       -0.0612
     27 C           7.4079    1.7313    1.4082 C.ar    1  UNL1       -0.0540
     28 C           5.1329   -0.0028    0.6762 C.ar    1  UNL1       -0.0523
     29 C           3.9106   -0.6633    0.5418 C.ar    1  UNL1       -0.0392
     30 C           1.1965   -1.9870    0.2494 C.2     1  UNL1        0.3219
     31 O           1.8326   -2.7448    1.0153 O.2     1  UNL1       -0.2512
     32 N          -0.1432   -2.1789   -0.2246 N.am    1  UNL1       -0.2240
     33 C          -0.7430   -3.4607   -0.3436 C.ar    1  UNL1        0.1364
     34 C          -0.6512   -4.1994   -1.5029 C.ar    1  UNL1        0.0432
     35 C          -1.2286   -5.4375   -1.6213 C.ar    1  UNL1        0.2531
     36 O          -1.1774   -6.1522   -2.6490 O.2     1  UNL1       -0.2678
     37 N          -1.8991   -5.9293   -0.5678 N.ar    1  UNL1       -0.3133
     38 C          -2.0017   -5.2330    0.5651 C.ar    1  UNL1        0.0981
     39 N          -1.4365   -4.0271    0.6735 N.ar    1  UNL1       -0.2220
     40 H          -5.2460    3.2270   -1.0088 H       1  UNL1        0.0278
     41 H          -5.6517    4.1724    0.4441 H       1  UNL1        0.0278
     42 H          -4.0852    3.3467    0.3939 H       1  UNL1        0.0278
     43 H          -7.0081    3.2116    2.0968 H       1  UNL1        0.0621
     44 H          -8.0068    1.1675    3.0935 H       1  UNL1        0.0633
     45 H          -7.3397   -1.0375    2.2673 H       1  UNL1        0.0829
     46 H          -4.5311   -0.4133   -1.2461 H       1  UNL1        0.0491
     47 H          -4.6481    1.2993   -1.6689 H       1  UNL1        0.0491
     48 H          -2.9057    0.6888   -2.5431 H       1  UNL1        0.0427
     49 H          -1.5128    1.3149   -1.6335 H       1  UNL1        0.0427
     50 H          -1.3559   -1.1106   -2.5701 H       1  UNL1        0.0303
     51 H          -2.5697   -1.5060   -1.2333 H       1  UNL1        0.0303
     52 H          -0.7044    0.8828    0.7758 H       1  UNL1        0.0303
     53 H          -0.8795   -0.6954    1.5902 H       1  UNL1        0.0303
     54 H          -3.1752   -0.9360    0.8174 H       1  UNL1        0.0427
     55 H          -2.8988    0.6187    1.6291 H       1  UNL1        0.0427
     56 H           2.3867    1.6503   -1.3356 H       1  UNL1        0.0636
     57 H           4.5074    2.7454   -1.0809 H       1  UNL1        0.0624
     58 H           6.5842    2.8326   -1.6436 H       1  UNL1        0.0624
     59 H           8.7402    3.9666   -1.3817 H       1  UNL1        0.0618
     60 H          10.0986    3.6903    0.6901 H       1  UNL1        0.0618
     61 H           9.2094    2.2510    2.4505 H       1  UNL1        0.0618
     62 H           7.0098    1.0920    2.1871 H       1  UNL1        0.0624
     63 H           5.8827   -0.5146    1.2602 H       1  UNL1        0.0624
     64 H           3.7841   -1.6278    1.0168 H       1  UNL1        0.0636
     65 H          -0.1140   -3.8138   -2.3578 H       1  UNL1        0.0706
     66 H          -2.3535   -6.8827   -0.6348 H       1  UNL1        0.1698
     67 H          -2.5393   -5.6333    1.4032 H       1  UNL1        0.1028
@<TRIPOS>BOND
     1     1     2    1
     2     2     3   ar
     3     3     4   ar
     4     4     5   ar
     5     5     6   ar
     6     6     7   ar
     7     7     8    1
     8     8     9    1
     9     9    10    1
    10    10    11    1
    11    11    12    1
    12    12    13    1
    13    13    14    1
    14    12    15    1
    15    15    16    2
    16    15    17   am
    17    17    18    1
    18    18    19   ar
    19    19    20   ar
    20    20    21   ar
    21    21    22    1
    22    22    23   ar
    23    23    24   ar
    24    24    25   ar
    25    25    26   ar
    26    26    27   ar
    27    21    28   ar
    28    28    29   ar
    29    17    30   am
    30    30    31    2
    31    30    32   am
    32    32    33    1
    33    33    34   ar
    34    34    35   ar
    35    35    36    2
    36    35    37   ar
    37    37    38   ar
    38    38    39   ar
    39     7     2   ar
    40    14     9    1
    41    29    18   ar
    42    39    33   ar
    43    32    12    1
    44    27    22   ar
    45     1    40    1
    46     1    41    1
    47     1    42    1
    48     3    43    1
    49     4    44    1
    50     5    45    1
    51     8    46    1
    52     8    47    1
    53    10    48    1
    54    10    49    1
    55    11    50    1
    56    11    51    1
    57    13    52    1
    58    13    53    1
    59    14    54    1
    60    14    55    1
    61    19    56    1
    62    20    57    1
    63    23    58    1
    64    24    59    1
    65    25    60    1
    66    26    61    1
    67    27    62    1
    68    28    63    1
    69    29    64    1
    70    34    65    1
    71    37    66    1
    72    38    67    1
