
     RDKit          3D

 67 72  0  0  0  0  0  0  0  0999 V2000
   -5.1578    3.2364    0.0844 C   0  0  0  0  0  0  0  0  0  0  0  0
   -5.7953    2.0612    0.7248 C   0  0  0  0  0  0  0  0  0  0  0  0
   -6.7312    2.2291    1.7514 C   0  0  0  0  0  0  0  0  0  0  0  0
   -7.2802    1.1139    2.2995 C   0  0  0  0  0  0  0  0  0  0  0  0
   -6.9230   -0.1301    1.8549 C   0  0  0  0  0  0  0  0  0  0  0  0
   -6.0190   -0.2529    0.8652 N   0  0  0  0  0  0  0  0  0  0  0  0
   -5.4404    0.8089    0.2823 C   0  0  0  0  0  0  0  0  0  0  0  0
   -4.4693    0.6157   -0.7880 C   0  0  0  0  0  0  0  0  0  0  0  0
   -3.0990    0.8112   -0.4153 N   0  0  0  0  0  0  0  0  0  0  0  0
   -2.2996    0.5607   -1.6231 C   0  0  0  0  0  0  0  0  0  0  0  0
   -1.7402   -0.8601   -1.5613 C   0  0  0  0  0  0  0  0  0  0  0  0
   -0.6705   -0.8564   -0.5195 C   0  0  0  0  0  0  0  0  0  0  0  0
   -1.1511   -0.1143    0.6801 C   0  0  0  0  0  0  0  0  0  0  0  0
   -2.6617    0.0345    0.7056 C   0  0  0  0  0  0  0  0  0  0  0  0
    0.5518   -0.2490   -1.1458 C   0  0  0  0  0  0  0  0  0  0  0  0
    0.6329    0.5096   -2.1267 O   0  0  0  0  0  0  0  0  0  0  0  0
    1.6170   -0.7441   -0.3551 N   0  0  0  0  0  0  0  0  0  0  0  0
    2.8931   -0.0996   -0.1792 C   0  0  0  0  0  0  0  0  0  0  0  0
    3.1409    1.1281   -0.7504 C   0  0  0  0  0  0  0  0  0  0  0  0
    4.3703    1.7867   -0.6124 C   0  0  0  0  0  0  0  0  0  0  0  0
    5.3858    1.2136    0.1129 C   0  0  0  0  0  0  0  0  0  0  0  0
    6.6531    1.8840    0.2591 C   0  0  0  0  0  0  0  0  0  0  0  0
    7.1721    2.7033   -0.7282 C   0  0  0  0  0  0  0  0  0  0  0  0
    8.3857    3.3442   -0.5856 C   0  0  0  0  0  0  0  0  0  0  0  0
    9.1370    3.1909    0.5604 C   0  0  0  0  0  0  0  0  0  0  0  0
    8.6212    2.3724    1.5503 C   0  0  0  0  0  0  0  0  0  0  0  0
    7.4079    1.7313    1.4082 C   0  0  0  0  0  0  0  0  0  0  0  0
    5.1329   -0.0028    0.6762 C   0  0  0  0  0  0  0  0  0  0  0  0
    3.9106   -0.6633    0.5418 C   0  0  0  0  0  0  0  0  0  0  0  0
    1.1965   -1.9870    0.2494 C   0  0  0  0  0  0  0  0  0  0  0  0
    1.8326   -2.7448    1.0153 O   0  0  0  0  0  0  0  0  0  0  0  0
   -0.1432   -2.1789   -0.2246 N   0  0  0  0  0  0  0  0  0  0  0  0
   -0.7430   -3.4607   -0.3436 C   0  0  0  0  0  0  0  0  0  0  0  0
   -0.6512   -4.1994   -1.5029 C   0  0  0  0  0  0  0  0  0  0  0  0
   -1.2286   -5.4375   -1.6213 C   0  0  0  0  0  0  0  0  0  0  0  0
   -1.1774   -6.1522   -2.6490 O   0  0  0  0  0  0  0  0  0  0  0  0
   -1.8991   -5.9293   -0.5678 N   0  0  0  0  0  0  0  0  0  0  0  0
   -2.0017   -5.2330    0.5651 C   0  0  0  0  0  0  0  0  0  0  0  0
   -1.4365   -4.0271    0.6735 N   0  0  0  0  0  0  0  0  0  0  0  0
   -5.2460    3.2270   -1.0088 H   0  0  0  0  0  0  0  0  0  0  0  0
   -5.6517    4.1724    0.4441 H   0  0  0  0  0  0  0  0  0  0  0  0
   -4.0852    3.3467    0.3939 H   0  0  0  0  0  0  0  0  0  0  0  0
   -7.0081    3.2116    2.0968 H   0  0  0  0  0  0  0  0  0  0  0  0
   -8.0068    1.1675    3.0935 H   0  0  0  0  0  0  0  0  0  0  0  0
   -7.3397   -1.0375    2.2673 H   0  0  0  0  0  0  0  0  0  0  0  0
   -4.5311   -0.4133   -1.2461 H   0  0  0  0  0  0  0  0  0  0  0  0
   -4.6481    1.2993   -1.6689 H   0  0  0  0  0  0  0  0  0  0  0  0
   -2.9057    0.6888   -2.5431 H   0  0  0  0  0  0  0  0  0  0  0  0
   -1.5128    1.3149   -1.6335 H   0  0  0  0  0  0  0  0  0  0  0  0
   -1.3559   -1.1106   -2.5701 H   0  0  0  0  0  0  0  0  0  0  0  0
   -2.5697   -1.5060   -1.2333 H   0  0  0  0  0  0  0  0  0  0  0  0
   -0.7044    0.8828    0.7758 H   0  0  0  0  0  0  0  0  0  0  0  0
   -0.8795   -0.6954    1.5902 H   0  0  0  0  0  0  0  0  0  0  0  0
   -3.1752   -0.9360    0.8174 H   0  0  0  0  0  0  0  0  0  0  0  0
   -2.8988    0.6187    1.6291 H   0  0  0  0  0  0  0  0  0  0  0  0
    2.3867    1.6503   -1.3356 H   0  0  0  0  0  0  0  0  0  0  0  0
    4.5074    2.7454   -1.0809 H   0  0  0  0  0  0  0  0  0  0  0  0
    6.5842    2.8326   -1.6436 H   0  0  0  0  0  0  0  0  0  0  0  0
    8.7402    3.9666   -1.3817 H   0  0  0  0  0  0  0  0  0  0  0  0
   10.0986    3.6903    0.6901 H   0  0  0  0  0  0  0  0  0  0  0  0
    9.2094    2.2510    2.4505 H   0  0  0  0  0  0  0  0  0  0  0  0
    7.0098    1.0920    2.1871 H   0  0  0  0  0  0  0  0  0  0  0  0
    5.8827   -0.5146    1.2602 H   0  0  0  0  0  0  0  0  0  0  0  0
    3.7841   -1.6278    1.0168 H   0  0  0  0  0  0  0  0  0  0  0  0
   -0.1140   -3.8138   -2.3578 H   0  0  0  0  0  0  0  0  0  0  0  0
   -2.3535   -6.8827   -0.6348 H   0  0  0  0  0  0  0  0  0  0  0  0
   -2.5393   -5.6333    1.4032 H   0  0  0  0  0  0  0  0  0  0  0  0
  1  2  1  0
  2  3  2  0
  3  4  1  0
  4  5  2  0
  5  6  1  0
  6  7  2  0
  7  8  1  0
  8  9  1  0
  9 10  1  0
 10 11  1  0
 11 12  1  0
 12 13  1  0
 13 14  1  0
 12 15  1  0
 15 16  2  0
 15 17  1  0
 17 18  1  0
 18 19  2  0
 19 20  1  0
 20 21  2  0
 21 22  1  0
 22 23  2  0
 23 24  1  0
 24 25  2  0
 25 26  1  0
 26 27  2  0
 21 28  1  0
 28 29  2  0
 17 30  1  0
 30 31  2  0
 30 32  1  0
 32 33  1  0
 33 34  2  0
 34 35  1  0
 35 36  2  0
 35 37  1  0
 37 38  1  0
 38 39  2  0
  7  2  1  0
 14  9  1  0
 29 18  1  0
 39 33  1  0
 32 12  1  0
 27 22  1  0
  1 40  1  0
  1 41  1  0
  1 42  1  0
  3 43  1  0
  4 44  1  0
  5 45  1  0
  8 46  1  0
  8 47  1  0
 10 48  1  0
 10 49  1  0
 11 50  1  0
 11 51  1  0
 13 52  1  0
 13 53  1  0
 14 54  1  0
 14 55  1  0
 19 56  1  0
 20 57  1  0
 23 58  1  0
 24 59  1  0
 25 60  1  0
 26 61  1  0
 27 62  1  0
 28 63  1  0
 29 64  1  0
 34 65  1  0
 37 66  1  0
 38 67  1  0
M  END
$$$$
