@<TRIPOS>MOLECULE
*****
 45 48 0 0 0
SMALL
GASTEIGER

@<TRIPOS>ATOM
      1 C           4.8000    1.5008   -0.5887 C.3     1  UNL1       -0.0128
      2 N           3.7814    0.4801   -0.5546 N.3     1  UNL1       -0.3051
      3 C           4.1354   -0.6454    0.2578 C.3     1  UNL1       -0.0014
      4 C           3.1334   -1.7259    0.0586 C.3     1  UNL1       -0.0399
      5 C           1.7441   -1.2070   -0.3503 C.3     1  UNL1       -0.0479
      6 C           1.4947    0.0650    0.3206 C.3     1  UNL1       -0.0274
      7 C           0.2161    0.7790    0.2496 C.3     1  UNL1       -0.0381
      8 C          -1.0374    0.1872    0.6910 C.3     1  UNL1        0.0116
      9 C          -2.1988    1.1643    0.6516 C.ar    1  UNL1       -0.0262
     10 C          -2.2496    2.3748   -0.0082 C.ar    1  UNL1       -0.0569
     11 C          -3.3883    3.1367    0.1345 C.ar    1  UNL1       -0.0614
     12 C          -4.4543    2.7232    0.9062 C.ar    1  UNL1       -0.0607
     13 C          -4.4436    1.5313    1.5744 C.ar    1  UNL1       -0.0477
     14 C          -3.3150    0.7681    1.4363 C.ar    1  UNL1        0.0165
     15 S          -3.0375   -0.9161    2.1579 S.3     1  UNL1       -0.0889
     16 C          -2.5377   -1.7615    0.5931 C.ar    1  UNL1        0.0165
     17 C          -3.1602   -2.8993    0.1536 C.ar    1  UNL1       -0.0477
     18 C          -2.7793   -3.3169   -1.0962 C.ar    1  UNL1       -0.0607
     19 C          -1.8437   -2.6308   -1.8337 C.ar    1  UNL1       -0.0614
     20 C          -1.2624   -1.4974   -1.3225 C.ar    1  UNL1       -0.0569
     21 C          -1.5635   -0.9821   -0.0719 C.ar    1  UNL1       -0.0262
     22 C           2.5549    1.0833   -0.1791 C.3     1  UNL1        0.0015
     23 H           5.7077    1.0445   -1.0340 H       1  UNL1        0.0391
     24 H           4.4700    2.2623   -1.3423 H       1  UNL1        0.0391
     25 H           4.9615    2.0292    0.3537 H       1  UNL1        0.0391
     26 H           4.2378   -0.3696    1.3332 H       1  UNL1        0.0426
     27 H           5.1257   -1.0020   -0.0932 H       1  UNL1        0.0426
     28 H           3.0797   -2.3200    1.0066 H       1  UNL1        0.0278
     29 H           3.5115   -2.4428   -0.7000 H       1  UNL1        0.0278
     30 H           1.7440   -1.2473   -1.4371 H       1  UNL1        0.0269
     31 H           1.0704   -1.9930    0.0739 H       1  UNL1        0.0269
     32 H           1.8237   -0.0796    1.4087 H       1  UNL1        0.0313
     33 H           0.0857    1.2542   -0.7853 H       1  UNL1        0.0277
     34 H           0.3502    1.7250    0.8745 H       1  UNL1        0.0277
     35 H          -0.9663   -0.1062    1.7640 H       1  UNL1        0.0398
     36 H          -1.3842    2.6310   -0.5890 H       1  UNL1        0.0621
     37 H          -3.4189    4.0805   -0.3844 H       1  UNL1        0.0618
     38 H          -5.3621    3.3222    1.0257 H       1  UNL1        0.0618
     39 H          -5.2032    1.0917    2.2060 H       1  UNL1        0.0629
     40 H          -3.8791   -3.3768    0.7865 H       1  UNL1        0.0629
     41 H          -3.2280   -4.2089   -1.5094 H       1  UNL1        0.0618
     42 H          -1.5076   -2.9125   -2.8228 H       1  UNL1        0.0618
     43 H          -0.5507   -0.9244   -1.8871 H       1  UNL1        0.0621
     44 H           2.6556    1.8358    0.6158 H       1  UNL1        0.0429
     45 H           2.0878    1.4952   -1.1031 H       1  UNL1        0.0429
@<TRIPOS>BOND
     1     1     2    1
     2     2     3    1
     3     3     4    1
     4     4     5    1
     5     5     6    1
     6     6     7    1
     7     7     8    1
     8     8     9    1
     9     9    10   ar
    10    10    11   ar
    11    11    12   ar
    12    12    13   ar
    13    13    14   ar
    14    14    15    1
    15    15    16    1
    16    16    17   ar
    17    17    18   ar
    18    18    19   ar
    19    19    20   ar
    20    20    21   ar
    21     6    22    1
    22    22     2    1
    23    21     8    1
    24    14     9   ar
    25    21    16   ar
    26     1    23    1
    27     1    24    1
    28     1    25    1
    29     3    26    1
    30     3    27    1
    31     4    28    1
    32     4    29    1
    33     5    30    1
    34     5    31    1
    35     6    32    1
    36     7    33    1
    37     7    34    1
    38     8    35    1
    39    10    36    1
    40    11    37    1
    41    12    38    1
    42    13    39    1
    43    17    40    1
    44    18    41    1
    45    19    42    1
    46    20    43    1
    47    22    44    1
    48    22    45    1
