
     RDKit          3D

 45 48  0  0  0  0  0  0  0  0999 V2000
    4.8000    1.5008   -0.5887 C   0  0  0  0  0  0  0  0  0  0  0  0
    3.7814    0.4801   -0.5546 N   0  0  0  0  0  0  0  0  0  0  0  0
    4.1354   -0.6454    0.2578 C   0  0  0  0  0  0  0  0  0  0  0  0
    3.1334   -1.7259    0.0586 C   0  0  0  0  0  0  0  0  0  0  0  0
    1.7441   -1.2070   -0.3503 C   0  0  0  0  0  0  0  0  0  0  0  0
    1.4947    0.0650    0.3206 C   0  0  0  0  0  0  0  0  0  0  0  0
    0.2161    0.7790    0.2496 C   0  0  0  0  0  0  0  0  0  0  0  0
   -1.0374    0.1872    0.6910 C   0  0  0  0  0  0  0  0  0  0  0  0
   -2.1988    1.1643    0.6516 C   0  0  0  0  0  0  0  0  0  0  0  0
   -2.2496    2.3748   -0.0082 C   0  0  0  0  0  0  0  0  0  0  0  0
   -3.3883    3.1367    0.1345 C   0  0  0  0  0  0  0  0  0  0  0  0
   -4.4543    2.7232    0.9062 C   0  0  0  0  0  0  0  0  0  0  0  0
   -4.4436    1.5313    1.5744 C   0  0  0  0  0  0  0  0  0  0  0  0
   -3.3150    0.7681    1.4363 C   0  0  0  0  0  0  0  0  0  0  0  0
   -3.0375   -0.9161    2.1579 S   0  0  0  0  0  0  0  0  0  0  0  0
   -2.5377   -1.7615    0.5931 C   0  0  0  0  0  0  0  0  0  0  0  0
   -3.1602   -2.8993    0.1536 C   0  0  0  0  0  0  0  0  0  0  0  0
   -2.7793   -3.3169   -1.0962 C   0  0  0  0  0  0  0  0  0  0  0  0
   -1.8437   -2.6308   -1.8337 C   0  0  0  0  0  0  0  0  0  0  0  0
   -1.2624   -1.4974   -1.3225 C   0  0  0  0  0  0  0  0  0  0  0  0
   -1.5635   -0.9821   -0.0719 C   0  0  0  0  0  0  0  0  0  0  0  0
    2.5549    1.0833   -0.1791 C   0  0  0  0  0  0  0  0  0  0  0  0
    5.7077    1.0445   -1.0340 H   0  0  0  0  0  0  0  0  0  0  0  0
    4.4700    2.2623   -1.3423 H   0  0  0  0  0  0  0  0  0  0  0  0
    4.9615    2.0292    0.3537 H   0  0  0  0  0  0  0  0  0  0  0  0
    4.2378   -0.3696    1.3332 H   0  0  0  0  0  0  0  0  0  0  0  0
    5.1257   -1.0020   -0.0932 H   0  0  0  0  0  0  0  0  0  0  0  0
    3.0797   -2.3200    1.0066 H   0  0  0  0  0  0  0  0  0  0  0  0
    3.5115   -2.4428   -0.7000 H   0  0  0  0  0  0  0  0  0  0  0  0
    1.7440   -1.2473   -1.4371 H   0  0  0  0  0  0  0  0  0  0  0  0
    1.0704   -1.9930    0.0739 H   0  0  0  0  0  0  0  0  0  0  0  0
    1.8237   -0.0796    1.4087 H   0  0  0  0  0  0  0  0  0  0  0  0
    0.0857    1.2542   -0.7853 H   0  0  0  0  0  0  0  0  0  0  0  0
    0.3502    1.7250    0.8745 H   0  0  0  0  0  0  0  0  0  0  0  0
   -0.9663   -0.1062    1.7640 H   0  0  0  0  0  0  0  0  0  0  0  0
   -1.3842    2.6310   -0.5890 H   0  0  0  0  0  0  0  0  0  0  0  0
   -3.4189    4.0805   -0.3844 H   0  0  0  0  0  0  0  0  0  0  0  0
   -5.3621    3.3222    1.0257 H   0  0  0  0  0  0  0  0  0  0  0  0
   -5.2032    1.0917    2.2060 H   0  0  0  0  0  0  0  0  0  0  0  0
   -3.8791   -3.3768    0.7865 H   0  0  0  0  0  0  0  0  0  0  0  0
   -3.2280   -4.2089   -1.5094 H   0  0  0  0  0  0  0  0  0  0  0  0
   -1.5076   -2.9125   -2.8228 H   0  0  0  0  0  0  0  0  0  0  0  0
   -0.5507   -0.9244   -1.8871 H   0  0  0  0  0  0  0  0  0  0  0  0
    2.6556    1.8358    0.6158 H   0  0  0  0  0  0  0  0  0  0  0  0
    2.0878    1.4952   -1.1031 H   0  0  0  0  0  0  0  0  0  0  0  0
  1  2  1  0
  2  3  1  0
  3  4  1  0
  4  5  1  0
  5  6  1  0
  6  7  1  0
  7  8  1  0
  8  9  1  0
  9 10  2  0
 10 11  1  0
 11 12  2  0
 12 13  1  0
 13 14  2  0
 14 15  1  0
 15 16  1  0
 16 17  2  0
 17 18  1  0
 18 19  2  0
 19 20  1  0
 20 21  2  0
  6 22  1  0
 22  2  1  0
 21  8  1  0
 14  9  1  0
 21 16  1  0
  1 23  1  0
  1 24  1  0
  1 25  1  0
  3 26  1  0
  3 27  1  0
  4 28  1  0
  4 29  1  0
  5 30  1  0
  5 31  1  0
  6 32  1  0
  7 33  1  0
  7 34  1  0
  8 35  1  0
 10 36  1  0
 11 37  1  0
 12 38  1  0
 13 39  1  0
 17 40  1  0
 18 41  1  0
 19 42  1  0
 20 43  1  0
 22 44  1  0
 22 45  1  0
M  END
$$$$
