@<TRIPOS>MOLECULE
*****
 42 46 0 0 0
SMALL
GASTEIGER

@<TRIPOS>ATOM
      1 F           4.5233   -3.9635   -2.1678 F       1  UNL1       -0.2040
      2 C           3.9147   -2.8678   -1.6541 C.ar    1  UNL1        0.1417
      3 C           3.1988   -2.9714   -0.4799 C.ar    1  UNL1       -0.0244
      4 C           2.5567   -1.8944    0.0941 C.ar    1  UNL1       -0.0497
      5 C           2.6112   -0.6423   -0.5049 C.ar    1  UNL1        0.0040
      6 C           1.9469    0.5157    0.0724 C.ar    1  UNL1        0.0968
      7 N           2.5248    1.6450    0.5160 N.ar    1  UNL1       -0.2351
      8 C           1.5766    2.4958    0.9848 C.ar    1  UNL1        0.0973
      9 N           0.3851    1.8580    0.8184 N.ar    1  UNL1       -0.3261
     10 C          -0.8894    2.4010    1.1832 C.3     1  UNL1        0.0468
     11 C          -0.9004    3.8779    1.4988 C.3     1  UNL1        0.0319
     12 C          -2.2086    3.9639    0.7067 C.3     1  UNL1        0.2527
     13 F          -2.2870    5.0842   -0.0971 F       1  UNL1       -0.2055
     14 F          -3.2642    3.7884    1.5633 F       1  UNL1       -0.2055
     15 C          -1.7535    2.7314   -0.0396 C.3     1  UNL1        0.0319
     16 C           0.5955    0.6556    0.2658 C.ar    1  UNL1        0.0781
     17 C          -0.4031   -0.3384   -0.0767 C.ar    1  UNL1        0.0172
     18 C          -0.6345   -0.7636   -1.3634 C.ar    1  UNL1       -0.0477
     19 C          -1.5963   -1.7111   -1.6248 C.ar    1  UNL1       -0.0182
     20 C          -2.3676   -2.2735   -0.6090 C.ar    1  UNL1        0.1375
     21 N          -3.3398   -3.1769   -0.5328 N.ar    1  UNL1       -0.2361
     22 C          -3.7374   -3.3450    0.7481 C.ar    1  UNL1        0.0464
     23 C          -2.9582   -2.4900    1.4996 C.ar    1  UNL1        0.0293
     24 N          -2.1264   -1.8442    0.6467 N.ar    1  UNL1       -0.3060
     25 C          -1.1980   -0.9271    0.9139 C.ar    1  UNL1        0.0204
     26 C           3.3345   -0.5552   -1.6841 C.ar    1  UNL1       -0.0313
     27 C           3.9759   -1.6339   -2.2563 C.ar    1  UNL1        0.0767
     28 CL          4.8859   -1.4761   -3.7594 Cl      1  UNL1       -0.0806
     29 H           3.1449   -3.9545    0.0080 H       1  UNL1        0.0647
     30 H           1.9956   -1.9792    1.0158 H       1  UNL1        0.0625
     31 H           1.7023    3.4822    1.4093 H       1  UNL1        0.1029
     32 H          -1.4396    1.7619    1.8849 H       1  UNL1        0.0532
     33 H          -1.0205    4.1147    2.5768 H       1  UNL1        0.0343
     34 H          -0.0643    4.4204    1.0122 H       1  UNL1        0.0343
     35 H          -1.1088    3.0296   -0.9065 H       1  UNL1        0.0343
     36 H          -2.5227    1.9945   -0.2769 H       1  UNL1        0.0343
     37 H          -0.0726   -0.3682   -2.1945 H       1  UNL1        0.0626
     38 H          -1.8068   -2.0724   -2.6360 H       1  UNL1        0.0654
     39 H          -4.4986   -4.0043    1.1065 H       1  UNL1        0.0845
     40 H          -3.0264   -2.3827    2.5651 H       1  UNL1        0.0829
     41 H          -1.0316   -0.6057    1.9353 H       1  UNL1        0.0820
     42 H           3.3839    0.4211   -2.1619 H       1  UNL1        0.0640
@<TRIPOS>BOND
     1     1     2    1
     2     2     3   ar
     3     3     4   ar
     4     4     5   ar
     5     5     6    1
     6     6     7   ar
     7     7     8   ar
     8     8     9   ar
     9     9    10    1
    10    10    11    1
    11    11    12    1
    12    12    13    1
    13    12    14    1
    14    12    15    1
    15     9    16   ar
    16    16    17    1
    17    17    18   ar
    18    18    19   ar
    19    19    20   ar
    20    20    21   ar
    21    21    22   ar
    22    22    23   ar
    23    23    24   ar
    24    24    25   ar
    25     5    26   ar
    26    26    27   ar
    27    27    28    1
    28    27     2   ar
    29    16     6   ar
    30    25    17   ar
    31    15    10    1
    32    24    20   ar
    33     3    29    1
    34     4    30    1
    35     8    31    1
    36    10    32    1
    37    11    33    1
    38    11    34    1
    39    15    35    1
    40    15    36    1
    41    18    37    1
    42    19    38    1
    43    22    39    1
    44    23    40    1
    45    25    41    1
    46    26    42    1
