@<TRIPOS>MOLECULE
*****
 64 69 0 0 0
SMALL
GASTEIGER

@<TRIPOS>ATOM
      1 O           2.8862   -2.8183    0.4112 O.2     1  UNL1       -0.2702
      2 C           3.2226   -1.8307   -0.3465 C.2     1  UNL1        0.2449
      3 N           2.1273   -1.0264   -0.7279 N.am    1  UNL1       -0.3084
      4 C           0.7711   -1.2815   -0.3020 C.3     1  UNL1        0.0263
      5 C           0.4836   -0.6319    1.0417 C.3     1  UNL1       -0.0187
      6 C          -0.9028   -1.1676    1.4598 C.3     1  UNL1        0.0127
      7 C          -1.0028   -2.6651    1.2355 C.3     1  UNL1       -0.0358
      8 C          -1.5182   -2.8814   -0.1503 C.3     1  UNL1       -0.0358
      9 C          -1.6500   -1.4300   -0.6668 C.3     1  UNL1        0.0127
     10 C          -0.3027   -1.0061   -1.2696 C.3     1  UNL1       -0.0187
     11 N          -1.8840   -0.6822    0.5265 N.3     1  UNL1       -0.2922
     12 C          -3.1591   -0.6467    1.0848 C.3     1  UNL1        0.0246
     13 C          -4.1464    0.2539    0.4304 C.ar    1  UNL1       -0.0328
     14 C          -4.9569   -0.1150   -0.6026 C.ar    1  UNL1       -0.0568
     15 C          -5.8543    0.8195   -1.1353 C.ar    1  UNL1       -0.0536
     16 C          -5.9442    2.1054   -0.6456 C.ar    1  UNL1       -0.0152
     17 C          -6.8277    3.0073   -1.1745 C.ar    1  UNL1       -0.0187
     18 C          -6.9110    4.2874   -0.6772 C.ar    1  UNL1        0.1240
     19 F          -7.7823    5.2044   -1.1815 F       1  UNL1       -0.2055
     20 C          -6.0796    4.6336    0.3689 C.ar    1  UNL1       -0.0259
     21 C          -5.1894    3.7461    0.9116 C.ar    1  UNL1       -0.0513
     22 C          -5.1150    2.4750    0.4071 C.ar    1  UNL1       -0.0174
     23 C          -4.2295    1.5514    0.9319 C.ar    1  UNL1       -0.0496
     24 C           4.6145   -1.6893   -0.6859 C.ar    1  UNL1        0.0444
     25 C           5.2541   -2.6499   -1.5043 C.ar    1  UNL1       -0.0490
     26 C           6.6007   -2.5327   -1.7546 C.ar    1  UNL1       -0.0610
     27 C           7.3744   -1.4996   -1.2347 C.ar    1  UNL1       -0.0611
     28 C           6.6983   -0.5962   -0.4490 C.ar    1  UNL1       -0.0533
     29 C           5.3441   -0.6602   -0.1597 C.ar    1  UNL1       -0.0058
     30 C           4.7387    0.3696    0.6423 C.ar    1  UNL1       -0.0172
     31 C           3.9854    1.4005    0.1759 C.ar    1  UNL1       -0.0540
     32 C           3.4486    2.3269    1.0414 C.ar    1  UNL1       -0.0612
     33 C           3.6557    2.2460    2.4224 C.ar    1  UNL1       -0.0617
     34 C           4.4196    1.2042    2.9053 C.ar    1  UNL1       -0.0612
     35 C           4.9393    0.2988    2.0246 C.ar    1  UNL1       -0.0540
     36 H           2.2880   -0.2284   -1.3592 H       1  UNL1        0.1493
     37 H           0.7740   -2.3843   -0.0461 H       1  UNL1        0.0499
     38 H           1.1790   -0.9463    1.8293 H       1  UNL1        0.0298
     39 H           0.3950    0.4579    0.8940 H       1  UNL1        0.0298
     40 H          -1.1430   -0.9272    2.4949 H       1  UNL1        0.0463
     41 H          -0.1157   -3.2274    1.5194 H       1  UNL1        0.0281
     42 H          -1.8149   -3.0141    1.9373 H       1  UNL1        0.0281
     43 H          -2.5093   -3.3792   -0.1740 H       1  UNL1        0.0281
     44 H          -0.8573   -3.4644   -0.7887 H       1  UNL1        0.0281
     45 H          -2.4602   -1.4213   -1.4036 H       1  UNL1        0.0463
     46 H          -0.1390   -1.6499   -2.1770 H       1  UNL1        0.0298
     47 H          -0.4189    0.0475   -1.5491 H       1  UNL1        0.0298
     48 H          -3.0646   -0.3185    2.1654 H       1  UNL1        0.0476
     49 H          -3.6723   -1.6369    1.1743 H       1  UNL1        0.0476
     50 H          -4.8976   -1.1206   -0.9998 H       1  UNL1        0.0621
     51 H          -6.4925    0.5187   -1.9567 H       1  UNL1        0.0624
     52 H          -7.4794    2.7317   -1.9857 H       1  UNL1        0.0652
     53 H          -6.1111    5.6301    0.7904 H       1  UNL1        0.0646
     54 H          -4.5613    4.0397    1.7234 H       1  UNL1        0.0624
     55 H          -3.5741    1.8463    1.7641 H       1  UNL1        0.0627
     56 H           4.6710   -3.4608   -1.9158 H       1  UNL1        0.0625
     57 H           7.1447   -3.2562   -2.3791 H       1  UNL1        0.0618
     58 H           8.4309   -1.3927   -1.4194 H       1  UNL1        0.0618
     59 H           7.2596    0.2437   -0.0061 H       1  UNL1        0.0624
     60 H           3.8245    1.4848   -0.8828 H       1  UNL1        0.0624
     61 H           2.8344    3.1749    0.7063 H       1  UNL1        0.0618
     62 H           3.2373    2.9705    3.0992 H       1  UNL1        0.0618
     63 H           4.6231    1.0792    3.9753 H       1  UNL1        0.0618
     64 H           5.5412   -0.5164    2.4373 H       1  UNL1        0.0624
@<TRIPOS>BOND
     1     1     2    2
     2     2     3   am
     3     3     4    1
     4     4     5    1
     5     5     6    1
     6     6     7    1
     7     7     8    1
     8     8     9    1
     9     9    10    1
    10     9    11    1
    11    11    12    1
    12    12    13    1
    13    13    14   ar
    14    14    15   ar
    15    15    16   ar
    16    16    17   ar
    17    17    18   ar
    18    18    19    1
    19    18    20   ar
    20    20    21   ar
    21    21    22   ar
    22    22    23   ar
    23     2    24    1
    24    24    25   ar
    25    25    26   ar
    26    26    27   ar
    27    27    28   ar
    28    28    29   ar
    29    29    30    1
    30    30    31   ar
    31    31    32   ar
    32    32    33   ar
    33    33    34   ar
    34    34    35   ar
    35    10     4    1
    36    23    13   ar
    37    29    24   ar
    38    35    30   ar
    39    11     6    1
    40    22    16   ar
    41     3    36    1
    42     4    37    1
    43     5    38    1
    44     5    39    1
    45     6    40    1
    46     7    41    1
    47     7    42    1
    48     8    43    1
    49     8    44    1
    50     9    45    1
    51    10    46    1
    52    10    47    1
    53    12    48    1
    54    12    49    1
    55    14    50    1
    56    15    51    1
    57    17    52    1
    58    20    53    1
    59    21    54    1
    60    23    55    1
    61    25    56    1
    62    26    57    1
    63    27    58    1
    64    28    59    1
    65    31    60    1
    66    32    61    1
    67    33    62    1
    68    34    63    1
    69    35    64    1
