
     RDKit          3D

 64 69  0  0  0  0  0  0  0  0999 V2000
    2.8862   -2.8183    0.4112 O   0  0  0  0  0  0  0  0  0  0  0  0
    3.2226   -1.8307   -0.3465 C   0  0  0  0  0  0  0  0  0  0  0  0
    2.1273   -1.0264   -0.7279 N   0  0  0  0  0  0  0  0  0  0  0  0
    0.7711   -1.2815   -0.3020 C   0  0  0  0  0  0  0  0  0  0  0  0
    0.4836   -0.6319    1.0417 C   0  0  0  0  0  0  0  0  0  0  0  0
   -0.9028   -1.1676    1.4598 C   0  0  0  0  0  0  0  0  0  0  0  0
   -1.0028   -2.6651    1.2355 C   0  0  0  0  0  0  0  0  0  0  0  0
   -1.5182   -2.8814   -0.1503 C   0  0  0  0  0  0  0  0  0  0  0  0
   -1.6500   -1.4300   -0.6668 C   0  0  0  0  0  0  0  0  0  0  0  0
   -0.3027   -1.0061   -1.2696 C   0  0  0  0  0  0  0  0  0  0  0  0
   -1.8840   -0.6822    0.5265 N   0  0  0  0  0  0  0  0  0  0  0  0
   -3.1591   -0.6467    1.0848 C   0  0  0  0  0  0  0  0  0  0  0  0
   -4.1464    0.2539    0.4304 C   0  0  0  0  0  0  0  0  0  0  0  0
   -4.9569   -0.1150   -0.6026 C   0  0  0  0  0  0  0  0  0  0  0  0
   -5.8543    0.8195   -1.1353 C   0  0  0  0  0  0  0  0  0  0  0  0
   -5.9442    2.1054   -0.6456 C   0  0  0  0  0  0  0  0  0  0  0  0
   -6.8277    3.0073   -1.1745 C   0  0  0  0  0  0  0  0  0  0  0  0
   -6.9110    4.2874   -0.6772 C   0  0  0  0  0  0  0  0  0  0  0  0
   -7.7823    5.2044   -1.1815 F   0  0  0  0  0  0  0  0  0  0  0  0
   -6.0796    4.6336    0.3689 C   0  0  0  0  0  0  0  0  0  0  0  0
   -5.1894    3.7461    0.9116 C   0  0  0  0  0  0  0  0  0  0  0  0
   -5.1150    2.4750    0.4071 C   0  0  0  0  0  0  0  0  0  0  0  0
   -4.2295    1.5514    0.9319 C   0  0  0  0  0  0  0  0  0  0  0  0
    4.6145   -1.6893   -0.6859 C   0  0  0  0  0  0  0  0  0  0  0  0
    5.2541   -2.6499   -1.5043 C   0  0  0  0  0  0  0  0  0  0  0  0
    6.6007   -2.5327   -1.7546 C   0  0  0  0  0  0  0  0  0  0  0  0
    7.3744   -1.4996   -1.2347 C   0  0  0  0  0  0  0  0  0  0  0  0
    6.6983   -0.5962   -0.4490 C   0  0  0  0  0  0  0  0  0  0  0  0
    5.3441   -0.6602   -0.1597 C   0  0  0  0  0  0  0  0  0  0  0  0
    4.7387    0.3696    0.6423 C   0  0  0  0  0  0  0  0  0  0  0  0
    3.9854    1.4005    0.1759 C   0  0  0  0  0  0  0  0  0  0  0  0
    3.4486    2.3269    1.0414 C   0  0  0  0  0  0  0  0  0  0  0  0
    3.6557    2.2460    2.4224 C   0  0  0  0  0  0  0  0  0  0  0  0
    4.4196    1.2042    2.9053 C   0  0  0  0  0  0  0  0  0  0  0  0
    4.9393    0.2988    2.0246 C   0  0  0  0  0  0  0  0  0  0  0  0
    2.2880   -0.2284   -1.3592 H   0  0  0  0  0  0  0  0  0  0  0  0
    0.7740   -2.3843   -0.0461 H   0  0  0  0  0  0  0  0  0  0  0  0
    1.1790   -0.9463    1.8293 H   0  0  0  0  0  0  0  0  0  0  0  0
    0.3950    0.4579    0.8940 H   0  0  0  0  0  0  0  0  0  0  0  0
   -1.1430   -0.9272    2.4949 H   0  0  0  0  0  0  0  0  0  0  0  0
   -0.1157   -3.2274    1.5194 H   0  0  0  0  0  0  0  0  0  0  0  0
   -1.8149   -3.0141    1.9373 H   0  0  0  0  0  0  0  0  0  0  0  0
   -2.5093   -3.3792   -0.1740 H   0  0  0  0  0  0  0  0  0  0  0  0
   -0.8573   -3.4644   -0.7887 H   0  0  0  0  0  0  0  0  0  0  0  0
   -2.4602   -1.4213   -1.4036 H   0  0  0  0  0  0  0  0  0  0  0  0
   -0.1390   -1.6499   -2.1770 H   0  0  0  0  0  0  0  0  0  0  0  0
   -0.4189    0.0475   -1.5491 H   0  0  0  0  0  0  0  0  0  0  0  0
   -3.0646   -0.3185    2.1654 H   0  0  0  0  0  0  0  0  0  0  0  0
   -3.6723   -1.6369    1.1743 H   0  0  0  0  0  0  0  0  0  0  0  0
   -4.8976   -1.1206   -0.9998 H   0  0  0  0  0  0  0  0  0  0  0  0
   -6.4925    0.5187   -1.9567 H   0  0  0  0  0  0  0  0  0  0  0  0
   -7.4794    2.7317   -1.9857 H   0  0  0  0  0  0  0  0  0  0  0  0
   -6.1111    5.6301    0.7904 H   0  0  0  0  0  0  0  0  0  0  0  0
   -4.5613    4.0397    1.7234 H   0  0  0  0  0  0  0  0  0  0  0  0
   -3.5741    1.8463    1.7641 H   0  0  0  0  0  0  0  0  0  0  0  0
    4.6710   -3.4608   -1.9158 H   0  0  0  0  0  0  0  0  0  0  0  0
    7.1447   -3.2562   -2.3791 H   0  0  0  0  0  0  0  0  0  0  0  0
    8.4309   -1.3927   -1.4194 H   0  0  0  0  0  0  0  0  0  0  0  0
    7.2596    0.2437   -0.0061 H   0  0  0  0  0  0  0  0  0  0  0  0
    3.8245    1.4848   -0.8828 H   0  0  0  0  0  0  0  0  0  0  0  0
    2.8344    3.1749    0.7063 H   0  0  0  0  0  0  0  0  0  0  0  0
    3.2373    2.9705    3.0992 H   0  0  0  0  0  0  0  0  0  0  0  0
    4.6231    1.0792    3.9753 H   0  0  0  0  0  0  0  0  0  0  0  0
    5.5412   -0.5164    2.4373 H   0  0  0  0  0  0  0  0  0  0  0  0
  1  2  2  0
  2  3  1  0
  3  4  1  0
  4  5  1  0
  5  6  1  0
  6  7  1  0
  7  8  1  0
  8  9  1  0
  9 10  1  0
  9 11  1  0
 11 12  1  0
 12 13  1  0
 13 14  2  0
 14 15  1  0
 15 16  2  0
 16 17  1  0
 17 18  2  0
 18 19  1  0
 18 20  1  0
 20 21  2  0
 21 22  1  0
 22 23  2  0
  2 24  1  0
 24 25  2  0
 25 26  1  0
 26 27  2  0
 27 28  1  0
 28 29  2  0
 29 30  1  0
 30 31  2  0
 31 32  1  0
 32 33  2  0
 33 34  1  0
 34 35  2  0
 10  4  1  0
 23 13  1  0
 29 24  1  0
 35 30  1  0
 11  6  1  0
 22 16  1  0
  3 36  1  0
  4 37  1  0
  5 38  1  0
  5 39  1  0
  6 40  1  0
  7 41  1  0
  7 42  1  0
  8 43  1  0
  8 44  1  0
  9 45  1  0
 10 46  1  0
 10 47  1  0
 12 48  1  0
 12 49  1  0
 14 50  1  0
 15 51  1  0
 17 52  1  0
 20 53  1  0
 21 54  1  0
 23 55  1  0
 25 56  1  0
 26 57  1  0
 27 58  1  0
 28 59  1  0
 31 60  1  0
 32 61  1  0
 33 62  1  0
 34 63  1  0
 35 64  1  0
M  END
$$$$
