@<TRIPOS>MOLECULE
*****
 31 33 0 0 0
SMALL
GASTEIGER

@<TRIPOS>ATOM
      1 O          -1.3215    3.5437    2.0578 O.2     1  UNL1       -0.2524
      2 C          -0.8048    2.6915    1.2604 C.2     1  UNL1        0.3072
      3 N          -0.9759    2.9844   -0.1178 N.am    1  UNL1       -0.2378
      4 C          -0.3289    1.9155   -0.8280 C.2     1  UNL1        0.2531
      5 O          -0.0079    1.8802   -2.0642 O.2     1  UNL1       -0.2722
      6 C          -0.0619    0.7797    0.1192 C.3     1  UNL1        0.1634
      7 N          -0.0645    1.4625    1.3997 N.am    1  UNL1       -0.2777
      8 C           1.2511    0.1739   -0.0841 C.ar    1  UNL1       -0.0108
      9 C           1.5758   -0.3510   -1.3327 C.ar    1  UNL1       -0.0557
     10 C           2.8228   -0.9385   -1.5644 C.ar    1  UNL1       -0.0614
     11 C           3.7686   -1.0211   -0.5806 C.ar    1  UNL1       -0.0617
     12 C           3.4796   -0.5088    0.6752 C.ar    1  UNL1       -0.0614
     13 C           2.2473    0.0629    0.8757 C.ar    1  UNL1       -0.0557
     14 C          -1.1870   -0.1691   -0.0164 C.ar    1  UNL1       -0.0108
     15 C          -1.1325   -1.1572    0.9674 C.ar    1  UNL1       -0.0557
     16 C          -2.0978   -2.1586    1.0285 C.ar    1  UNL1       -0.0614
     17 C          -3.1023   -2.1346    0.0844 C.ar    1  UNL1       -0.0617
     18 C          -3.1749   -1.1668   -0.8970 C.ar    1  UNL1       -0.0614
     19 C          -2.2193   -0.1934   -0.9404 C.ar    1  UNL1       -0.0557
     20 H          -1.4336    3.7475   -0.6642 H       1  UNL1        0.1591
     21 H           0.2917    1.3634    2.3963 H       1  UNL1        0.1519
     22 H           0.8765   -0.3194   -2.1535 H       1  UNL1        0.0621
     23 H           3.0801   -1.3531   -2.5498 H       1  UNL1        0.0618
     24 H           4.7421   -1.4674   -0.7221 H       1  UNL1        0.0618
     25 H           4.1913   -0.5473    1.4913 H       1  UNL1        0.0618
     26 H           2.0374    0.4570    1.8580 H       1  UNL1        0.0621
     27 H          -0.3785   -1.2542    1.7507 H       1  UNL1        0.0621
     28 H          -2.0904   -2.9451    1.7786 H       1  UNL1        0.0618
     29 H          -3.8757   -2.8778    0.0774 H       1  UNL1        0.0618
     30 H          -3.9596   -1.1257   -1.6554 H       1  UNL1        0.0618
     31 H          -2.1475    0.6270   -1.6500 H       1  UNL1        0.0621
@<TRIPOS>BOND
     1     1     2    2
     2     2     3   am
     3     3     4   am
     4     4     5    2
     5     4     6    1
     6     6     7    1
     7     6     8    1
     8     8     9   ar
     9     9    10   ar
    10    10    11   ar
    11    11    12   ar
    12    12    13   ar
    13     6    14    1
    14    14    15   ar
    15    15    16   ar
    16    16    17   ar
    17    17    18   ar
    18    18    19   ar
    19     7     2   am
    20    13     8   ar
    21    19    14   ar
    22     3    20    1
    23     7    21    1
    24     9    22    1
    25    10    23    1
    26    11    24    1
    27    12    25    1
    28    13    26    1
    29    15    27    1
    30    16    28    1
    31    17    29    1
    32    18    30    1
    33    19    31    1
