@<TRIPOS>MOLECULE
*****
 32 34 0 0 0
SMALL
GASTEIGER

@<TRIPOS>ATOM
      1 C           0.4183    1.5642    0.5443 C.3     1  UNL1        0.0000
      2 C           0.0870    0.3162   -0.2439 C.3     1  UNL1        0.0000
      3 C           1.0194    0.1852   -1.4120 C.3     1  UNL1        0.0000
      4 N           2.4179    0.1135   -1.0143 N.ar    1  UNL1        0.0000
      5 C           3.1337   -0.9854   -0.7533 C.ar    1  UNL1        0.0000
      6 C           4.4093   -0.5321   -0.4094 C.ar    1  UNL1        0.0000
      7 N           4.3699    0.7988   -0.4879 N.ar    1  UNL1        0.0000
      8 N           3.1812    1.2146   -0.8506 N.ar    1  UNL1        0.0000
      9 C          -1.3464    0.2727   -0.6487 C.3     1  UNL1        0.0000
     10 C          -1.8332    1.6790   -0.7404 C.2     1  UNL1        0.0000
     11 O          -1.2395    2.4770   -1.5073 O.2     1  UNL1        0.0000
     12 O          -2.9143    2.1640   -0.0217 O.3     1  UNL1        0.0000
     13 NA         -3.5546    4.1154   -0.1779 Na      1  UNL1        0.0000
     14 N          -2.1445   -0.4313    0.2536 N.am    1  UNL1        0.0000
     15 C          -3.2452   -1.0363    0.8748 C.2     1  UNL1        0.0000
     16 O          -4.4458   -0.7693    1.0218 O.2     1  UNL1        0.0000
     17 C          -2.3353   -2.1369    1.2773 C.3     1  UNL1        0.0000
     18 C          -1.4103   -0.9766    1.4269 C.3     1  UNL1        0.0000
     19 S           0.2259   -1.1330    0.7736 S.O2    1  UNL1        0.0000
     20 O           0.2718   -2.3987   -0.0326 O.2     1  UNL1        0.0000
     21 O           1.2961   -1.0345    1.7875 O.2     1  UNL1        0.0000
     22 H           1.3189    1.3142    1.1563 H       1  UNL1        0.0000
     23 H          -0.4369    1.8593    1.1576 H       1  UNL1        0.0000
     24 H           0.6748    2.3577   -0.1711 H       1  UNL1        0.0000
     25 H           0.8008   -0.7892   -1.9241 H       1  UNL1        0.0000
     26 H           0.8593    0.9644   -2.1824 H       1  UNL1        0.0000
     27 H           2.8189   -2.0222   -0.7970 H       1  UNL1        0.0000
     28 H           5.2183   -1.1620   -0.1450 H       1  UNL1        0.0000
     29 H          -1.3677   -0.1070   -1.7131 H       1  UNL1        0.0000
     30 H          -2.0818   -2.7728    0.4075 H       1  UNL1        0.0000
     31 H          -2.6171   -2.6706    2.1986 H       1  UNL1        0.0000
     32 H          -1.5488   -0.4384    2.3530 H       1  UNL1        0.0000
@<TRIPOS>BOND
     1     2     1    1
     2     2     3    1
     3     3     4    1
     4     4     5   ar
     5     5     6   ar
     6     6     7   ar
     7     7     8   ar
     8     2     9    1
     9     9    10    1
    10    10    11    2
    11    10    12    1
    12    12    13    1
    13     9    14    1
    14    14    15   am
    15    15    16    2
    16    15    17    1
    17    17    18    1
    18    18    19    1
    19    19    20    2
    20    19    21    2
    21    19     2    1
    22     8     4   ar
    23    18    14    1
    24     1    22    1
    25     1    23    1
    26     1    24    1
    27     3    25    1
    28     3    26    1
    29     5    27    1
    30     6    28    1
    31     9    29    1
    32    17    30    1
    33    17    31    1
    34    18    32    1
