
     RDKit          3D

 32 34  0  0  0  0  0  0  0  0999 V2000
    0.4183    1.5642    0.5443 C   0  0  0  0  0  0  0  0  0  0  0  0
    0.0870    0.3162   -0.2439 C   0  0  2  0  0  0  0  0  0  0  0  0
    1.0194    0.1852   -1.4120 C   0  0  0  0  0  0  0  0  0  0  0  0
    2.4179    0.1135   -1.0143 N   0  0  0  0  0  0  0  0  0  0  0  0
    3.1337   -0.9854   -0.7533 C   0  0  0  0  0  0  0  0  0  0  0  0
    4.4093   -0.5321   -0.4094 C   0  0  0  0  0  0  0  0  0  0  0  0
    4.3699    0.7988   -0.4879 N   0  0  0  0  0  0  0  0  0  0  0  0
    3.1812    1.2146   -0.8506 N   0  0  0  0  0  0  0  0  0  0  0  0
   -1.3464    0.2727   -0.6487 C   0  0  2  0  0  0  0  0  0  0  0  0
   -1.8332    1.6790   -0.7404 C   0  0  0  0  0  0  0  0  0  0  0  0
   -1.2395    2.4770   -1.5073 O   0  0  0  0  0  0  0  0  0  0  0  0
   -2.9143    2.1640   -0.0217 O   0  0  0  0  0  0  0  0  0  0  0  0
   -3.5546    4.1154   -0.1779 Na  0  0  0  0  0  1  0  0  0  0  0  0
   -2.1445   -0.4313    0.2536 N   0  0  0  0  0  0  0  0  0  0  0  0
   -3.2452   -1.0363    0.8748 C   0  0  0  0  0  0  0  0  0  0  0  0
   -4.4458   -0.7693    1.0218 O   0  0  0  0  0  0  0  0  0  0  0  0
   -2.3353   -2.1369    1.2773 C   0  0  0  0  0  0  0  0  0  0  0  0
   -1.4103   -0.9766    1.4269 C   0  0  1  0  0  0  0  0  0  0  0  0
    0.2259   -1.1330    0.7736 S   0  0  0  0  0  6  0  0  0  0  0  0
    0.2718   -2.3987   -0.0326 O   0  0  0  0  0  0  0  0  0  0  0  0
    1.2961   -1.0345    1.7875 O   0  0  0  0  0  0  0  0  0  0  0  0
    1.3189    1.3142    1.1563 H   0  0  0  0  0  0  0  0  0  0  0  0
   -0.4369    1.8593    1.1576 H   0  0  0  0  0  0  0  0  0  0  0  0
    0.6748    2.3577   -0.1711 H   0  0  0  0  0  0  0  0  0  0  0  0
    0.8008   -0.7892   -1.9241 H   0  0  0  0  0  0  0  0  0  0  0  0
    0.8593    0.9644   -2.1824 H   0  0  0  0  0  0  0  0  0  0  0  0
    2.8189   -2.0222   -0.7970 H   0  0  0  0  0  0  0  0  0  0  0  0
    5.2183   -1.1620   -0.1450 H   0  0  0  0  0  0  0  0  0  0  0  0
   -1.3677   -0.1070   -1.7131 H   0  0  0  0  0  0  0  0  0  0  0  0
   -2.0818   -2.7728    0.4075 H   0  0  0  0  0  0  0  0  0  0  0  0
   -2.6171   -2.6706    2.1986 H   0  0  0  0  0  0  0  0  0  0  0  0
   -1.5488   -0.4384    2.3530 H   0  0  0  0  0  0  0  0  0  0  0  0
  2  1  1  1
  2  3  1  0
  3  4  1  0
  4  5  1  0
  5  6  2  0
  6  7  1  0
  7  8  2  0
  2  9  1  0
  9 10  1  0
 10 11  2  0
 10 12  1  0
 12 13  1  0
  9 14  1  0
 14 15  1  0
 15 16  2  0
 15 17  1  0
 17 18  1  0
 18 19  1  0
 19 20  2  0
 19 21  2  0
 19  2  1  0
  8  4  1  0
 18 14  1  0
  1 22  1  0
  1 23  1  0
  1 24  1  0
  3 25  1  0
  3 26  1  0
  5 27  1  0
  6 28  1  0
  9 29  1  6
 17 30  1  0
 17 31  1  0
 18 32  1  1
M  END
$$$$
