
     RDKit          3D

 63 66  0  0  0  0  0  0  0  0999 V2000
   -7.6011   -2.0996    3.9599 C   0  0  0  0  0  0  0  0  0  0  0  0
   -7.7310   -2.0276    2.5543 O   0  0  0  0  0  0  0  0  0  0  0  0
   -6.9252   -1.1800    1.8057 C   0  0  0  0  0  0  0  0  0  0  0  0
   -5.9650   -0.3684    2.3459 C   0  0  0  0  0  0  0  0  0  0  0  0
   -5.1653    0.4772    1.5677 C   0  0  0  0  0  0  0  0  0  0  0  0
   -5.3189    0.5245    0.2022 C   0  0  0  0  0  0  0  0  0  0  0  0
   -4.5089    1.3940   -0.6575 C   0  0  0  0  0  0  0  0  0  0  0  0
   -4.7542    1.3869   -1.8853 O   0  0  0  0  0  0  0  0  0  0  0  0
   -3.4742    2.2367   -0.1974 N   0  0  0  0  0  0  0  0  0  0  0  0
   -2.6564    3.1035   -0.9862 C   0  0  0  0  0  0  0  0  0  0  0  0
   -1.6036    2.3939   -1.7195 C   0  0  0  0  0  0  0  0  0  0  0  0
   -1.7923    1.9651   -3.0136 C   0  0  0  0  0  0  0  0  0  0  0  0
   -0.7689    1.3002   -3.6526 C   0  0  0  0  0  0  0  0  0  0  0  0
    0.4513    1.0586   -3.0043 C   0  0  0  0  0  0  0  0  0  0  0  0
    0.6621    1.4774   -1.7135 C   0  0  0  0  0  0  0  0  0  0  0  0
    1.9224    1.2357   -1.0280 C   0  0  0  0  0  0  0  0  0  0  0  0
    2.0960    1.5958    0.1737 O   0  0  0  0  0  0  0  0  0  0  0  0
    3.0141    0.5931   -1.6542 N   0  0  0  0  0  0  0  0  0  0  0  0
    4.2480    0.3660   -0.9540 C   0  0  0  0  0  0  0  0  0  0  0  0
    5.2478    1.3139   -0.9822 C   0  0  0  0  0  0  0  0  0  0  0  0
    6.4325    1.0739   -0.3074 C   0  0  0  0  0  0  0  0  0  0  0  0
    6.6576   -0.0789    0.3960 C   0  0  0  0  0  0  0  0  0  0  0  0
    5.6596   -1.0337    0.4288 C   0  0  0  0  0  0  0  0  0  0  0  0
    4.4777   -0.7975   -0.2425 C   0  0  0  0  0  0  0  0  0  0  0  0
    5.7938   -2.3205    1.1585 C   0  0  0  0  0  0  0  0  0  0  0  0
    7.1667   -2.5504    1.5802 N   0  0  0  0  0  0  0  0  0  0  0  0
    7.9940   -2.9535    0.4567 C   0  0  0  0  0  0  0  0  0  0  0  0
    7.6878   -1.3414    2.1935 C   0  0  0  0  0  0  0  0  0  0  0  0
    7.9445   -0.3274    1.1207 C   0  0  0  0  0  0  0  0  0  0  0  0
   -0.3797    2.1425   -1.0920 C   0  0  0  0  0  0  0  0  0  0  0  0
   -6.2939   -0.2994   -0.3458 C   0  0  0  0  0  0  0  0  0  0  0  0
   -7.0807   -1.1314    0.4168 C   0  0  0  0  0  0  0  0  0  0  0  0
   -8.0502   -1.9536   -0.1147 O   0  0  0  0  0  0  0  0  0  0  0  0
   -8.3106   -2.0096   -1.4984 C   0  0  0  0  0  0  0  0  0  0  0  0
   -8.6132   -2.3889    4.3695 H   0  0  0  0  0  0  0  0  0  0  0  0
   -6.8204   -2.8129    4.2866 H   0  0  0  0  0  0  0  0  0  0  0  0
   -7.4045   -1.1016    4.4020 H   0  0  0  0  0  0  0  0  0  0  0  0
   -5.7971   -0.3591    3.4068 H   0  0  0  0  0  0  0  0  0  0  0  0
   -4.4195    1.1011    2.0367 H   0  0  0  0  0  0  0  0  0  0  0  0
   -3.2939    2.2128    0.8549 H   0  0  0  0  0  0  0  0  0  0  0  0
   -2.1430    3.8409   -0.3156 H   0  0  0  0  0  0  0  0  0  0  0  0
   -3.3038    3.7214   -1.6506 H   0  0  0  0  0  0  0  0  0  0  0  0
   -2.7335    2.1616   -3.5056 H   0  0  0  0  0  0  0  0  0  0  0  0
   -0.9296    0.9661   -4.6740 H   0  0  0  0  0  0  0  0  0  0  0  0
    1.2229    0.5345   -3.5451 H   0  0  0  0  0  0  0  0  0  0  0  0
    2.9596    0.2680   -2.6341 H   0  0  0  0  0  0  0  0  0  0  0  0
    5.1294    2.2594   -1.5288 H   0  0  0  0  0  0  0  0  0  0  0  0
    7.2311    1.8137   -0.3205 H   0  0  0  0  0  0  0  0  0  0  0  0
    3.6945   -1.5522   -0.2138 H   0  0  0  0  0  0  0  0  0  0  0  0
    5.4249   -3.1926    0.5820 H   0  0  0  0  0  0  0  0  0  0  0  0
    5.1800   -2.2506    2.0775 H   0  0  0  0  0  0  0  0  0  0  0  0
    9.0450   -2.9238    0.7916 H   0  0  0  0  0  0  0  0  0  0  0  0
    7.8808   -2.2832   -0.4181 H   0  0  0  0  0  0  0  0  0  0  0  0
    7.7488   -3.9833    0.1556 H   0  0  0  0  0  0  0  0  0  0  0  0
    8.5813   -1.5823    2.7723 H   0  0  0  0  0  0  0  0  0  0  0  0
    6.8907   -0.9192    2.8531 H   0  0  0  0  0  0  0  0  0  0  0  0
    8.2721    0.6352    1.6038 H   0  0  0  0  0  0  0  0  0  0  0  0
    8.7407   -0.6373    0.4163 H   0  0  0  0  0  0  0  0  0  0  0  0
   -0.2131    2.4720   -0.0748 H   0  0  0  0  0  0  0  0  0  0  0  0
   -6.4162   -0.2639   -1.4156 H   0  0  0  0  0  0  0  0  0  0  0  0
   -7.4693   -2.5872   -1.9531 H   0  0  0  0  0  0  0  0  0  0  0  0
   -8.2532   -0.9833   -1.9278 H   0  0  0  0  0  0  0  0  0  0  0  0
   -9.2673   -2.4776   -1.7427 H   0  0  0  0  0  0  0  0  0  0  0  0
  1  2  1  0
  2  3  1  0
  3  4  2  0
  4  5  1  0
  5  6  2  0
  6  7  1  0
  7  8  2  0
  7  9  1  0
  9 10  1  0
 10 11  1  0
 11 12  2  0
 12 13  1  0
 13 14  2  0
 14 15  1  0
 15 16  1  0
 16 17  2  0
 16 18  1  0
 18 19  1  0
 19 20  2  0
 20 21  1  0
 21 22  2  0
 22 23  1  0
 23 24  2  0
 23 25  1  0
 25 26  1  0
 26 27  1  0
 26 28  1  0
 28 29  1  0
 15 30  2  0
  6 31  1  0
 31 32  2  0
 32 33  1  0
 33 34  1  0
 32  3  1  0
 30 11  1  0
 24 19  1  0
 29 22  1  0
  1 35  1  0
  1 36  1  0
  1 37  1  0
  4 38  1  0
  5 39  1  0
  9 40  1  0
 10 41  1  0
 10 42  1  0
 12 43  1  0
 13 44  1  0
 14 45  1  0
 18 46  1  0
 20 47  1  0
 21 48  1  0
 24 49  1  0
 25 50  1  0
 25 51  1  0
 27 52  1  0
 27 53  1  0
 27 54  1  0
 28 55  1  0
 28 56  1  0
 29 57  1  0
 29 58  1  0
 30 59  1  0
 31 60  1  0
 34 61  1  0
 34 62  1  0
 34 63  1  0
M  END
$$$$
