@<TRIPOS>MOLECULE
*****
 63 66 0 0 0
SMALL
GASTEIGER

@<TRIPOS>ATOM
      1 C          -7.6011   -2.0996    3.9599 C.3     1  UNL1        0.0790
      2 O          -7.7310   -2.0276    2.5543 O.3     1  UNL1       -0.4915
      3 C          -6.9252   -1.1800    1.8057 C.ar    1  UNL1        0.1615
      4 C          -5.9650   -0.3684    2.3459 C.ar    1  UNL1       -0.0156
      5 C          -5.1653    0.4772    1.5677 C.ar    1  UNL1       -0.0459
      6 C          -5.3189    0.5245    0.2022 C.ar    1  UNL1        0.0404
      7 C          -4.5089    1.3940   -0.6575 C.2     1  UNL1        0.2445
      8 O          -4.7542    1.3869   -1.8853 O.2     1  UNL1       -0.2702
      9 N          -3.4742    2.2367   -0.1974 N.am    1  UNL1       -0.3072
     10 C          -2.6564    3.1035   -0.9862 C.3     1  UNL1        0.0372
     11 C          -1.6036    2.3939   -1.7195 C.ar    1  UNL1       -0.0296
     12 C          -1.7923    1.9651   -3.0136 C.ar    1  UNL1       -0.0570
     13 C          -0.7689    1.3002   -3.6526 C.ar    1  UNL1       -0.0607
     14 C           0.4513    1.0586   -3.0043 C.ar    1  UNL1       -0.0496
     15 C           0.6621    1.4774   -1.7135 C.ar    1  UNL1        0.0373
     16 C           1.9224    1.2357   -1.0280 C.2     1  UNL1        0.2483
     17 O           2.0960    1.5958    0.1737 O.2     1  UNL1       -0.2699
     18 N           3.0141    0.5931   -1.6542 N.am    1  UNL1       -0.2815
     19 C           4.2480    0.3660   -0.9540 C.ar    1  UNL1        0.0340
     20 C           5.2478    1.3139   -0.9822 C.ar    1  UNL1       -0.0402
     21 C           6.4325    1.0739   -0.3074 C.ar    1  UNL1       -0.0565
     22 C           6.6576   -0.0789    0.3960 C.ar    1  UNL1       -0.0416
     23 C           5.6596   -1.0337    0.4288 C.ar    1  UNL1       -0.0284
     24 C           4.4777   -0.7975   -0.2425 C.ar    1  UNL1       -0.0358
     25 C           5.7938   -2.3205    1.1585 C.3     1  UNL1        0.0241
     26 N           7.1667   -2.5504    1.5802 N.3     1  UNL1       -0.3008
     27 C           7.9940   -2.9535    0.4567 C.3     1  UNL1       -0.0124
     28 C           7.6878   -1.3414    2.1935 C.3     1  UNL1        0.0029
     29 C           7.9445   -0.3274    1.1207 C.3     1  UNL1       -0.0146
     30 C          -0.3797    2.1425   -1.0920 C.ar    1  UNL1       -0.0449
     31 C          -6.2939   -0.2994   -0.3458 C.ar    1  UNL1       -0.0042
     32 C          -7.0807   -1.1314    0.4168 C.ar    1  UNL1        0.1622
     33 O          -8.0502   -1.9536   -0.1147 O.3     1  UNL1       -0.4914
     34 C          -8.3106   -2.0096   -1.4984 C.3     1  UNL1        0.0790
     35 H          -8.6132   -2.3889    4.3695 H       1  UNL1        0.0660
     36 H          -6.8204   -2.8129    4.2866 H       1  UNL1        0.0660
     37 H          -7.4045   -1.1016    4.4020 H       1  UNL1        0.0660
     38 H          -5.7971   -0.3591    3.4068 H       1  UNL1        0.0655
     39 H          -4.4195    1.1011    2.0367 H       1  UNL1        0.0626
     40 H          -3.2939    2.2128    0.8549 H       1  UNL1        0.1493
     41 H          -2.1430    3.8409   -0.3156 H       1  UNL1        0.0512
     42 H          -3.3038    3.7214   -1.6506 H       1  UNL1        0.0512
     43 H          -2.7335    2.1616   -3.5056 H       1  UNL1        0.0621
     44 H          -0.9296    0.9661   -4.6740 H       1  UNL1        0.0618
     45 H           1.2229    0.5345   -3.5451 H       1  UNL1        0.0625
     46 H           2.9596    0.2680   -2.6341 H       1  UNL1        0.1551
     47 H           5.1294    2.2594   -1.5288 H       1  UNL1        0.0636
     48 H           7.2311    1.8137   -0.3205 H       1  UNL1        0.0621
     49 H           3.6945   -1.5522   -0.2138 H       1  UNL1        0.0639
     50 H           5.4249   -3.1926    0.5820 H       1  UNL1        0.0476
     51 H           5.1800   -2.2506    2.0775 H       1  UNL1        0.0476
     52 H           9.0450   -2.9238    0.7916 H       1  UNL1        0.0391
     53 H           7.8808   -2.2832   -0.4181 H       1  UNL1        0.0391
     54 H           7.7488   -3.9833    0.1556 H       1  UNL1        0.0391
     55 H           8.5813   -1.5823    2.7723 H       1  UNL1        0.0430
     56 H           6.8907   -0.9192    2.8531 H       1  UNL1        0.0430
     57 H           8.2721    0.6352    1.6038 H       1  UNL1        0.0326
     58 H           8.7407   -0.6373    0.4163 H       1  UNL1        0.0326
     59 H          -0.2131    2.4720   -0.0748 H       1  UNL1        0.0628
     60 H          -6.4162   -0.2639   -1.4156 H       1  UNL1        0.0663
     61 H          -7.4693   -2.5872   -1.9531 H       1  UNL1        0.0660
     62 H          -8.2532   -0.9833   -1.9278 H       1  UNL1        0.0660
     63 H          -9.2673   -2.4776   -1.7427 H       1  UNL1        0.0660
@<TRIPOS>BOND
     1     1     2    1
     2     2     3    1
     3     3     4   ar
     4     4     5   ar
     5     5     6   ar
     6     6     7    1
     7     7     8    2
     8     7     9   am
     9     9    10    1
    10    10    11    1
    11    11    12   ar
    12    12    13   ar
    13    13    14   ar
    14    14    15   ar
    15    15    16    1
    16    16    17    2
    17    16    18   am
    18    18    19    1
    19    19    20   ar
    20    20    21   ar
    21    21    22   ar
    22    22    23   ar
    23    23    24   ar
    24    23    25    1
    25    25    26    1
    26    26    27    1
    27    26    28    1
    28    28    29    1
    29    15    30   ar
    30     6    31   ar
    31    31    32   ar
    32    32    33    1
    33    33    34    1
    34    32     3   ar
    35    30    11   ar
    36    24    19   ar
    37    29    22    1
    38     1    35    1
    39     1    36    1
    40     1    37    1
    41     4    38    1
    42     5    39    1
    43     9    40    1
    44    10    41    1
    45    10    42    1
    46    12    43    1
    47    13    44    1
    48    14    45    1
    49    18    46    1
    50    20    47    1
    51    21    48    1
    52    24    49    1
    53    25    50    1
    54    25    51    1
    55    27    52    1
    56    27    53    1
    57    27    54    1
    58    28    55    1
    59    28    56    1
    60    29    57    1
    61    29    58    1
    62    30    59    1
    63    31    60    1
    64    34    61    1
    65    34    62    1
    66    34    63    1
