@<TRIPOS>MOLECULE
*****
 58 62 0 0 0
SMALL
GASTEIGER

@<TRIPOS>ATOM
      1 C          -7.2081   -1.3137    0.9912 C.3     1  UNL1       -0.0396
      2 C          -5.7311   -1.1368    1.0993 C.ar    1  UNL1       -0.0483
      3 C          -4.9594   -1.9347    1.9169 C.ar    1  UNL1       -0.0580
      4 C          -3.5947   -1.7134    1.9671 C.ar    1  UNL1       -0.0473
      5 C          -2.9799   -0.7249    1.2295 C.ar    1  UNL1        0.0640
      6 C          -1.5507   -0.4764    1.2623 C.2     1  UNL1        0.2491
      7 O          -1.1373    0.3533    2.1166 O.2     1  UNL1       -0.2699
      8 N          -0.6909   -1.1516    0.3634 N.am    1  UNL1       -0.2895
      9 C          -1.2579   -2.0891   -0.5858 C.3     1  UNL1        0.0388
     10 C          -0.1324   -2.7535   -1.3477 C.3     1  UNL1        0.0638
     11 O           0.7781   -1.8976   -1.8951 O.3     1  UNL1       -0.3734
     12 C           1.1048   -0.7868   -1.1349 C.3     1  UNL1        0.0747
     13 C           0.3896    0.3923   -1.7700 C.3     1  UNL1       -0.0369
     14 C           0.7362   -1.0033    0.2914 C.3     1  UNL1        0.0562
     15 C           1.3092   -0.0365    1.2631 C.3     1  UNL1       -0.0065
     16 C           2.7850    0.0310    1.0978 C.ar    1  UNL1       -0.0435
     17 C           3.6278   -0.8307    1.8105 C.ar    1  UNL1       -0.0584
     18 C           4.9995   -0.7991    1.6893 C.ar    1  UNL1       -0.0594
     19 C           5.5928    0.1102    0.8367 C.ar    1  UNL1       -0.0345
     20 C           4.7992    0.9773    0.1158 C.ar    1  UNL1        0.0864
     21 N           5.3947    1.9268   -0.7726 N.ar    1  UNL1       -0.1503
     22 N           5.0631    3.1976   -0.8593 N.ar    1  UNL1       -0.1556
     23 C           5.8225    3.8176   -1.8009 C.ar    1  UNL1        0.0697
     24 C           6.6571    2.8516   -2.3039 C.ar    1  UNL1        0.0697
     25 N           6.3541    1.7137   -1.6406 N.ar    1  UNL1       -0.1556
     26 C           3.4205    0.9195    0.2609 C.ar    1  UNL1       -0.0313
     27 C          -3.7712    0.0570    0.4222 C.ar    1  UNL1        0.0985
     28 N          -3.1515    1.0826   -0.3417 N.ar    1  UNL1       -0.1496
     29 N          -3.4187    1.3283   -1.6153 N.ar    1  UNL1       -0.1556
     30 C          -2.6668    2.3688   -2.0586 C.ar    1  UNL1        0.0697
     31 C          -1.9039    2.7726   -0.9928 C.ar    1  UNL1        0.0697
     32 N          -2.2391    1.9594    0.0172 N.ar    1  UNL1       -0.1556
     33 C          -5.1573   -0.1461    0.3528 C.ar    1  UNL1       -0.0309
     34 H          -7.4802   -2.0418    0.1929 H       1  UNL1        0.0278
     35 H          -7.6608   -0.3069    0.8105 H       1  UNL1        0.0278
     36 H          -7.5770   -1.7245    1.9487 H       1  UNL1        0.0278
     37 H          -5.4533   -2.7025    2.4867 H       1  UNL1        0.0620
     38 H          -2.9699   -2.3305    2.6043 H       1  UNL1        0.0626
     39 H          -2.0351   -1.6604   -1.2267 H       1  UNL1        0.0487
     40 H          -1.7146   -2.9045    0.0456 H       1  UNL1        0.0487
     41 H          -0.6221   -3.3164   -2.1881 H       1  UNL1        0.0575
     42 H           0.3179   -3.5355   -0.6958 H       1  UNL1        0.0575
     43 H           2.1977   -0.5805   -1.2543 H       1  UNL1        0.0612
     44 H          -0.7069    0.2529   -1.7798 H       1  UNL1        0.0255
     45 H           0.6896    0.3668   -2.8591 H       1  UNL1        0.0255
     46 H           0.7077    1.3652   -1.3908 H       1  UNL1        0.0255
     47 H           1.1551   -2.0169    0.5690 H       1  UNL1        0.0529
     48 H           1.1276   -0.3865    2.2994 H       1  UNL1        0.0332
     49 H           0.9160    0.9941    1.1553 H       1  UNL1        0.0332
     50 H           3.1435   -1.5499    2.4857 H       1  UNL1        0.0620
     51 H           5.5914   -1.5082    2.2825 H       1  UNL1        0.0618
     52 H           6.6783    0.1411    0.7355 H       1  UNL1        0.0639
     53 H           5.7732    4.8574   -2.0890 H       1  UNL1        0.0864
     54 H           7.3961    3.0108   -3.0766 H       1  UNL1        0.0864
     55 H           2.8334    1.6145   -0.3194 H       1  UNL1        0.0642
     56 H          -2.6353    2.8258   -3.0380 H       1  UNL1        0.0864
     57 H          -1.1932    3.5904   -1.0265 H       1  UNL1        0.0864
     58 H          -5.7622    0.4806   -0.2893 H       1  UNL1        0.0642
@<TRIPOS>BOND
     1     1     2    1
     2     2     3   ar
     3     3     4   ar
     4     4     5   ar
     5     5     6    1
     6     6     7    2
     7     6     8   am
     8     8     9    1
     9     9    10    1
    10    10    11    1
    11    11    12    1
    12    12    13    1
    13    12    14    1
    14    14    15    1
    15    15    16    1
    16    16    17   ar
    17    17    18   ar
    18    18    19   ar
    19    19    20   ar
    20    20    21    1
    21    21    22   ar
    22    22    23   ar
    23    23    24   ar
    24    24    25   ar
    25    20    26   ar
    26     5    27   ar
    27    27    28    1
    28    28    29   ar
    29    29    30   ar
    30    30    31   ar
    31    31    32   ar
    32    27    33   ar
    33    33     2   ar
    34    14     8    1
    35    26    16   ar
    36    32    28   ar
    37    25    21   ar
    38     1    34    1
    39     1    35    1
    40     1    36    1
    41     3    37    1
    42     4    38    1
    43     9    39    1
    44     9    40    1
    45    10    41    1
    46    10    42    1
    47    12    43    1
    48    13    44    1
    49    13    45    1
    50    13    46    1
    51    14    47    1
    52    15    48    1
    53    15    49    1
    54    17    50    1
    55    18    51    1
    56    19    52    1
    57    23    53    1
    58    24    54    1
    59    26    55    1
    60    30    56    1
    61    31    57    1
    62    33    58    1
