@<TRIPOS>MOLECULE
*****
 57 61 0 0 0
SMALL
GASTEIGER

@<TRIPOS>ATOM
      1 C           4.5698    0.9916    1.1211 C.3     1  UNL1        0.0153
      2 N           3.3597    0.3151    0.6680 N.ar    1  UNL1       -0.3093
      3 C           2.1389    0.8588    0.9109 C.ar    1  UNL1        0.2773
      4 O           2.1306    1.9505    1.5393 O.2     1  UNL1       -0.2654
      5 C           0.9385    0.3089    0.5291 C.ar    1  UNL1        0.1363
      6 C           1.0344   -0.8989   -0.1538 C.ar    1  UNL1        0.1053
      7 N          -0.2078   -1.2648   -0.4091 N.ar    1  UNL1       -0.2134
      8 C          -1.0832   -0.3385    0.0844 C.ar    1  UNL1        0.1997
      9 N          -2.4728   -0.6097   -0.0519 N.pl3   1  UNL1       -0.2995
     10 C          -2.9837   -1.2042   -1.3028 C.3     1  UNL1        0.0149
     11 C          -4.4813   -1.0636   -1.3050 C.3     1  UNL1       -0.0357
     12 C          -5.1260   -1.8346   -0.1759 C.3     1  UNL1       -0.0349
     13 C          -4.3331   -1.6454    1.0883 C.3     1  UNL1        0.0208
     14 N          -3.4867   -2.8301    1.2501 N.3     1  UNL1       -0.3259
     15 C          -3.4594   -0.3947    0.9789 C.3     1  UNL1        0.0300
     16 N          -0.3856    0.6500    0.6672 N.ar    1  UNL1       -0.3030
     17 C          -0.8803    1.8347    1.2475 C.3     1  UNL1        0.0530
     18 C          -0.8872    3.1078    0.5317 C.ar    1  UNL1       -0.0067
     19 C          -0.0578    4.1200    0.9798 C.ar    1  UNL1       -0.0202
     20 C           0.0071    5.3657    0.4313 C.ar    1  UNL1        0.1238
     21 F           0.8625    6.3262    0.9309 F       1  UNL1       -0.2055
     22 C          -0.8070    5.6392   -0.6400 C.ar    1  UNL1       -0.0251
     23 C          -1.6581    4.6904   -1.1418 C.ar    1  UNL1       -0.0404
     24 C          -1.6847    3.4236   -0.5394 C.ar    1  UNL1        0.0460
     25 CL         -2.8282    2.2717   -1.2273 Cl      1  UNL1       -0.0832
     26 C           2.2793   -1.4579   -0.4038 C.ar    1  UNL1        0.0263
     27 C           2.3097   -2.6597   -1.0822 C.ar    1  UNL1       -0.0497
     28 C           3.5347   -3.2368   -1.3379 C.ar    1  UNL1       -0.0470
     29 C           4.7338   -2.6661   -0.9455 C.ar    1  UNL1        0.0608
     30 C           6.0160   -3.2822   -1.2132 C.2     1  UNL1        0.3369
     31 O           7.0614   -2.7168   -0.8398 O.2     1  UNL1       -0.2451
     32 O           6.0724   -4.4833   -1.8749 O.3     1  UNL1       -0.4771
     33 C           4.6285   -1.4568   -0.2675 C.ar    1  UNL1       -0.0235
     34 C           3.4366   -0.8453    0.0098 C.ar    1  UNL1        0.0546
     35 H           4.2759    2.0207    1.4120 H       1  UNL1        0.0457
     36 H           4.9753    0.5112    2.0246 H       1  UNL1        0.0457
     37 H           5.2962    1.0777    0.3041 H       1  UNL1        0.0457
     38 H          -2.6549   -2.2431   -1.4233 H       1  UNL1        0.0464
     39 H          -2.6067   -0.5671   -2.1431 H       1  UNL1        0.0464
     40 H          -4.8919   -1.4614   -2.2531 H       1  UNL1        0.0281
     41 H          -4.7415   -0.0005   -1.2499 H       1  UNL1        0.0281
     42 H          -6.1722   -1.5115   -0.0947 H       1  UNL1        0.0281
     43 H          -5.1467   -2.9274   -0.4630 H       1  UNL1        0.0281
     44 H          -4.9778   -1.5329    1.9737 H       1  UNL1        0.0474
     45 H          -4.1612   -3.6234    1.4644 H       1  UNL1        0.1185
     46 H          -2.9771   -2.6895    2.1737 H       1  UNL1        0.1185
     47 H          -2.9723   -0.3264    1.9864 H       1  UNL1        0.0480
     48 H          -4.1299    0.4524    0.7997 H       1  UNL1        0.0480
     49 H          -0.4119    2.0168    2.2594 H       1  UNL1        0.0543
     50 H          -1.9794    1.6830    1.5481 H       1  UNL1        0.0543
     51 H           0.5755    3.9534    1.8417 H       1  UNL1        0.0650
     52 H          -0.7603    6.6246   -1.0798 H       1  UNL1        0.0647
     53 H          -2.3121    4.9060   -1.9981 H       1  UNL1        0.0633
     54 H           1.3880   -3.1051   -1.3867 H       1  UNL1        0.0625
     55 H           3.6010   -4.1951   -1.8762 H       1  UNL1        0.0626
     56 H           6.9476   -5.0254   -1.9195 H       1  UNL1        0.2954
     57 H           5.5455   -1.0017    0.0429 H       1  UNL1        0.0646
@<TRIPOS>BOND
     1     1     2    1
     2     2     3   ar
     3     3     4    2
     4     3     5   ar
     5     5     6   ar
     6     6     7   ar
     7     7     8   ar
     8     8     9    1
     9     9    10    1
    10    10    11    1
    11    11    12    1
    12    12    13    1
    13    13    14    1
    14    13    15    1
    15     8    16   ar
    16    16    17    1
    17    17    18    1
    18    18    19   ar
    19    19    20   ar
    20    20    21    1
    21    20    22   ar
    22    22    23   ar
    23    23    24   ar
    24    24    25    1
    25     6    26   ar
    26    26    27   ar
    27    27    28   ar
    28    28    29   ar
    29    29    30    1
    30    30    31    2
    31    30    32    1
    32    29    33   ar
    33    33    34   ar
    34    34     2   ar
    35    16     5   ar
    36    24    18   ar
    37    34    26   ar
    38    15     9    1
    39     1    35    1
    40     1    36    1
    41     1    37    1
    42    10    38    1
    43    10    39    1
    44    11    40    1
    45    11    41    1
    46    12    42    1
    47    12    43    1
    48    13    44    1
    49    14    45    1
    50    14    46    1
    51    15    47    1
    52    15    48    1
    53    17    49    1
    54    17    50    1
    55    19    51    1
    56    22    52    1
    57    23    53    1
    58    27    54    1
    59    28    55    1
    60    32    56    1
    61    33    57    1
