
     RDKit          3D

 41 43  0  0  0  0  0  0  0  0999 V2000
   -7.1041   -1.2537    0.2800 C   0  0  0  0  0  0  0  0  0  0  0  0
   -6.6240   -0.6252    1.5777 C   0  0  0  0  0  0  0  0  0  0  0  0
   -5.1933   -0.7592    1.7324 N   0  0  0  0  0  0  0  0  0  0  0  0
   -4.3458   -0.1650    0.7252 C   0  0  0  0  0  0  0  0  0  0  0  0
   -4.8878    0.4234   -0.2105 O   0  0  0  0  0  0  0  0  0  0  0  0
   -2.9479   -0.2493    0.8005 N   0  0  0  0  0  0  0  0  0  0  0  0
   -2.0114    0.2852   -0.1134 C   0  0  0  0  0  0  0  0  0  0  0  0
   -2.3262    0.9784   -1.2302 C   0  0  0  0  0  0  0  0  0  0  0  0
   -1.3463    1.4768   -2.0871 C   0  0  0  0  0  0  0  0  0  0  0  0
   -0.0411    1.2534   -1.7808 C   0  0  0  0  0  0  0  0  0  0  0  0
    0.9720    1.7059   -2.5642 N   0  0  0  0  0  0  0  0  0  0  0  0
    2.2691    1.4872   -2.2653 C   0  0  0  0  0  0  0  0  0  0  0  0
    2.5946    0.7829   -1.1308 C   0  0  0  0  0  0  0  0  0  0  0  0
    3.9886    0.5289   -0.7785 C   0  0  0  0  0  0  0  0  0  0  0  0
    5.0722    0.9406   -1.4986 C   0  0  0  0  0  0  0  0  0  0  0  0
    6.3698    0.6430   -1.0709 C   0  0  0  0  0  0  0  0  0  0  0  0
    6.6164   -0.0688    0.0793 C   0  0  0  0  0  0  0  0  0  0  0  0
    8.2483   -0.4324    0.5998 Cl  0  0  0  0  0  0  0  0  0  0  0  0
    5.5301   -0.4899    0.8149 C   0  0  0  0  0  0  0  0  0  0  0  0
    4.2521   -0.1945    0.3899 C   0  0  0  0  0  0  0  0  0  0  0  0
    3.1554   -0.6246    1.1405 O   0  0  0  0  0  0  0  0  0  0  0  0
    3.3524   -1.3579    2.3282 C   0  0  0  0  0  0  0  0  0  0  0  0
    1.5842    0.3396   -0.3625 N   0  0  0  0  0  0  0  0  0  0  0  0
    0.2755    0.5463   -0.6414 C   0  0  0  0  0  0  0  0  0  0  0  0
   -0.6831    0.0766    0.1678 N   0  0  0  0  0  0  0  0  0  0  0  0
   -7.3599   -0.4760   -0.4648 H   0  0  0  0  0  0  0  0  0  0  0  0
   -7.9975   -1.8684    0.5422 H   0  0  0  0  0  0  0  0  0  0  0  0
   -6.3534   -1.9662   -0.1272 H   0  0  0  0  0  0  0  0  0  0  0  0
   -6.8711    0.4492    1.6329 H   0  0  0  0  0  0  0  0  0  0  0  0
   -7.0903   -1.1179    2.4650 H   0  0  0  0  0  0  0  0  0  0  0  0
   -4.7479   -1.2595    2.5287 H   0  0  0  0  0  0  0  0  0  0  0  0
   -2.5758   -0.7812    1.6515 H   0  0  0  0  0  0  0  0  0  0  0  0
   -3.3430    1.1704   -1.4981 H   0  0  0  0  0  0  0  0  0  0  0  0
   -1.6232    2.0192   -2.9596 H   0  0  0  0  0  0  0  0  0  0  0  0
    3.0652    1.8620   -2.9122 H   0  0  0  0  0  0  0  0  0  0  0  0
    4.9381    1.4937   -2.3949 H   0  0  0  0  0  0  0  0  0  0  0  0
    7.2333    0.9678   -1.6393 H   0  0  0  0  0  0  0  0  0  0  0  0
    5.7202   -1.0556    1.7293 H   0  0  0  0  0  0  0  0  0  0  0  0
    4.1109   -0.8604    2.9677 H   0  0  0  0  0  0  0  0  0  0  0  0
    3.7521   -2.3618    2.0811 H   0  0  0  0  0  0  0  0  0  0  0  0
    2.3728   -1.4629    2.8524 H   0  0  0  0  0  0  0  0  0  0  0  0
  1  2  1  0
  2  3  1  0
  3  4  1  0
  4  5  2  0
  4  6  1  0
  6  7  1  0
  7  8  2  0
  8  9  1  0
  9 10  2  0
 10 11  1  0
 11 12  2  0
 12 13  1  0
 13 14  1  0
 14 15  2  0
 15 16  1  0
 16 17  2  0
 17 18  1  0
 17 19  1  0
 19 20  2  0
 20 21  1  0
 21 22  1  0
 13 23  2  0
 23 24  1  0
 24 25  2  0
 25  7  1  0
 24 10  1  0
 20 14  1  0
  1 26  1  0
  1 27  1  0
  1 28  1  0
  2 29  1  0
  2 30  1  0
  3 31  1  0
  6 32  1  0
  8 33  1  0
  9 34  1  0
 12 35  1  0
 15 36  1  0
 16 37  1  0
 19 38  1  0
 22 39  1  0
 22 40  1  0
 22 41  1  0
M  END
$$$$
