@<TRIPOS>MOLECULE
*****
 41 43 0 0 0
SMALL
GASTEIGER

@<TRIPOS>ATOM
      1 C          -7.1041   -1.2537    0.2800 C.3     1  UNL1       -0.0495
      2 C          -6.6240   -0.6252    1.5777 C.3     1  UNL1        0.0102
      3 N          -5.1933   -0.7592    1.7324 N.am    1  UNL1       -0.2994
      4 C          -4.3458   -0.1650    0.7252 C.2     1  UNL1        0.3049
      5 O          -4.8878    0.4234   -0.2105 O.2     1  UNL1       -0.2525
      6 N          -2.9479   -0.2493    0.8005 N.am    1  UNL1       -0.2541
      7 C          -2.0114    0.2852   -0.1134 C.ar    1  UNL1        0.1286
      8 C          -2.3262    0.9784   -1.2302 C.ar    1  UNL1       -0.0193
      9 C          -1.3463    1.4768   -2.0871 C.ar    1  UNL1       -0.0294
     10 C          -0.0411    1.2534   -1.7808 C.ar    1  UNL1        0.1081
     11 N           0.9720    1.7059   -2.5642 N.ar    1  UNL1       -0.2497
     12 C           2.2691    1.4872   -2.2653 C.ar    1  UNL1        0.0545
     13 C           2.5946    0.7829   -1.1308 C.ar    1  UNL1        0.0949
     14 C           3.9886    0.5289   -0.7785 C.ar    1  UNL1        0.0436
     15 C           5.0722    0.9406   -1.4986 C.ar    1  UNL1       -0.0476
     16 C           6.3698    0.6430   -1.0709 C.ar    1  UNL1       -0.0425
     17 C           6.6164   -0.0688    0.0793 C.ar    1  UNL1        0.0445
     18 CL          8.2483   -0.4324    0.5998 Cl      1  UNL1       -0.0834
     19 C           5.5301   -0.4899    0.8149 C.ar    1  UNL1       -0.0010
     20 C           4.2521   -0.1945    0.3899 C.ar    1  UNL1        0.1307
     21 O           3.1554   -0.6246    1.1405 O.3     1  UNL1       -0.4944
     22 C           3.3524   -1.3579    2.3282 C.3     1  UNL1        0.0788
     23 N           1.5842    0.3396   -0.3625 N.ar    1  UNL1       -0.2243
     24 C           0.2755    0.5463   -0.6414 C.ar    1  UNL1        0.1807
     25 N          -0.6831    0.0766    0.1678 N.ar    1  UNL1       -0.2108
     26 H          -7.3599   -0.4760   -0.4648 H       1  UNL1        0.0245
     27 H          -7.9975   -1.8684    0.5422 H       1  UNL1        0.0245
     28 H          -6.3534   -1.9662   -0.1272 H       1  UNL1        0.0245
     29 H          -6.8711    0.4492    1.6329 H       1  UNL1        0.0460
     30 H          -7.0903   -1.1179    2.4650 H       1  UNL1        0.0460
     31 H          -4.7479   -1.2595    2.5287 H       1  UNL1        0.1502
     32 H          -2.5758   -0.7812    1.6515 H       1  UNL1        0.1578
     33 H          -3.3430    1.1704   -1.4981 H       1  UNL1        0.0653
     34 H          -1.6232    2.0192   -2.9596 H       1  UNL1        0.0641
     35 H           3.0652    1.8620   -2.9122 H       1  UNL1        0.0852
     36 H           4.9381    1.4937   -2.3949 H       1  UNL1        0.0626
     37 H           7.2333    0.9678   -1.6393 H       1  UNL1        0.0632
     38 H           5.7202   -1.0556    1.7293 H       1  UNL1        0.0669
     39 H           4.1109   -0.8604    2.9677 H       1  UNL1        0.0660
     40 H           3.7521   -2.3618    2.0811 H       1  UNL1        0.0660
     41 H           2.3728   -1.4629    2.8524 H       1  UNL1        0.0660
@<TRIPOS>BOND
     1     1     2    1
     2     2     3    1
     3     3     4   am
     4     4     5    2
     5     4     6   am
     6     6     7    1
     7     7     8   ar
     8     8     9   ar
     9     9    10   ar
    10    10    11   ar
    11    11    12   ar
    12    12    13   ar
    13    13    14    1
    14    14    15   ar
    15    15    16   ar
    16    16    17   ar
    17    17    18    1
    18    17    19   ar
    19    19    20   ar
    20    20    21    1
    21    21    22    1
    22    13    23   ar
    23    23    24   ar
    24    24    25   ar
    25    25     7   ar
    26    24    10   ar
    27    20    14   ar
    28     1    26    1
    29     1    27    1
    30     1    28    1
    31     2    29    1
    32     2    30    1
    33     3    31    1
    34     6    32    1
    35     8    33    1
    36     9    34    1
    37    12    35    1
    38    15    36    1
    39    16    37    1
    40    19    38    1
    41    22    39    1
    42    22    40    1
    43    22    41    1
