
     RDKit          3D

 25 26  0  0  0  0  0  0  0  0999 V2000
    3.7658    0.1058   -1.4864 O   0  0  0  0  0  0  0  0  0  0  0  0
    3.5890   -0.4126   -0.3606 C   0  0  0  0  0  0  0  0  0  0  0  0
    4.6444   -1.1324    0.1776 O   0  0  0  0  0  0  0  0  0  0  0  0
    2.2803   -0.2209    0.3097 C   0  0  0  0  0  0  0  0  0  0  0  0
    1.4115    0.6023   -0.5596 C   0  0  0  0  0  0  0  0  0  0  0  0
    0.0828    0.9065   -0.0909 C   0  0  0  0  0  0  0  0  0  0  0  0
   -0.3466    2.0973    0.4275 C   0  0  0  0  0  0  0  0  0  0  0  0
   -1.6468    1.9897    0.7501 N   0  0  0  0  0  0  0  0  0  0  0  0
   -2.0896    0.7515    0.4558 C   0  0  0  0  0  0  0  0  0  0  0  0
   -3.3197    0.1627    0.5975 C   0  0  0  0  0  0  0  0  0  0  0  0
   -3.4772   -1.1603    0.1967 C   0  0  0  0  0  0  0  0  0  0  0  0
   -2.3886   -1.8325   -0.3305 C   0  0  0  0  0  0  0  0  0  0  0  0
   -1.1577   -1.2361   -0.4700 C   0  0  0  0  0  0  0  0  0  0  0  0
   -0.9942    0.0659   -0.0771 C   0  0  0  0  0  0  0  0  0  0  0  0
    5.4041   -1.4792   -0.4234 H   0  0  0  0  0  0  0  0  0  0  0  0
    2.4940    0.1964    1.3056 H   0  0  0  0  0  0  0  0  0  0  0  0
    1.8354   -1.2585    0.3669 H   0  0  0  0  0  0  0  0  0  0  0  0
    1.9644    1.5730   -0.7446 H   0  0  0  0  0  0  0  0  0  0  0  0
    1.4249    0.1234   -1.5812 H   0  0  0  0  0  0  0  0  0  0  0  0
    0.2228    3.0258    0.5834 H   0  0  0  0  0  0  0  0  0  0  0  0
   -2.2355    2.7297    1.1606 H   0  0  0  0  0  0  0  0  0  0  0  0
   -4.1901    0.6703    1.0102 H   0  0  0  0  0  0  0  0  0  0  0  0
   -4.4369   -1.6105    0.3105 H   0  0  0  0  0  0  0  0  0  0  0  0
   -2.5078   -2.8782   -0.6492 H   0  0  0  0  0  0  0  0  0  0  0  0
   -0.3287   -1.7794   -0.8788 H   0  0  0  0  0  0  0  0  0  0  0  0
  1  2  2  0
  2  3  1  0
  2  4  1  0
  4  5  1  0
  5  6  1  0
  6  7  2  0
  7  8  1  0
  8  9  1  0
  9 10  2  0
 10 11  1  0
 11 12  2  0
 12 13  1  0
 13 14  2  0
 14  6  1  0
 14  9  1  0
  3 15  1  0
  4 16  1  0
  4 17  1  0
  5 18  1  0
  5 19  1  0
  7 20  1  0
  8 21  1  0
 10 22  1  0
 11 23  1  0
 12 24  1  0
 13 25  1  0
M  END
$$$$
