@<TRIPOS>MOLECULE
*****
 25 26 0 0 0
SMALL
GASTEIGER

@<TRIPOS>ATOM
      1 O           3.7658    0.1058   -1.4864 O.2     1  UNL1       -0.2510
      2 C           3.5890   -0.4126   -0.3606 C.2     1  UNL1        0.3050
      3 O           4.6444   -1.1324    0.1776 O.3     1  UNL1       -0.4806
      4 C           2.2803   -0.2209    0.3097 C.3     1  UNL1        0.0488
      5 C           1.4115    0.6023   -0.5596 C.3     1  UNL1       -0.0156
      6 C           0.0828    0.9065   -0.0909 C.ar    1  UNL1       -0.0218
      7 C          -0.3466    2.0973    0.4275 C.ar    1  UNL1        0.0059
      8 N          -1.6468    1.9897    0.7501 N.ar    1  UNL1       -0.3604
      9 C          -2.0896    0.7515    0.4558 C.ar    1  UNL1        0.0467
     10 C          -3.3197    0.1627    0.5975 C.ar    1  UNL1       -0.0378
     11 C          -3.4772   -1.1603    0.1967 C.ar    1  UNL1       -0.0598
     12 C          -2.3886   -1.8325   -0.3305 C.ar    1  UNL1       -0.0611
     13 C          -1.1577   -1.2361   -0.4700 C.ar    1  UNL1       -0.0523
     14 C          -0.9942    0.0659   -0.0771 C.ar    1  UNL1        0.0028
     15 H           5.4041   -1.4792   -0.4234 H       1  UNL1        0.2951
     16 H           2.4940    0.1964    1.3056 H       1  UNL1        0.0381
     17 H           1.8354   -1.2585    0.3669 H       1  UNL1        0.0381
     18 H           1.9644    1.5730   -0.7446 H       1  UNL1        0.0319
     19 H           1.4249    0.1234   -1.5812 H       1  UNL1        0.0319
     20 H           0.2228    3.0258    0.5834 H       1  UNL1        0.0810
     21 H          -2.2355    2.7297    1.1606 H       1  UNL1        0.1653
     22 H          -4.1901    0.6703    1.0102 H       1  UNL1        0.0638
     23 H          -4.4369   -1.6105    0.3105 H       1  UNL1        0.0618
     24 H          -2.5078   -2.8782   -0.6492 H       1  UNL1        0.0618
     25 H          -0.3287   -1.7794   -0.8788 H       1  UNL1        0.0624
@<TRIPOS>BOND
     1     1     2    2
     2     2     3    1
     3     2     4    1
     4     4     5    1
     5     5     6    1
     6     6     7   ar
     7     7     8   ar
     8     8     9   ar
     9     9    10   ar
    10    10    11   ar
    11    11    12   ar
    12    12    13   ar
    13    13    14   ar
    14    14     6   ar
    15    14     9   ar
    16     3    15    1
    17     4    16    1
    18     4    17    1
    19     5    18    1
    20     5    19    1
    21     7    20    1
    22     8    21    1
    23    10    22    1
    24    11    23    1
    25    12    24    1
    26    13    25    1
