@<TRIPOS>MOLECULE
*****
 42 44 0 0 0
SMALL
GASTEIGER

@<TRIPOS>ATOM
      1 N          -4.7004    1.9107   -0.3304 N.3     1  UNL1       -0.3297
      2 C          -4.4128    0.5592   -0.7169 C.3     1  UNL1       -0.0041
      3 C          -2.9879    0.1595   -0.4512 C.3     1  UNL1       -0.0286
      4 C          -2.8154   -1.2811   -0.9012 C.3     1  UNL1       -0.0477
      5 C          -1.8217   -1.9643   -0.0068 C.3     1  UNL1       -0.0372
      6 C          -0.7278   -0.9711    0.3992 C.3     1  UNL1        0.0079
      7 N           0.3840   -1.7413    0.8598 N.3     1  UNL1       -0.3099
      8 C           1.5109   -0.9849    1.2821 C.3     1  UNL1        0.0153
      9 C           2.7495   -1.6160    1.7873 C.3     1  UNL1       -0.0287
     10 C           2.7460   -1.1517    0.3845 C.3     1  UNL1        0.0010
     11 C           3.3592    0.1367   -0.0005 C.ar    1  UNL1       -0.0428
     12 C           3.4736    1.2029    0.8660 C.ar    1  UNL1       -0.0583
     13 C           4.0545    2.3933    0.4672 C.ar    1  UNL1       -0.0615
     14 C           4.5425    2.5619   -0.8121 C.ar    1  UNL1       -0.0617
     15 C           4.4343    1.5078   -1.6837 C.ar    1  UNL1       -0.0615
     16 C           3.8461    0.3051   -1.2769 C.ar    1  UNL1       -0.0583
     17 C          -1.2970   -0.0274    1.3964 C.3     1  UNL1       -0.0372
     18 C          -2.7731    0.1788    1.0477 C.3     1  UNL1       -0.0477
     19 H          -4.4437    2.5400   -1.1427 H       1  UNL1        0.1182
     20 H          -5.7192    2.0046   -0.1957 H       1  UNL1        0.1182
     21 H          -5.1423   -0.1539   -0.2579 H       1  UNL1        0.0425
     22 H          -4.5738    0.4801   -1.8199 H       1  UNL1        0.0425
     23 H          -2.3348    0.8466   -0.9941 H       1  UNL1        0.0313
     24 H          -2.5502   -1.3482   -1.9742 H       1  UNL1        0.0269
     25 H          -3.7928   -1.8075   -0.7795 H       1  UNL1        0.0269
     26 H          -2.2858   -2.3175    0.9324 H       1  UNL1        0.0280
     27 H          -1.2979   -2.8056   -0.5006 H       1  UNL1        0.0280
     28 H          -0.3964   -0.3818   -0.4898 H       1  UNL1        0.0460
     29 H           0.6614   -2.4929    0.1970 H       1  UNL1        0.1225
     30 H           1.3004    0.0270    1.6948 H       1  UNL1        0.0466
     31 H           3.3656   -1.0682    2.5425 H       1  UNL1        0.0287
     32 H           2.7800   -2.7118    1.9539 H       1  UNL1        0.0287
     33 H           2.7133   -1.9223   -0.3952 H       1  UNL1        0.0364
     34 H           3.0849    1.0542    1.8690 H       1  UNL1        0.0620
     35 H           4.1288    3.2033    1.1634 H       1  UNL1        0.0618
     36 H           5.0028    3.4966   -1.1380 H       1  UNL1        0.0618
     37 H           4.8170    1.6351   -2.6928 H       1  UNL1        0.0618
     38 H           3.7747   -0.5057   -1.9827 H       1  UNL1        0.0620
     39 H          -0.8431    1.0015    1.3291 H       1  UNL1        0.0280
     40 H          -1.2650   -0.3785    2.4414 H       1  UNL1        0.0280
     41 H          -3.1780    1.0955    1.4947 H       1  UNL1        0.0269
     42 H          -3.3702   -0.6686    1.4670 H       1  UNL1        0.0269
@<TRIPOS>BOND
     1     1     2    1
     2     2     3    1
     3     3     4    1
     4     4     5    1
     5     5     6    1
     6     6     7    1
     7     7     8    1
     8     8     9    1
     9     9    10    1
    10    10    11    1
    11    11    12   ar
    12    12    13   ar
    13    13    14   ar
    14    14    15   ar
    15    15    16   ar
    16     6    17    1
    17    17    18    1
    18    18     3    1
    19    10     8    1
    20    16    11   ar
    21     1    19    1
    22     1    20    1
    23     2    21    1
    24     2    22    1
    25     3    23    1
    26     4    24    1
    27     4    25    1
    28     5    26    1
    29     5    27    1
    30     6    28    1
    31     7    29    1
    32     8    30    1
    33     9    31    1
    34     9    32    1
    35    10    33    1
    36    12    34    1
    37    13    35    1
    38    14    36    1
    39    15    37    1
    40    16    38    1
    41    17    39    1
    42    17    40    1
    43    18    41    1
    44    18    42    1
