@<TRIPOS>MOLECULE
*****
 72 75 0 0 0
SMALL
GASTEIGER

@<TRIPOS>ATOM
      1 C           8.8639    0.6580    0.5787 C.3     1  UNL1        0.0124
      2 C           7.9686   -0.0244   -0.3972 C.2     1  UNL1        0.2125
      3 O           8.4417   -0.2334   -1.5554 O.2     1  UNL1       -0.2759
      4 N           6.6675   -0.4054   -0.0216 N.am    1  UNL1       -0.3017
      5 C           6.1527   -0.1571    1.3017 C.3     1  UNL1        0.0153
      6 C           4.6931    0.2924    1.1797 C.3     1  UNL1       -0.0260
      7 C           4.5208    0.9295   -0.1735 C.3     1  UNL1        0.0386
      8 C           3.3047    1.7319   -0.3300 C.2     1  UNL1        0.2188
      9 O           3.4428    2.9336   -0.7900 O.2     1  UNL1       -0.2753
     10 N           1.9862    1.3367   -0.0309 N.am    1  UNL1       -0.2999
     11 C           1.5281    0.0858    0.5185 C.3     1  UNL1        0.0223
     12 C           0.0139    0.1174    0.4526 C.3     1  UNL1        0.0125
     13 C          -0.6133   -1.1769    0.2329 C.ar    1  UNL1       -0.0420
     14 C          -0.4177   -1.9591   -0.8851 C.ar    1  UNL1       -0.0582
     15 C          -1.0630   -3.1567   -0.9735 C.ar    1  UNL1       -0.0615
     16 C          -1.9164   -3.6664   -0.0170 C.ar    1  UNL1       -0.0617
     17 C          -2.1097   -2.8792    1.1021 C.ar    1  UNL1       -0.0615
     18 C          -1.4674   -1.6652    1.2120 C.ar    1  UNL1       -0.0582
     19 C          -0.1844    1.1215   -0.6588 C.3     1  UNL1        0.0596
     20 C          -1.5451    1.5105   -0.9480 C.2     1  UNL1        0.2208
     21 O          -1.8672    1.4302   -2.2171 O.2     1  UNL1       -0.2752
     22 N          -2.5793    1.9536   -0.1267 N.am    1  UNL1       -0.2999
     23 C          -2.4880    2.1109    1.3021 C.3     1  UNL1        0.0035
     24 C          -3.8793    2.2818   -0.7740 C.3     1  UNL1        0.0394
     25 C          -4.7914    1.1368   -0.7725 C.ar    1  UNL1       -0.0291
     26 C          -4.8892    0.2176   -1.7919 C.ar    1  UNL1       -0.0454
     27 C          -5.7822   -0.8356   -1.6931 C.ar    1  UNL1        0.0556
     28 C          -5.9142   -1.8509   -2.7813 C.3     1  UNL1        0.4174
     29 F          -7.2156   -1.8179   -3.2909 F       1  UNL1       -0.1659
     30 F          -5.7671   -3.1230   -2.2217 F       1  UNL1       -0.1659
     31 F          -5.0492   -1.6346   -3.8111 F       1  UNL1       -0.1659
     32 C          -6.5735   -0.9689   -0.5802 C.ar    1  UNL1       -0.0385
     33 C          -6.4772   -0.0558    0.4336 C.ar    1  UNL1        0.0556
     34 C          -7.3425   -0.2108    1.6356 C.3     1  UNL1        0.4174
     35 F          -7.3307    0.9887    2.3428 F       1  UNL1       -0.1659
     36 F          -6.8909   -1.2213    2.4581 F       1  UNL1       -0.1659
     37 F          -8.6218   -0.5308    1.2043 F       1  UNL1       -0.1659
     38 C          -5.5999    0.9927    0.3542 C.ar    1  UNL1       -0.0454
     39 C           0.7912    2.1844   -0.2482 C.3     1  UNL1        0.0264
     40 C           4.6529   -0.0913   -1.2496 C.3     1  UNL1       -0.0260
     41 C           5.8059   -1.0628   -0.9702 C.3     1  UNL1        0.0153
     42 H           8.2932    1.5571    0.9550 H       1  UNL1        0.0323
     43 H           9.0734   -0.0686    1.3891 H       1  UNL1        0.0323
     44 H           9.7604    1.0582    0.1012 H       1  UNL1        0.0323
     45 H           6.7211    0.6242    1.8510 H       1  UNL1        0.0465
     46 H           6.2184   -1.0970    1.8727 H       1  UNL1        0.0465
     47 H           4.0938   -0.6145    1.3131 H       1  UNL1        0.0288
     48 H           4.5047    0.9726    2.0271 H       1  UNL1        0.0288
     49 H           5.4201    1.6125   -0.2749 H       1  UNL1        0.0395
     50 H           1.9595   -0.8143    0.1063 H       1  UNL1        0.0471
     51 H           1.8447    0.1053    1.6049 H       1  UNL1        0.0471
     52 H          -0.3234    0.5760    1.3931 H       1  UNL1        0.0372
     53 H           0.2496   -1.5653   -1.6379 H       1  UNL1        0.0620
     54 H          -0.8959   -3.7598   -1.8636 H       1  UNL1        0.0618
     55 H          -2.4058   -4.6292   -0.1394 H       1  UNL1        0.0618
     56 H          -2.7803   -3.2676    1.8662 H       1  UNL1        0.0618
     57 H          -1.6532   -1.0750    2.1235 H       1  UNL1        0.0620
     58 H           0.2940    0.6677   -1.6173 H       1  UNL1        0.0416
     59 H          -3.3729    2.6806    1.7012 H       1  UNL1        0.0429
     60 H          -2.5645    1.1215    1.8252 H       1  UNL1        0.0429
     61 H          -1.5752    2.5959    1.6023 H       1  UNL1        0.0429
     62 H          -4.3275    3.1271   -0.2181 H       1  UNL1        0.0514
     63 H          -3.6795    2.6453   -1.8072 H       1  UNL1        0.0514
     64 H          -4.2828    0.3011   -2.6783 H       1  UNL1        0.0626
     65 H          -7.2668   -1.8180   -0.5428 H       1  UNL1        0.0629
     66 H          -5.5412    1.7085    1.1764 H       1  UNL1        0.0626
     67 H           0.4930    2.6791    0.6642 H       1  UNL1        0.0472
     68 H           0.9944    2.9196   -1.0538 H       1  UNL1        0.0472
     69 H           4.8354    0.4134   -2.2426 H       1  UNL1        0.0288
     70 H           3.7531   -0.7028   -1.3900 H       1  UNL1        0.0288
     71 H           5.3781   -1.9973   -0.5789 H       1  UNL1        0.0465
     72 H           6.3243   -1.2426   -1.9364 H       1  UNL1        0.0465
@<TRIPOS>BOND
     1     1     2    1
     2     2     3    2
     3     2     4   am
     4     4     5    1
     5     5     6    1
     6     6     7    1
     7     7     8    1
     8     8     9    2
     9     8    10   am
    10    10    11    1
    11    11    12    1
    12    12    13    1
    13    13    14   ar
    14    14    15   ar
    15    15    16   ar
    16    16    17   ar
    17    17    18   ar
    18    12    19    1
    19    19    20    1
    20    20    21    2
    21    20    22   am
    22    22    23    1
    23    22    24    1
    24    24    25    1
    25    25    26   ar
    26    26    27   ar
    27    27    28    1
    28    28    29    1
    29    28    30    1
    30    28    31    1
    31    27    32   ar
    32    32    33   ar
    33    33    34    1
    34    34    35    1
    35    34    36    1
    36    34    37    1
    37    33    38   ar
    38    19    39    1
    39     7    40    1
    40    40    41    1
    41    41     4    1
    42    39    10    1
    43    18    13   ar
    44    38    25   ar
    45     1    42    1
    46     1    43    1
    47     1    44    1
    48     5    45    1
    49     5    46    1
    50     6    47    1
    51     6    48    1
    52     7    49    1
    53    11    50    1
    54    11    51    1
    55    12    52    1
    56    14    53    1
    57    15    54    1
    58    16    55    1
    59    17    56    1
    60    18    57    1
    61    19    58    1
    62    23    59    1
    63    23    60    1
    64    23    61    1
    65    24    62    1
    66    24    63    1
    67    26    64    1
    68    32    65    1
    69    38    66    1
    70    39    67    1
    71    39    68    1
    72    40    69    1
    73    40    70    1
    74    41    71    1
    75    41    72    1
