
     RDKit          3D

 72 75  0  0  0  0  0  0  0  0999 V2000
    8.8639    0.6580    0.5787 C   0  0  0  0  0  0  0  0  0  0  0  0
    7.9686   -0.0244   -0.3972 C   0  0  0  0  0  0  0  0  0  0  0  0
    8.4417   -0.2334   -1.5554 O   0  0  0  0  0  0  0  0  0  0  0  0
    6.6675   -0.4054   -0.0216 N   0  0  0  0  0  0  0  0  0  0  0  0
    6.1527   -0.1571    1.3017 C   0  0  0  0  0  0  0  0  0  0  0  0
    4.6931    0.2924    1.1797 C   0  0  0  0  0  0  0  0  0  0  0  0
    4.5208    0.9295   -0.1735 C   0  0  0  0  0  0  0  0  0  0  0  0
    3.3047    1.7319   -0.3300 C   0  0  0  0  0  0  0  0  0  0  0  0
    3.4428    2.9336   -0.7900 O   0  0  0  0  0  0  0  0  0  0  0  0
    1.9862    1.3367   -0.0309 N   0  0  0  0  0  0  0  0  0  0  0  0
    1.5281    0.0858    0.5185 C   0  0  0  0  0  0  0  0  0  0  0  0
    0.0139    0.1174    0.4526 C   0  0  2  0  0  0  0  0  0  0  0  0
   -0.6133   -1.1769    0.2329 C   0  0  0  0  0  0  0  0  0  0  0  0
   -0.4177   -1.9591   -0.8851 C   0  0  0  0  0  0  0  0  0  0  0  0
   -1.0630   -3.1567   -0.9735 C   0  0  0  0  0  0  0  0  0  0  0  0
   -1.9164   -3.6664   -0.0170 C   0  0  0  0  0  0  0  0  0  0  0  0
   -2.1097   -2.8792    1.1021 C   0  0  0  0  0  0  0  0  0  0  0  0
   -1.4674   -1.6652    1.2120 C   0  0  0  0  0  0  0  0  0  0  0  0
   -0.1844    1.1215   -0.6588 C   0  0  1  0  0  0  0  0  0  0  0  0
   -1.5451    1.5105   -0.9480 C   0  0  0  0  0  0  0  0  0  0  0  0
   -1.8672    1.4302   -2.2171 O   0  0  0  0  0  0  0  0  0  0  0  0
   -2.5793    1.9536   -0.1267 N   0  0  0  0  0  0  0  0  0  0  0  0
   -2.4880    2.1109    1.3021 C   0  0  0  0  0  0  0  0  0  0  0  0
   -3.8793    2.2818   -0.7740 C   0  0  0  0  0  0  0  0  0  0  0  0
   -4.7914    1.1368   -0.7725 C   0  0  0  0  0  0  0  0  0  0  0  0
   -4.8892    0.2176   -1.7919 C   0  0  0  0  0  0  0  0  0  0  0  0
   -5.7822   -0.8356   -1.6931 C   0  0  0  0  0  0  0  0  0  0  0  0
   -5.9142   -1.8509   -2.7813 C   0  0  0  0  0  0  0  0  0  0  0  0
   -7.2156   -1.8179   -3.2909 F   0  0  0  0  0  0  0  0  0  0  0  0
   -5.7671   -3.1230   -2.2217 F   0  0  0  0  0  0  0  0  0  0  0  0
   -5.0492   -1.6346   -3.8111 F   0  0  0  0  0  0  0  0  0  0  0  0
   -6.5735   -0.9689   -0.5802 C   0  0  0  0  0  0  0  0  0  0  0  0
   -6.4772   -0.0558    0.4336 C   0  0  0  0  0  0  0  0  0  0  0  0
   -7.3425   -0.2108    1.6356 C   0  0  0  0  0  0  0  0  0  0  0  0
   -7.3307    0.9887    2.3428 F   0  0  0  0  0  0  0  0  0  0  0  0
   -6.8909   -1.2213    2.4581 F   0  0  0  0  0  0  0  0  0  0  0  0
   -8.6218   -0.5308    1.2043 F   0  0  0  0  0  0  0  0  0  0  0  0
   -5.5999    0.9927    0.3542 C   0  0  0  0  0  0  0  0  0  0  0  0
    0.7912    2.1844   -0.2482 C   0  0  0  0  0  0  0  0  0  0  0  0
    4.6529   -0.0913   -1.2496 C   0  0  0  0  0  0  0  0  0  0  0  0
    5.8059   -1.0628   -0.9702 C   0  0  0  0  0  0  0  0  0  0  0  0
    8.2932    1.5571    0.9550 H   0  0  0  0  0  0  0  0  0  0  0  0
    9.0734   -0.0686    1.3891 H   0  0  0  0  0  0  0  0  0  0  0  0
    9.7604    1.0582    0.1012 H   0  0  0  0  0  0  0  0  0  0  0  0
    6.7211    0.6242    1.8510 H   0  0  0  0  0  0  0  0  0  0  0  0
    6.2184   -1.0970    1.8727 H   0  0  0  0  0  0  0  0  0  0  0  0
    4.0938   -0.6145    1.3131 H   0  0  0  0  0  0  0  0  0  0  0  0
    4.5047    0.9726    2.0271 H   0  0  0  0  0  0  0  0  0  0  0  0
    5.4201    1.6125   -0.2749 H   0  0  0  0  0  0  0  0  0  0  0  0
    1.9595   -0.8143    0.1063 H   0  0  0  0  0  0  0  0  0  0  0  0
    1.8447    0.1053    1.6049 H   0  0  0  0  0  0  0  0  0  0  0  0
   -0.3234    0.5760    1.3931 H   0  0  0  0  0  0  0  0  0  0  0  0
    0.2496   -1.5653   -1.6379 H   0  0  0  0  0  0  0  0  0  0  0  0
   -0.8959   -3.7598   -1.8636 H   0  0  0  0  0  0  0  0  0  0  0  0
   -2.4058   -4.6292   -0.1394 H   0  0  0  0  0  0  0  0  0  0  0  0
   -2.7803   -3.2676    1.8662 H   0  0  0  0  0  0  0  0  0  0  0  0
   -1.6532   -1.0750    2.1235 H   0  0  0  0  0  0  0  0  0  0  0  0
    0.2940    0.6677   -1.6173 H   0  0  0  0  0  0  0  0  0  0  0  0
   -3.3729    2.6806    1.7012 H   0  0  0  0  0  0  0  0  0  0  0  0
   -2.5645    1.1215    1.8252 H   0  0  0  0  0  0  0  0  0  0  0  0
   -1.5752    2.5959    1.6023 H   0  0  0  0  0  0  0  0  0  0  0  0
   -4.3275    3.1271   -0.2181 H   0  0  0  0  0  0  0  0  0  0  0  0
   -3.6795    2.6453   -1.8072 H   0  0  0  0  0  0  0  0  0  0  0  0
   -4.2828    0.3011   -2.6783 H   0  0  0  0  0  0  0  0  0  0  0  0
   -7.2668   -1.8180   -0.5428 H   0  0  0  0  0  0  0  0  0  0  0  0
   -5.5412    1.7085    1.1764 H   0  0  0  0  0  0  0  0  0  0  0  0
    0.4930    2.6791    0.6642 H   0  0  0  0  0  0  0  0  0  0  0  0
    0.9944    2.9196   -1.0538 H   0  0  0  0  0  0  0  0  0  0  0  0
    4.8354    0.4134   -2.2426 H   0  0  0  0  0  0  0  0  0  0  0  0
    3.7531   -0.7028   -1.3900 H   0  0  0  0  0  0  0  0  0  0  0  0
    5.3781   -1.9973   -0.5789 H   0  0  0  0  0  0  0  0  0  0  0  0
    6.3243   -1.2426   -1.9364 H   0  0  0  0  0  0  0  0  0  0  0  0
  1  2  1  0
  2  3  2  0
  2  4  1  0
  4  5  1  0
  5  6  1  0
  6  7  1  0
  7  8  1  0
  8  9  2  0
  8 10  1  0
 10 11  1  0
 11 12  1  0
 12 13  1  0
 13 14  2  0
 14 15  1  0
 15 16  2  0
 16 17  1  0
 17 18  2  0
 12 19  1  0
 19 20  1  0
 20 21  2  0
 20 22  1  0
 22 23  1  0
 22 24  1  0
 24 25  1  0
 25 26  2  0
 26 27  1  0
 27 28  1  0
 28 29  1  0
 28 30  1  0
 28 31  1  0
 27 32  2  0
 32 33  1  0
 33 34  1  0
 34 35  1  0
 34 36  1  0
 34 37  1  0
 33 38  2  0
 19 39  1  0
  7 40  1  0
 40 41  1  0
 41  4  1  0
 39 10  1  0
 18 13  1  0
 38 25  1  0
  1 42  1  0
  1 43  1  0
  1 44  1  0
  5 45  1  0
  5 46  1  0
  6 47  1  0
  6 48  1  0
  7 49  1  0
 11 50  1  0
 11 51  1  0
 12 52  1  1
 14 53  1  0
 15 54  1  0
 16 55  1  0
 17 56  1  0
 18 57  1  0
 19 58  1  6
 23 59  1  0
 23 60  1  0
 23 61  1  0
 24 62  1  0
 24 63  1  0
 26 64  1  0
 32 65  1  0
 38 66  1  0
 39 67  1  0
 39 68  1  0
 40 69  1  0
 40 70  1  0
 41 71  1  0
 41 72  1  0
M  END
$$$$
