
     RDKit          3D

 41 42  0  0  0  0  0  0  0  0999 V2000
    6.5002   -0.3936   -0.4166 C   0  0  0  0  0  0  0  0  0  0  0  0
    5.5324   -1.0706    0.3421 O   0  0  0  0  0  0  0  0  0  0  0  0
    4.1590   -0.9245    0.1049 C   0  0  0  0  0  0  0  0  0  0  0  0
    3.6915   -0.1036   -0.8912 C   0  0  0  0  0  0  0  0  0  0  0  0
    2.3206    0.0217   -1.1036 C   0  0  0  0  0  0  0  0  0  0  0  0
    1.4212   -0.6690   -0.3255 C   0  0  0  0  0  0  0  0  0  0  0  0
   -0.2931   -0.5171   -0.5854 S   0  0  0  0  0  6  0  0  0  0  0  0
   -0.4322   -0.1871   -2.0805 O   0  0  0  0  0  0  0  0  0  0  0  0
   -0.9596   -1.8895   -0.5029 O   0  0  0  0  0  0  0  0  0  0  0  0
   -1.0528    0.6692    0.2339 N   0  0  0  0  0  0  0  0  0  0  0  0
   -0.5621    1.9882   -0.1034 C   0  0  0  0  0  0  0  0  0  0  0  0
   -1.2589    2.3592   -1.3677 C   0  0  0  0  0  0  0  0  0  0  0  0
   -0.7084    2.7668   -2.3961 O   0  0  0  0  0  0  0  0  0  0  0  0
   -2.6937    2.1942   -1.2831 N   0  0  0  0  0  0  0  0  0  0  0  0
   -3.4930    2.5851   -2.2833 O   0  0  0  0  0  0  0  0  0  0  0  0
   -3.1627    1.5990   -0.0804 C   0  0  0  0  0  0  0  0  0  0  0  0
   -4.3433    1.8153    0.2697 O   0  0  0  0  0  0  0  0  0  0  0  0
   -2.2876    0.7166    0.7870 C   0  0  1  0  0  0  0  0  0  0  0  0
   -3.1078   -0.5002    1.0398 C   0  0  0  0  0  0  0  0  0  0  0  0
   -2.4774   -1.4989    1.9590 C   0  0  0  0  0  0  0  0  0  0  0  0
   -3.7242   -1.1038   -0.2007 C   0  0  0  0  0  0  0  0  0  0  0  0
    1.8912   -1.4846    0.6645 C   0  0  0  0  0  0  0  0  0  0  0  0
    3.2630   -1.6286    0.8991 C   0  0  0  0  0  0  0  0  0  0  0  0
    6.3235    0.7182   -0.4095 H   0  0  0  0  0  0  0  0  0  0  0  0
    6.5382   -0.6964   -1.4717 H   0  0  0  0  0  0  0  0  0  0  0  0
    7.4803   -0.5469    0.0822 H   0  0  0  0  0  0  0  0  0  0  0  0
    4.3900    0.4337   -1.4966 H   0  0  0  0  0  0  0  0  0  0  0  0
    1.9861    0.6861   -1.9077 H   0  0  0  0  0  0  0  0  0  0  0  0
   -0.9351    2.7189    0.6638 H   0  0  0  0  0  0  0  0  0  0  0  0
    0.5348    2.0187   -0.2034 H   0  0  0  0  0  0  0  0  0  0  0  0
   -4.3190    2.0751   -2.3551 H   0  0  0  0  0  0  0  0  0  0  0  0
   -2.2610    1.2886    1.7648 H   0  0  0  0  0  0  0  0  0  0  0  0
   -4.0052   -0.1075    1.6223 H   0  0  0  0  0  0  0  0  0  0  0  0
   -1.4034   -1.3258    2.1413 H   0  0  0  0  0  0  0  0  0  0  0  0
   -2.9473   -1.5072    2.9636 H   0  0  0  0  0  0  0  0  0  0  0  0
   -2.6735   -2.5166    1.5453 H   0  0  0  0  0  0  0  0  0  0  0  0
   -3.2973   -0.6007   -1.0869 H   0  0  0  0  0  0  0  0  0  0  0  0
   -3.6595   -2.1970   -0.1992 H   0  0  0  0  0  0  0  0  0  0  0  0
   -4.8332   -0.8941   -0.2830 H   0  0  0  0  0  0  0  0  0  0  0  0
    1.2213   -2.0272    1.2774 H   0  0  0  0  0  0  0  0  0  0  0  0
    3.6380   -2.2640    1.6707 H   0  0  0  0  0  0  0  0  0  0  0  0
  1  2  1  0
  2  3  1  0
  3  4  2  0
  4  5  1  0
  5  6  2  0
  6  7  1  0
  7  8  2  0
  7  9  2  0
  7 10  1  0
 10 11  1  0
 11 12  1  0
 12 13  2  0
 12 14  1  0
 14 15  1  0
 14 16  1  0
 16 17  2  0
 16 18  1  0
 18 19  1  0
 19 20  1  0
 19 21  1  0
  6 22  1  0
 22 23  2  0
 23  3  1  0
 18 10  1  0
  1 24  1  0
  1 25  1  0
  1 26  1  0
  4 27  1  0
  5 28  1  0
 11 29  1  0
 11 30  1  0
 15 31  1  0
 18 32  1  1
 19 33  1  0
 20 34  1  0
 20 35  1  0
 20 36  1  0
 21 37  1  0
 21 38  1  0
 21 39  1  0
 22 40  1  0
 23 41  1  0
M  END
$$$$
