@<TRIPOS>MOLECULE
*****
 41 42 0 0 0
SMALL
GASTEIGER

@<TRIPOS>ATOM
      1 C           6.5002   -0.3936   -0.4166 C.3     1  UNL1        0.0788
      2 O           5.5324   -1.0706    0.3421 O.3     1  UNL1       -0.4951
      3 C           4.1590   -0.9245    0.1049 C.ar    1  UNL1        0.1202
      4 C           3.6915   -0.1036   -0.8912 C.ar    1  UNL1       -0.0181
      5 C           2.3206    0.0217   -1.1036 C.ar    1  UNL1       -0.0319
      6 C           1.4212   -0.6690   -0.3255 C.ar    1  UNL1        0.1057
      7 S          -0.2931   -0.5171   -0.5854 S.O2    1  UNL1        0.0620
      8 O          -0.4322   -0.1871   -2.0805 O.2     1  UNL1       -0.1528
      9 O          -0.9596   -1.8895   -0.5029 O.2     1  UNL1       -0.1528
     10 N          -1.0528    0.6692    0.2339 N.3     1  UNL1       -0.1555
     11 C          -0.5621    1.9882   -0.1034 C.3     1  UNL1        0.1002
     12 C          -1.2589    2.3592   -1.3677 C.2     1  UNL1        0.2608
     13 O          -0.7084    2.7668   -2.3961 O.2     1  UNL1       -0.2716
     14 N          -2.6937    2.1942   -1.2831 N.am    1  UNL1       -0.1144
     15 O          -3.4930    2.5851   -2.2833 O.3     1  UNL1       -0.2854
     16 C          -3.1627    1.5990   -0.0804 C.2     1  UNL1        0.2642
     17 O          -4.3433    1.8153    0.2697 O.2     1  UNL1       -0.2713
     18 C          -2.2876    0.7166    0.7870 C.3     1  UNL1        0.1132
     19 C          -3.1078   -0.5002    1.0398 C.3     1  UNL1       -0.0209
     20 C          -2.4774   -1.4989    1.9590 C.3     1  UNL1       -0.0607
     21 C          -3.7242   -1.1038   -0.2007 C.3     1  UNL1       -0.0607
     22 C           1.8912   -1.4846    0.6645 C.ar    1  UNL1       -0.0319
     23 C           3.2630   -1.6286    0.8991 C.ar    1  UNL1       -0.0181
     24 H           6.3235    0.7182   -0.4095 H       1  UNL1        0.0660
     25 H           6.5382   -0.6964   -1.4717 H       1  UNL1        0.0660
     26 H           7.4803   -0.5469    0.0822 H       1  UNL1        0.0660
     27 H           4.3900    0.4337   -1.4966 H       1  UNL1        0.0655
     28 H           1.9861    0.6861   -1.9077 H       1  UNL1        0.0638
     29 H          -0.9351    2.7189    0.6638 H       1  UNL1        0.0540
     30 H           0.5348    2.0187   -0.2034 H       1  UNL1        0.0540
     31 H          -4.3190    2.0751   -2.3551 H       1  UNL1        0.2422
     32 H          -2.2610    1.2886    1.7648 H       1  UNL1        0.0579
     33 H          -4.0052   -0.1075    1.6223 H       1  UNL1        0.0316
     34 H          -1.4034   -1.3258    2.1413 H       1  UNL1        0.0233
     35 H          -2.9473   -1.5072    2.9636 H       1  UNL1        0.0233
     36 H          -2.6735   -2.5166    1.5453 H       1  UNL1        0.0233
     37 H          -3.2973   -0.6007   -1.0869 H       1  UNL1        0.0233
     38 H          -3.6595   -2.1970   -0.1992 H       1  UNL1        0.0233
     39 H          -4.8332   -0.8941   -0.2830 H       1  UNL1        0.0233
     40 H           1.2213   -2.0272    1.2774 H       1  UNL1        0.0638
     41 H           3.6380   -2.2640    1.6707 H       1  UNL1        0.0655
@<TRIPOS>BOND
     1     1     2    1
     2     2     3    1
     3     3     4   ar
     4     4     5   ar
     5     5     6   ar
     6     6     7    1
     7     7     8    2
     8     7     9    2
     9     7    10    1
    10    10    11    1
    11    11    12    1
    12    12    13    2
    13    12    14   am
    14    14    15    1
    15    14    16   am
    16    16    17    2
    17    16    18    1
    18    18    19    1
    19    19    20    1
    20    19    21    1
    21     6    22   ar
    22    22    23   ar
    23    23     3   ar
    24    18    10    1
    25     1    24    1
    26     1    25    1
    27     1    26    1
    28     4    27    1
    29     5    28    1
    30    11    29    1
    31    11    30    1
    32    15    31    1
    33    18    32    1
    34    19    33    1
    35    20    34    1
    36    20    35    1
    37    20    36    1
    38    21    37    1
    39    21    38    1
    40    21    39    1
    41    22    40    1
    42    23    41    1
