@<TRIPOS>MOLECULE
*****
 61 65 0 0 0
SMALL
GASTEIGER

@<TRIPOS>ATOM
      1 O          -3.8039    2.5882   -2.4383 O.3     1  UNL1       -0.3791
      2 C          -4.2986    1.9508   -1.3142 C.3     1  UNL1        0.1436
      3 C          -3.2482    1.0518   -0.7649 C.ar    1  UNL1        0.2286
      4 N          -3.2965   -0.2724   -0.5476 N.ar    1  UNL1       -0.2102
      5 C          -2.1026   -0.7036   -0.0275 C.ar    1  UNL1        0.1173
      6 C          -1.7763   -2.0803    0.3402 C.ar    1  UNL1        0.0043
      7 C          -2.2069   -2.6194    1.5378 C.ar    1  UNL1       -0.0497
      8 C          -1.9223   -3.9177    1.9073 C.ar    1  UNL1       -0.0258
      9 C          -1.1848   -4.7388    1.0808 C.ar    1  UNL1        0.1234
     10 F          -0.8837   -6.0188    1.4051 F       1  UNL1       -0.2055
     11 C          -0.7509   -4.2096   -0.1165 C.ar    1  UNL1       -0.0258
     12 C          -1.0404   -2.8952   -0.4882 C.ar    1  UNL1       -0.0497
     13 C          -1.3475    0.4419    0.0496 C.ar    1  UNL1        0.1633
     14 C           0.0104    0.5119    0.5433 C.ar    1  UNL1        0.0241
     15 C           0.2463    1.3438    1.6427 C.ar    1  UNL1       -0.0327
     16 C           1.5410    1.4116    2.1203 C.ar    1  UNL1        0.0304
     17 N           2.5518    0.7221    1.5768 N.ar    1  UNL1       -0.2405
     18 C           2.3663   -0.0879    0.5200 C.ar    1  UNL1        0.1195
     19 N           3.4291   -0.8294   -0.0613 N.pl3   1  UNL1       -0.3262
     20 C           4.7624   -0.6945    0.5193 C.3     1  UNL1        0.0220
     21 C           5.2516    0.7324    0.4033 C.3     1  UNL1       -0.0345
     22 C           6.1568    0.9117   -0.8012 C.3     1  UNL1       -0.0514
     23 C           7.4256    0.1219   -0.6763 C.3     1  UNL1       -0.0529
     24 C           7.1445   -1.0904    0.1891 C.3     1  UNL1       -0.0514
     25 C           5.7576   -1.5946   -0.1792 C.3     1  UNL1       -0.0345
     26 C           1.0765   -0.1769    0.0162 C.ar    1  UNL1       -0.0112
     27 O          -2.0697    1.4438   -0.3970 O.2     1  UNL1       -0.4361
     28 C          -5.5247    1.1151   -1.6878 C.3     1  UNL1       -0.0027
     29 C          -6.4125    0.9442   -0.4760 C.3     1  UNL1       -0.0010
     30 N          -7.0334    2.2139   -0.2174 N.3     1  UNL1       -0.3158
     31 C          -6.1194    3.3135   -0.2166 C.3     1  UNL1       -0.0010
     32 C          -4.6636    2.9143   -0.2056 C.3     1  UNL1       -0.0027
     33 H          -3.2811    3.3734   -2.1569 H       1  UNL1        0.2108
     34 H          -2.7891   -2.0054    2.2151 H       1  UNL1        0.0625
     35 H          -2.2534   -4.3572    2.8471 H       1  UNL1        0.0646
     36 H          -0.1641   -4.8545   -0.7800 H       1  UNL1        0.0646
     37 H          -0.6820   -2.5076   -1.4425 H       1  UNL1        0.0625
     38 H          -0.5760    1.8945    2.0730 H       1  UNL1        0.0640
     39 H           1.7788    2.0461    2.9752 H       1  UNL1        0.0830
     40 H           3.2315   -1.4418   -0.8745 H       1  UNL1        0.1477
     41 H           4.6874   -1.0374    1.5688 H       1  UNL1        0.0498
     42 H           4.3623    1.3680    0.2020 H       1  UNL1        0.0283
     43 H           5.7991    1.0732    1.2944 H       1  UNL1        0.0283
     44 H           6.4088    1.9975   -0.8314 H       1  UNL1        0.0266
     45 H           5.6630    0.6472   -1.7411 H       1  UNL1        0.0266
     46 H           8.2528    0.7298   -0.2823 H       1  UNL1        0.0265
     47 H           7.7720   -0.2547   -1.6703 H       1  UNL1        0.0265
     48 H           7.1184   -0.7590    1.2594 H       1  UNL1        0.0266
     49 H           7.9084   -1.8800    0.0946 H       1  UNL1        0.0266
     50 H           5.6255   -2.6468    0.0858 H       1  UNL1        0.0283
     51 H           5.6421   -1.5265   -1.2984 H       1  UNL1        0.0283
     52 H           0.9107   -0.8187   -0.8367 H       1  UNL1        0.0659
     53 H          -5.2489    0.1293   -2.0615 H       1  UNL1        0.0310
     54 H          -6.1338    1.6449   -2.4602 H       1  UNL1        0.0310
     55 H          -5.8720    0.5993    0.4147 H       1  UNL1        0.0425
     56 H          -7.2245    0.2356   -0.7428 H       1  UNL1        0.0425
     57 H          -7.8733    2.4132   -0.7908 H       1  UNL1        0.1219
     58 H          -6.2750    3.8662    0.7577 H       1  UNL1        0.0425
     59 H          -6.2899    4.0686   -1.0079 H       1  UNL1        0.0425
     60 H          -4.0455    3.8095   -0.2521 H       1  UNL1        0.0310
     61 H          -4.4862    2.3899    0.7605 H       1  UNL1        0.0310
@<TRIPOS>BOND
     1     1     2    1
     2     2     3    1
     3     3     4   ar
     4     4     5   ar
     5     5     6    1
     6     6     7   ar
     7     7     8   ar
     8     8     9   ar
     9     9    10    1
    10     9    11   ar
    11    11    12   ar
    12     5    13   ar
    13    13    14    1
    14    14    15   ar
    15    15    16   ar
    16    16    17   ar
    17    17    18   ar
    18    18    19    1
    19    19    20    1
    20    20    21    1
    21    21    22    1
    22    22    23    1
    23    23    24    1
    24    24    25    1
    25    18    26   ar
    26    13    27   ar
    27     2    28    1
    28    28    29    1
    29    29    30    1
    30    30    31    1
    31    31    32    1
    32    32     2    1
    33    27     3   ar
    34    12     6   ar
    35    26    14   ar
    36    25    20    1
    37     1    33    1
    38     7    34    1
    39     8    35    1
    40    11    36    1
    41    12    37    1
    42    15    38    1
    43    16    39    1
    44    19    40    1
    45    20    41    1
    46    21    42    1
    47    21    43    1
    48    22    44    1
    49    22    45    1
    50    23    46    1
    51    23    47    1
    52    24    48    1
    53    24    49    1
    54    25    50    1
    55    25    51    1
    56    26    52    1
    57    28    53    1
    58    28    54    1
    59    29    55    1
    60    29    56    1
    61    30    57    1
    62    31    58    1
    63    31    59    1
    64    32    60    1
    65    32    61    1
