@<TRIPOS>MOLECULE
*****
 52 55 0 0 0
SMALL
GASTEIGER

@<TRIPOS>ATOM
      1 C          -4.2578   -0.9351    0.4365 C.3     1  UNL1       -0.0612
      2 C          -3.2242   -0.6776   -0.6056 C.3     1  UNL1       -0.0293
      3 C          -1.8409   -1.0575   -0.3487 C.2     1  UNL1       -0.0308
      4 C          -1.0072   -0.0161   -0.0654 C.2     1  UNL1       -0.0070
      5 C           0.3883   -0.1402    0.2222 C.ar    1  UNL1       -0.0170
      6 C           1.2783    0.7551   -0.3187 C.ar    1  UNL1       -0.0534
      7 C           2.6336    0.7175   -0.0649 C.ar    1  UNL1       -0.0540
      8 C           3.1251   -0.2568    0.7659 C.ar    1  UNL1       -0.0248
      9 C           4.5340   -0.3272    1.0658 C.2     1  UNL1       -0.0478
     10 C           5.4430    0.4957    0.6193 C.2     1  UNL1        0.0229
     11 C           6.8556    0.3636    0.9657 C.2     1  UNL1        0.3296
     12 O           7.2651   -0.5591    1.7143 O.2     1  UNL1       -0.2458
     13 O           7.7570    1.2702    0.4613 O.3     1  UNL1       -0.4775
     14 C           2.2446   -1.1736    1.3246 C.ar    1  UNL1       -0.0540
     15 C           0.8918   -1.1048    1.0478 C.ar    1  UNL1       -0.0534
     16 C          -1.5825    1.3397   -0.0230 C.ar    1  UNL1       -0.0163
     17 C          -2.1653    1.7545    1.1380 C.ar    1  UNL1       -0.0520
     18 C          -2.7224    2.9960    1.2201 C.ar    1  UNL1       -0.0357
     19 C          -2.6896    3.8359    0.1058 C.ar    1  UNL1        0.0658
     20 N          -3.1408    5.0807   -0.1152 N.ar    1  UNL1       -0.2770
     21 N          -2.8495    5.4219   -1.3607 N.ar    1  UNL1       -0.1812
     22 C          -2.2050    4.4124   -1.9768 C.ar    1  UNL1        0.0569
     23 C          -2.0963    3.3989   -1.0596 C.ar    1  UNL1        0.0200
     24 C          -1.5351    2.1397   -1.1325 C.ar    1  UNL1       -0.0433
     25 C          -1.1862   -2.3221   -0.4828 C.ar    1  UNL1       -0.0028
     26 C          -0.0486   -2.4114   -1.3275 C.ar    1  UNL1       -0.0502
     27 C           0.6469   -3.5774   -1.5192 C.ar    1  UNL1       -0.0258
     28 C           0.2248   -4.7137   -0.8642 C.ar    1  UNL1        0.1248
     29 F           0.9039   -5.8734   -1.0448 F       1  UNL1       -0.2054
     30 C          -0.8729   -4.6678   -0.0373 C.ar    1  UNL1       -0.0075
     31 C          -1.5790   -3.4613    0.1516 C.ar    1  UNL1        0.0511
     32 CL         -2.9170   -3.5613    1.2533 Cl      1  UNL1       -0.0828
     33 H          -5.0278   -0.0628    0.4314 H       1  UNL1        0.0233
     34 H          -4.9258   -1.7956    0.2223 H       1  UNL1        0.0233
     35 H          -3.8960   -0.8848    1.4755 H       1  UNL1        0.0233
     36 H          -3.3162    0.4164   -0.9041 H       1  UNL1        0.0311
     37 H          -3.5393   -1.1790   -1.5935 H       1  UNL1        0.0311
     38 H           0.9395    1.5426   -0.9762 H       1  UNL1        0.0624
     39 H           3.2538    1.4783   -0.5467 H       1  UNL1        0.0624
     40 H           4.8907   -1.1260    1.7172 H       1  UNL1        0.0626
     41 H           5.1572    1.3129   -0.0303 H       1  UNL1        0.0689
     42 H           8.7648    1.1098    0.4333 H       1  UNL1        0.2954
     43 H           2.6258   -1.9414    1.9752 H       1  UNL1        0.0624
     44 H           0.2680   -1.8570    1.5360 H       1  UNL1        0.0624
     45 H          -2.1874    1.1091    1.9858 H       1  UNL1        0.0624
     46 H          -3.2008    3.3851    2.1138 H       1  UNL1        0.0639
     47 H          -3.6418    5.6708    0.6000 H       1  UNL1        0.1889
     48 H          -1.8348    4.3868   -3.0015 H       1  UNL1        0.0854
     49 H          -1.0987    1.8656   -2.0788 H       1  UNL1        0.0631
     50 H           0.2170   -1.4825   -1.8101 H       1  UNL1        0.0625
     51 H           1.5009   -3.5472   -2.1810 H       1  UNL1        0.0646
     52 H          -1.2208   -5.5467    0.4861 H       1  UNL1        0.0661
@<TRIPOS>BOND
     1     1     2    1
     2     2     3    1
     3     3     4    2
     4     4     5    1
     5     5     6   ar
     6     6     7   ar
     7     7     8   ar
     8     8     9    1
     9     9    10    2
    10    10    11    1
    11    11    12    2
    12    11    13    1
    13     8    14   ar
    14    14    15   ar
    15     4    16    1
    16    16    17   ar
    17    17    18   ar
    18    18    19   ar
    19    19    20   ar
    20    20    21   ar
    21    21    22   ar
    22    22    23   ar
    23    23    24   ar
    24     3    25    1
    25    25    26   ar
    26    26    27   ar
    27    27    28   ar
    28    28    29    1
    29    28    30   ar
    30    30    31   ar
    31    31    32    1
    32    15     5   ar
    33    24    16   ar
    34    31    25   ar
    35    23    19   ar
    36     1    33    1
    37     1    34    1
    38     1    35    1
    39     2    36    1
    40     2    37    1
    41     6    38    1
    42     7    39    1
    43     9    40    1
    44    10    41    1
    45    13    42    1
    46    14    43    1
    47    15    44    1
    48    17    45    1
    49    18    46    1
    50    20    47    1
    51    22    48    1
    52    24    49    1
    53    26    50    1
    54    27    51    1
    55    30    52    1
