@<TRIPOS>MOLECULE
*****
 54 58 0 0 0
SMALL
GASTEIGER

@<TRIPOS>ATOM
      1 C           7.2423    1.0771    0.3766 C.3     1  UNL1       -0.0127
      2 N           5.8260    1.0957    0.1738 N.3     1  UNL1       -0.3028
      3 C           5.1913    2.3592    0.4793 C.3     1  UNL1        0.0130
      4 C           3.9192    2.5668   -0.2960 C.3     1  UNL1        0.0295
      5 N           3.2261    1.3454   -0.6093 N.3     1  UNL1       -0.2234
      6 C           4.0414    0.3096   -1.1649 C.3     1  UNL1        0.0295
      7 C           5.5217    0.6881   -1.2019 C.3     1  UNL1        0.0130
      8 N           2.5770    0.8116    0.5296 N.am    1  UNL1       -0.2318
      9 C           1.8598   -0.3946    0.3403 C.2     1  UNL1        0.3178
     10 O           1.7272   -1.0553   -0.7224 O.2     1  UNL1       -0.2512
     11 N           1.2074   -0.9296    1.4882 N.am    1  UNL1       -0.2678
     12 C           0.4812   -2.1468    1.3067 C.ar    1  UNL1        0.0463
     13 C           1.0629   -3.4088    1.4728 C.ar    1  UNL1       -0.0397
     14 C           0.2747   -4.5333    1.2740 C.ar    1  UNL1       -0.0593
     15 C          -1.0575   -4.4725    0.9199 C.ar    1  UNL1       -0.0517
     16 C          -1.6251   -3.2204    0.7576 C.ar    1  UNL1        0.0154
     17 C          -0.8522   -2.1111    0.9525 C.ar    1  UNL1        0.0528
     18 C          -1.7638   -1.0031    0.7003 C.2     1  UNL1        0.1997
     19 O          -1.4623    0.2179    0.7690 O.2     1  UNL1       -0.2864
     20 C          -3.1072   -1.4549    0.3479 C.ar    1  UNL1        0.0758
     21 C          -4.4092   -1.1626   -0.0003 C.ar    1  UNL1        0.0855
     22 N          -5.0329   -2.3160   -0.1552 N.ar    1  UNL1       -0.2751
     23 N          -4.2189   -3.3354    0.0703 N.ar    1  UNL1       -0.1726
     24 C          -2.9860   -2.8497    0.3930 C.ar    1  UNL1        0.1047
     25 C          -4.9042    0.1663   -0.1444 C.ar    1  UNL1        0.0603
     26 C          -6.1246    0.7330   -0.4722 C.ar    1  UNL1        0.0549
     27 C          -7.2778   -0.1602   -0.7670 C.3     1  UNL1       -0.0212
     28 N          -6.3331    2.0209   -0.5404 N.ar    1  UNL1       -0.2488
     29 C          -5.2513    2.7935   -0.2629 C.ar    1  UNL1        0.0761
     30 C          -5.2577    4.3129   -0.2811 C.3     1  UNL1       -0.0159
     31 S          -3.8840    1.5617    0.1105 S.2     1  UNL1       -0.0706
     32 H           7.7675    0.5908   -0.4652 H       1  UNL1        0.0391
     33 H           7.5244    0.5812    1.3366 H       1  UNL1        0.0391
     34 H           7.6219    2.1329    0.4034 H       1  UNL1        0.0391
     35 H           5.8986    3.1625    0.1859 H       1  UNL1        0.0439
     36 H           4.9734    2.4818    1.5556 H       1  UNL1        0.0439
     37 H           4.1636    3.0734   -1.2526 H       1  UNL1        0.0456
     38 H           3.2305    3.1897    0.3091 H       1  UNL1        0.0456
     39 H           3.7235   -0.0058   -2.1821 H       1  UNL1        0.0456
     40 H           4.0217   -0.6379   -0.5521 H       1  UNL1        0.0456
     41 H           5.7388    1.4606   -1.9433 H       1  UNL1        0.0439
     42 H           6.1025   -0.2513   -1.3614 H       1  UNL1        0.0439
     43 H           2.6186    1.2737    1.4610 H       1  UNL1        0.1708
     44 H           1.2575   -0.4482    2.4342 H       1  UNL1        0.1564
     45 H           2.1023   -3.4713    1.7493 H       1  UNL1        0.0636
     46 H           0.7381   -5.4987    1.4060 H       1  UNL1        0.0618
     47 H          -1.5974   -5.4030    0.7852 H       1  UNL1        0.0624
     48 H          -6.0151   -2.5275   -0.4140 H       1  UNL1        0.1890
     49 H          -7.0474   -0.7852   -1.6470 H       1  UNL1        0.0293
     50 H          -8.2323    0.3573   -0.9583 H       1  UNL1        0.0293
     51 H          -7.4491   -0.7346    0.1726 H       1  UNL1        0.0293
     52 H          -5.6038    4.5899   -1.2992 H       1  UNL1        0.0298
     53 H          -4.2191    4.6841   -0.1573 H       1  UNL1        0.0298
     54 H          -5.9291    4.6802    0.5111 H       1  UNL1        0.0298
@<TRIPOS>BOND
     1     1     2    1
     2     2     3    1
     3     3     4    1
     4     4     5    1
     5     5     6    1
     6     6     7    1
     7     5     8    1
     8     8     9   am
     9     9    10    2
    10     9    11   am
    11    11    12    1
    12    12    13   ar
    13    13    14   ar
    14    14    15   ar
    15    15    16   ar
    16    16    17   ar
    17    17    18    1
    18    18    19    2
    19    18    20    1
    20    20    21   ar
    21    21    22   ar
    22    22    23   ar
    23    23    24   ar
    24    21    25    1
    25    25    26   ar
    26    26    27    1
    27    26    28   ar
    28    28    29   ar
    29    29    30    1
    30    29    31   ar
    31     7     2    1
    32    17    12   ar
    33    24    20   ar
    34    31    25   ar
    35    24    16    1
    36     1    32    1
    37     1    33    1
    38     1    34    1
    39     3    35    1
    40     3    36    1
    41     4    37    1
    42     4    38    1
    43     6    39    1
    44     6    40    1
    45     7    41    1
    46     7    42    1
    47     8    43    1
    48    11    44    1
    49    13    45    1
    50    14    46    1
    51    15    47    1
    52    22    48    1
    53    27    49    1
    54    27    50    1
    55    27    51    1
    56    30    52    1
    57    30    53    1
    58    30    54    1
