
     RDKit          3D

 54 58  0  0  0  0  0  0  0  0999 V2000
    7.2423    1.0771    0.3766 C   0  0  0  0  0  0  0  0  0  0  0  0
    5.8260    1.0957    0.1738 N   0  0  0  0  0  0  0  0  0  0  0  0
    5.1913    2.3592    0.4793 C   0  0  0  0  0  0  0  0  0  0  0  0
    3.9192    2.5668   -0.2960 C   0  0  0  0  0  0  0  0  0  0  0  0
    3.2261    1.3454   -0.6093 N   0  0  0  0  0  0  0  0  0  0  0  0
    4.0414    0.3096   -1.1649 C   0  0  0  0  0  0  0  0  0  0  0  0
    5.5217    0.6881   -1.2019 C   0  0  0  0  0  0  0  0  0  0  0  0
    2.5770    0.8116    0.5296 N   0  0  0  0  0  0  0  0  0  0  0  0
    1.8598   -0.3946    0.3403 C   0  0  0  0  0  0  0  0  0  0  0  0
    1.7272   -1.0553   -0.7224 O   0  0  0  0  0  0  0  0  0  0  0  0
    1.2074   -0.9296    1.4882 N   0  0  0  0  0  0  0  0  0  0  0  0
    0.4812   -2.1468    1.3067 C   0  0  0  0  0  0  0  0  0  0  0  0
    1.0629   -3.4088    1.4728 C   0  0  0  0  0  0  0  0  0  0  0  0
    0.2747   -4.5333    1.2740 C   0  0  0  0  0  0  0  0  0  0  0  0
   -1.0575   -4.4725    0.9199 C   0  0  0  0  0  0  0  0  0  0  0  0
   -1.6251   -3.2204    0.7576 C   0  0  0  0  0  0  0  0  0  0  0  0
   -0.8522   -2.1111    0.9525 C   0  0  0  0  0  0  0  0  0  0  0  0
   -1.7638   -1.0031    0.7003 C   0  0  0  0  0  0  0  0  0  0  0  0
   -1.4623    0.2179    0.7690 O   0  0  0  0  0  0  0  0  0  0  0  0
   -3.1072   -1.4549    0.3479 C   0  0  0  0  0  0  0  0  0  0  0  0
   -4.4092   -1.1626   -0.0003 C   0  0  0  0  0  0  0  0  0  0  0  0
   -5.0329   -2.3160   -0.1552 N   0  0  0  0  0  0  0  0  0  0  0  0
   -4.2189   -3.3354    0.0703 N   0  0  0  0  0  0  0  0  0  0  0  0
   -2.9860   -2.8497    0.3930 C   0  0  0  0  0  0  0  0  0  0  0  0
   -4.9042    0.1663   -0.1444 C   0  0  0  0  0  0  0  0  0  0  0  0
   -6.1246    0.7330   -0.4722 C   0  0  0  0  0  0  0  0  0  0  0  0
   -7.2778   -0.1602   -0.7670 C   0  0  0  0  0  0  0  0  0  0  0  0
   -6.3331    2.0209   -0.5404 N   0  0  0  0  0  0  0  0  0  0  0  0
   -5.2513    2.7935   -0.2629 C   0  0  0  0  0  0  0  0  0  0  0  0
   -5.2577    4.3129   -0.2811 C   0  0  0  0  0  0  0  0  0  0  0  0
   -3.8840    1.5617    0.1105 S   0  0  0  0  0  0  0  0  0  0  0  0
    7.7675    0.5908   -0.4652 H   0  0  0  0  0  0  0  0  0  0  0  0
    7.5244    0.5812    1.3366 H   0  0  0  0  0  0  0  0  0  0  0  0
    7.6219    2.1329    0.4034 H   0  0  0  0  0  0  0  0  0  0  0  0
    5.8986    3.1625    0.1859 H   0  0  0  0  0  0  0  0  0  0  0  0
    4.9734    2.4818    1.5556 H   0  0  0  0  0  0  0  0  0  0  0  0
    4.1636    3.0734   -1.2526 H   0  0  0  0  0  0  0  0  0  0  0  0
    3.2305    3.1897    0.3091 H   0  0  0  0  0  0  0  0  0  0  0  0
    3.7235   -0.0058   -2.1821 H   0  0  0  0  0  0  0  0  0  0  0  0
    4.0217   -0.6379   -0.5521 H   0  0  0  0  0  0  0  0  0  0  0  0
    5.7388    1.4606   -1.9433 H   0  0  0  0  0  0  0  0  0  0  0  0
    6.1025   -0.2513   -1.3614 H   0  0  0  0  0  0  0  0  0  0  0  0
    2.6186    1.2737    1.4610 H   0  0  0  0  0  0  0  0  0  0  0  0
    1.2575   -0.4482    2.4342 H   0  0  0  0  0  0  0  0  0  0  0  0
    2.1023   -3.4713    1.7493 H   0  0  0  0  0  0  0  0  0  0  0  0
    0.7381   -5.4987    1.4060 H   0  0  0  0  0  0  0  0  0  0  0  0
   -1.5974   -5.4030    0.7852 H   0  0  0  0  0  0  0  0  0  0  0  0
   -6.0151   -2.5275   -0.4140 H   0  0  0  0  0  0  0  0  0  0  0  0
   -7.0474   -0.7852   -1.6470 H   0  0  0  0  0  0  0  0  0  0  0  0
   -8.2323    0.3573   -0.9583 H   0  0  0  0  0  0  0  0  0  0  0  0
   -7.4491   -0.7346    0.1726 H   0  0  0  0  0  0  0  0  0  0  0  0
   -5.6038    4.5899   -1.2992 H   0  0  0  0  0  0  0  0  0  0  0  0
   -4.2191    4.6841   -0.1573 H   0  0  0  0  0  0  0  0  0  0  0  0
   -5.9291    4.6802    0.5111 H   0  0  0  0  0  0  0  0  0  0  0  0
  1  2  1  0
  2  3  1  0
  3  4  1  0
  4  5  1  0
  5  6  1  0
  6  7  1  0
  5  8  1  0
  8  9  1  0
  9 10  2  0
  9 11  1  0
 11 12  1  0
 12 13  2  0
 13 14  1  0
 14 15  2  0
 15 16  1  0
 16 17  2  0
 17 18  1  0
 18 19  2  0
 18 20  1  0
 20 21  2  0
 21 22  1  0
 22 23  1  0
 23 24  2  0
 21 25  1  0
 25 26  2  0
 26 27  1  0
 26 28  1  0
 28 29  2  0
 29 30  1  0
 29 31  1  0
  7  2  1  0
 17 12  1  0
 24 20  1  0
 31 25  1  0
 24 16  1  0
  1 32  1  0
  1 33  1  0
  1 34  1  0
  3 35  1  0
  3 36  1  0
  4 37  1  0
  4 38  1  0
  6 39  1  0
  6 40  1  0
  7 41  1  0
  7 42  1  0
  8 43  1  0
 11 44  1  0
 13 45  1  0
 14 46  1  0
 15 47  1  0
 22 48  1  0
 27 49  1  0
 27 50  1  0
 27 51  1  0
 30 52  1  0
 30 53  1  0
 30 54  1  0
M  END
$$$$
