
     RDKit          3D

 38 39  0  0  0  0  0  0  0  0999 V2000
    5.1614    1.6008    0.1568 C   0  0  0  0  0  0  0  0  0  0  0  0
    5.4311    0.1494    0.1478 C   0  0  0  0  0  0  0  0  0  0  0  0
    6.2008   -0.2942    1.0351 O   0  0  0  0  0  0  0  0  0  0  0  0
    4.8682   -0.7470   -0.8024 N   0  0  0  0  0  0  0  0  0  0  0  0
    5.1574   -2.0552   -0.7507 O   0  0  0  0  0  0  0  0  0  0  0  0
    3.9893   -0.1654   -1.7973 C   0  0  0  0  0  0  0  0  0  0  0  0
    2.5794   -0.1419   -1.3610 C   0  0  0  0  0  0  0  0  0  0  0  0
    2.1447   -0.5929   -0.2028 C   0  0  0  0  0  0  0  0  0  0  0  0
    0.7588   -0.5778    0.2439 C   0  0  0  0  0  0  0  0  0  0  0  0
    0.4412   -1.0855    1.4881 C   0  0  0  0  0  0  0  0  0  0  0  0
   -0.8495   -1.1037    1.9761 C   0  0  0  0  0  0  0  0  0  0  0  0
   -1.8961   -0.6061    1.2276 C   0  0  0  0  0  0  0  0  0  0  0  0
   -1.5988   -0.0958   -0.0153 C   0  0  0  0  0  0  0  0  0  0  0  0
   -2.6228    0.4123   -0.7951 O   0  0  0  0  0  0  0  0  0  0  0  0
   -3.9338    0.4539   -0.4333 C   0  0  0  0  0  0  0  0  0  0  0  0
   -4.7747   -0.5955   -0.7266 C   0  0  0  0  0  0  0  0  0  0  0  0
   -6.1220   -0.5420   -0.3494 C   0  0  0  0  0  0  0  0  0  0  0  0
   -6.6038    0.5644    0.3162 C   0  0  0  0  0  0  0  0  0  0  0  0
   -5.7744    1.6208    0.6159 C   0  0  0  0  0  0  0  0  0  0  0  0
   -4.4314    1.5495    0.2313 C   0  0  0  0  0  0  0  0  0  0  0  0
   -0.2905   -0.0826   -0.4984 C   0  0  0  0  0  0  0  0  0  0  0  0
    5.8451    2.1725   -0.5086 H   0  0  0  0  0  0  0  0  0  0  0  0
    4.1228    1.8340   -0.2104 H   0  0  0  0  0  0  0  0  0  0  0  0
    5.1786    1.9651    1.2066 H   0  0  0  0  0  0  0  0  0  0  0  0
    5.3725   -2.3047    0.1834 H   0  0  0  0  0  0  0  0  0  0  0  0
    4.3859    0.8348   -2.0609 H   0  0  0  0  0  0  0  0  0  0  0  0
    4.0546   -0.7912   -2.7009 H   0  0  0  0  0  0  0  0  0  0  0  0
    1.8579    0.2755   -2.0434 H   0  0  0  0  0  0  0  0  0  0  0  0
    2.9067   -1.0024    0.4480 H   0  0  0  0  0  0  0  0  0  0  0  0
    1.2583   -1.4812    2.0887 H   0  0  0  0  0  0  0  0  0  0  0  0
   -1.0749   -1.5077    2.9566 H   0  0  0  0  0  0  0  0  0  0  0  0
   -2.9005   -0.6314    1.6323 H   0  0  0  0  0  0  0  0  0  0  0  0
   -4.4667   -1.4899   -1.2435 H   0  0  0  0  0  0  0  0  0  0  0  0
   -6.8032   -1.3689   -0.5757 H   0  0  0  0  0  0  0  0  0  0  0  0
   -7.6436    0.6350    0.6216 H   0  0  0  0  0  0  0  0  0  0  0  0
   -6.0972    2.5131    1.1357 H   0  0  0  0  0  0  0  0  0  0  0  0
   -3.7562    2.3603    0.4512 H   0  0  0  0  0  0  0  0  0  0  0  0
   -0.0747    0.3218   -1.4763 H   0  0  0  0  0  0  0  0  0  0  0  0
  1  2  1  0
  2  3  2  0
  2  4  1  0
  4  5  1  0
  4  6  1  0
  6  7  1  0
  7  8  2  0
  8  9  1  0
  9 10  2  0
 10 11  1  0
 11 12  2  0
 12 13  1  0
 13 14  1  0
 14 15  1  0
 15 16  2  0
 16 17  1  0
 17 18  2  0
 18 19  1  0
 19 20  2  0
 13 21  2  0
 21  9  1  0
 20 15  1  0
  1 22  1  0
  1 23  1  0
  1 24  1  0
  5 25  1  0
  6 26  1  0
  6 27  1  0
  7 28  1  0
  8 29  1  0
 10 30  1  0
 11 31  1  0
 12 32  1  0
 16 33  1  0
 17 34  1  0
 18 35  1  0
 19 36  1  0
 20 37  1  0
 21 38  1  0
M  END
$$$$
