@<TRIPOS>MOLECULE
*****
 38 39 0 0 0
SMALL
GASTEIGER

@<TRIPOS>ATOM
      1 C           5.1614    1.6008    0.1568 C.3     1  UNL1        0.0143
      2 C           5.4311    0.1494    0.1478 C.2     1  UNL1        0.2352
      3 O           6.2008   -0.2942    1.0351 O.2     1  UNL1       -0.2738
      4 N           4.8682   -0.7470   -0.8024 N.am    1  UNL1       -0.1802
      5 O           5.1574   -2.0552   -0.7507 O.3     1  UNL1       -0.2922
      6 C           3.9893   -0.1654   -1.7973 C.3     1  UNL1        0.0601
      7 C           2.5794   -0.1419   -1.3610 C.2     1  UNL1       -0.0639
      8 C           2.1447   -0.5929   -0.2028 C.2     1  UNL1       -0.0569
      9 C           0.7588   -0.5778    0.2439 C.ar    1  UNL1       -0.0218
     10 C           0.4412   -1.0855    1.4881 C.ar    1  UNL1       -0.0544
     11 C          -0.8495   -1.1037    1.9761 C.ar    1  UNL1       -0.0577
     12 C          -1.8961   -0.6061    1.2276 C.ar    1  UNL1       -0.0193
     13 C          -1.5988   -0.0958   -0.0153 C.ar    1  UNL1        0.1290
     14 O          -2.6228    0.4123   -0.7951 O.3     1  UNL1       -0.4560
     15 C          -3.9338    0.4539   -0.4333 C.ar    1  UNL1        0.1284
     16 C          -4.7747   -0.5955   -0.7266 C.ar    1  UNL1       -0.0193
     17 C          -6.1220   -0.5420   -0.3494 C.ar    1  UNL1       -0.0583
     18 C          -6.6038    0.5644    0.3162 C.ar    1  UNL1       -0.0615
     19 C          -5.7744    1.6208    0.6159 C.ar    1  UNL1       -0.0583
     20 C          -4.4314    1.5495    0.2313 C.ar    1  UNL1       -0.0193
     21 C          -0.2905   -0.0826   -0.4984 C.ar    1  UNL1       -0.0122
     22 H           5.8451    2.1725   -0.5086 H       1  UNL1        0.0323
     23 H           4.1228    1.8340   -0.2104 H       1  UNL1        0.0323
     24 H           5.1786    1.9651    1.2066 H       1  UNL1        0.0323
     25 H           5.3725   -2.3047    0.1834 H       1  UNL1        0.2417
     26 H           4.3859    0.8348   -2.0609 H       1  UNL1        0.0533
     27 H           4.0546   -0.7912   -2.7009 H       1  UNL1        0.0533
     28 H           1.8579    0.2755   -2.0434 H       1  UNL1        0.0589
     29 H           2.9067   -1.0024    0.4480 H       1  UNL1        0.0621
     30 H           1.2583   -1.4812    2.0887 H       1  UNL1        0.0623
     31 H          -1.0749   -1.5077    2.9566 H       1  UNL1        0.0619
     32 H          -2.9005   -0.6314    1.6323 H       1  UNL1        0.0654
     33 H          -4.4667   -1.4899   -1.2435 H       1  UNL1        0.0654
     34 H          -6.8032   -1.3689   -0.5757 H       1  UNL1        0.0619
     35 H          -7.6436    0.6350    0.6216 H       1  UNL1        0.0618
     36 H          -6.0972    2.5131    1.1357 H       1  UNL1        0.0619
     37 H          -3.7562    2.3603    0.4512 H       1  UNL1        0.0654
     38 H          -0.0747    0.3218   -1.4763 H       1  UNL1        0.0660
@<TRIPOS>BOND
     1     1     2    1
     2     2     3    2
     3     2     4   am
     4     4     5    1
     5     4     6    1
     6     6     7    1
     7     7     8    2
     8     8     9    1
     9     9    10   ar
    10    10    11   ar
    11    11    12   ar
    12    12    13   ar
    13    13    14    1
    14    14    15    1
    15    15    16   ar
    16    16    17   ar
    17    17    18   ar
    18    18    19   ar
    19    19    20   ar
    20    13    21   ar
    21    21     9   ar
    22    20    15   ar
    23     1    22    1
    24     1    23    1
    25     1    24    1
    26     5    25    1
    27     6    26    1
    28     6    27    1
    29     7    28    1
    30     8    29    1
    31    10    30    1
    32    11    31    1
    33    12    32    1
    34    16    33    1
    35    17    34    1
    36    18    35    1
    37    19    36    1
    38    20    37    1
    39    21    38    1
