
     RDKit          3D

 36 38  0  0  0  0  0  0  0  0999 V2000
   -2.8601   -2.1533   -0.3464 C   0  0  0  0  0  0  0  0  0  0  0  0
   -2.1849   -0.9145   -0.6528 N   0  0  0  0  0  0  0  0  0  0  0  0
   -2.2848   -0.0084    0.4723 C   0  0  0  0  0  0  0  0  0  0  0  0
   -1.6449   -0.6154    1.7009 C   0  0  0  0  0  0  0  0  0  0  0  0
   -0.1871   -0.9617    1.4885 C   0  0  0  0  0  0  0  0  0  0  0  0
    0.4208   -0.0435    0.5205 N   0  0  0  0  0  0  0  0  0  0  0  0
    1.6411   -0.4548   -0.0760 C   0  0  0  0  0  0  0  0  0  0  0  0
    2.0911    0.0555   -1.2766 C   0  0  0  0  0  0  0  0  0  0  0  0
    3.2899   -0.3612   -1.8143 C   0  0  0  0  0  0  0  0  0  0  0  0
    4.0937   -1.3009   -1.1868 C   0  0  0  0  0  0  0  0  0  0  0  0
    5.6211   -1.8118   -1.9020 Cl  0  0  0  0  0  0  0  0  0  0  0  0
    3.6581   -1.8162    0.0061 C   0  0  0  0  0  0  0  0  0  0  0  0
    4.6355   -2.9998    0.8297 Cl  0  0  0  0  0  0  0  0  0  0  0  0
    2.4661   -1.3949    0.5310 C   0  0  0  0  0  0  0  0  0  0  0  0
   -0.1899    1.1993    0.2203 C   0  0  0  0  0  0  0  0  0  0  0  0
    0.6157    2.2774   -0.0191 C   0  0  0  0  0  0  0  0  0  0  0  0
    0.0045    3.4853   -0.3104 C   0  0  0  0  0  0  0  0  0  0  0  0
   -1.3782    3.5631   -0.3494 C   0  0  0  0  0  0  0  0  0  0  0  0
   -2.1775    2.4533   -0.1021 C   0  0  0  0  0  0  0  0  0  0  0  0
   -1.5686    1.2585    0.1860 C   0  0  0  0  0  0  0  0  0  0  0  0
   -2.2201   -2.7408    0.3339 H   0  0  0  0  0  0  0  0  0  0  0  0
   -3.0265   -2.7243   -1.3060 H   0  0  0  0  0  0  0  0  0  0  0  0
   -3.8828   -1.9803    0.0973 H   0  0  0  0  0  0  0  0  0  0  0  0
   -2.5726   -0.4499   -1.5021 H   0  0  0  0  0  0  0  0  0  0  0  0
   -3.3541    0.1718    0.7270 H   0  0  0  0  0  0  0  0  0  0  0  0
   -2.1724   -1.5450    1.9859 H   0  0  0  0  0  0  0  0  0  0  0  0
   -1.6864    0.1155    2.5299 H   0  0  0  0  0  0  0  0  0  0  0  0
   -0.0729   -1.9895    1.0947 H   0  0  0  0  0  0  0  0  0  0  0  0
    0.4088   -0.8690    2.4229 H   0  0  0  0  0  0  0  0  0  0  0  0
    1.5225    0.7869   -1.8447 H   0  0  0  0  0  0  0  0  0  0  0  0
    3.6659    0.0273   -2.7599 H   0  0  0  0  0  0  0  0  0  0  0  0
    2.0835   -1.7839    1.4836 H   0  0  0  0  0  0  0  0  0  0  0  0
    1.6933    2.1684    0.0269 H   0  0  0  0  0  0  0  0  0  0  0  0
    0.6369    4.3505   -0.5030 H   0  0  0  0  0  0  0  0  0  0  0  0
   -1.8427    4.5215   -0.5802 H   0  0  0  0  0  0  0  0  0  0  0  0
   -3.2418    2.4847   -0.1254 H   0  0  0  0  0  0  0  0  0  0  0  0
  1  2  1  0
  2  3  1  0
  3  4  1  0
  4  5  1  0
  5  6  1  0
  6  7  1  0
  7  8  2  0
  8  9  1  0
  9 10  2  0
 10 11  1  0
 10 12  1  0
 12 13  1  0
 12 14  2  0
  6 15  1  0
 15 16  2  0
 16 17  1  0
 17 18  2  0
 18 19  1  0
 19 20  2  0
 20  3  1  0
 14  7  1  0
 20 15  1  0
  1 21  1  0
  1 22  1  0
  1 23  1  0
  2 24  1  0
  3 25  1  0
  4 26  1  0
  4 27  1  0
  5 28  1  0
  5 29  1  0
  8 30  1  0
  9 31  1  0
 14 32  1  0
 16 33  1  0
 17 34  1  0
 18 35  1  0
 19 36  1  0
M  END
$$$$
