@<TRIPOS>MOLECULE
*****
 36 38 0 0 0
SMALL
GASTEIGER

@<TRIPOS>ATOM
      1 C          -2.8601   -2.1533   -0.3464 C.3     1  UNL1       -0.0152
      2 N          -2.1849   -0.9145   -0.6528 N.3     1  UNL1       -0.3122
      3 C          -2.2848   -0.0084    0.4723 C.3     1  UNL1        0.0358
      4 C          -1.6449   -0.6154    1.7009 C.3     1  UNL1       -0.0172
      5 C          -0.1871   -0.9617    1.4885 C.3     1  UNL1        0.0190
      6 N           0.4208   -0.0435    0.5205 N.pl3   1  UNL1       -0.2997
      7 C           1.6411   -0.4548   -0.0760 C.ar    1  UNL1        0.0354
      8 C           2.0911    0.0555   -1.2766 C.ar    1  UNL1       -0.0389
      9 C           3.2899   -0.3612   -1.8143 C.ar    1  UNL1       -0.0402
     10 C           4.0937   -1.3009   -1.1868 C.ar    1  UNL1        0.0594
     11 CL          5.6211   -1.8118   -1.9020 Cl      1  UNL1       -0.0820
     12 C           3.6581   -1.8162    0.0061 C.ar    1  UNL1        0.0610
     13 CL          4.6355   -2.9998    0.8297 Cl      1  UNL1       -0.0820
     14 C           2.4661   -1.3949    0.5310 C.ar    1  UNL1       -0.0206
     15 C          -0.1899    1.1993    0.2203 C.ar    1  UNL1        0.0386
     16 C           0.6157    2.2774   -0.0191 C.ar    1  UNL1       -0.0400
     17 C           0.0045    3.4853   -0.3104 C.ar    1  UNL1       -0.0600
     18 C          -1.3782    3.5631   -0.3494 C.ar    1  UNL1       -0.0613
     19 C          -2.1775    2.4533   -0.1021 C.ar    1  UNL1       -0.0553
     20 C          -1.5686    1.2585    0.1860 C.ar    1  UNL1       -0.0091
     21 H          -2.2201   -2.7408    0.3339 H       1  UNL1        0.0388
     22 H          -3.0265   -2.7243   -1.3060 H       1  UNL1        0.0388
     23 H          -3.8828   -1.9803    0.0973 H       1  UNL1        0.0388
     24 H          -2.5726   -0.4499   -1.5021 H       1  UNL1        0.1222
     25 H          -3.3541    0.1718    0.7270 H       1  UNL1        0.0511
     26 H          -2.1724   -1.5450    1.9859 H       1  UNL1        0.0299
     27 H          -1.6864    0.1155    2.5299 H       1  UNL1        0.0299
     28 H          -0.0729   -1.9895    1.0947 H       1  UNL1        0.0468
     29 H           0.4088   -0.8690    2.4229 H       1  UNL1        0.0468
     30 H           1.5225    0.7869   -1.8447 H       1  UNL1        0.0637
     31 H           3.6659    0.0273   -2.7599 H       1  UNL1        0.0633
     32 H           2.0835   -1.7839    1.4836 H       1  UNL1        0.0651
     33 H           1.6933    2.1684    0.0269 H       1  UNL1        0.0636
     34 H           0.6369    4.3505   -0.5030 H       1  UNL1        0.0618
     35 H          -1.8427    4.5215   -0.5802 H       1  UNL1        0.0618
     36 H          -3.2418    2.4847   -0.1254 H       1  UNL1        0.0621
@<TRIPOS>BOND
     1     1     2    1
     2     2     3    1
     3     3     4    1
     4     4     5    1
     5     5     6    1
     6     6     7    1
     7     7     8   ar
     8     8     9   ar
     9     9    10   ar
    10    10    11    1
    11    10    12   ar
    12    12    13    1
    13    12    14   ar
    14     6    15    1
    15    15    16   ar
    16    16    17   ar
    17    17    18   ar
    18    18    19   ar
    19    19    20   ar
    20    20     3    1
    21    14     7   ar
    22    20    15   ar
    23     1    21    1
    24     1    22    1
    25     1    23    1
    26     2    24    1
    27     3    25    1
    28     4    26    1
    29     4    27    1
    30     5    28    1
    31     5    29    1
    32     8    30    1
    33     9    31    1
    34    14    32    1
    35    16    33    1
    36    17    34    1
    37    18    35    1
    38    19    36    1
