@<TRIPOS>MOLECULE
*****
 51 55 0 0 0
SMALL
GASTEIGER

@<TRIPOS>ATOM
      1 C           5.9369   -4.2346    0.1248 C.3     1  UNL1        0.0833
      2 O           4.8227   -3.4165    0.3549 O.3     1  UNL1       -0.4535
      3 C           4.8640   -2.0375    0.2613 C.2     1  UNL1        0.4030
      4 O           5.9613   -1.4830   -0.0485 O.2     1  UNL1       -0.2263
      5 N           3.7436   -1.1936    0.4932 N.am    1  UNL1       -0.2585
      6 C           2.4800   -1.8318    0.8486 C.3     1  UNL1        0.0363
      7 C           1.4627   -1.4632   -0.2243 C.3     1  UNL1        0.0409
      8 N           1.3655    0.0047   -0.1608 N.ar    1  UNL1       -0.3242
      9 C           2.4226    0.7818    0.1164 C.ar    1  UNL1        0.1284
     10 N           1.9785    2.0609    0.0921 N.ar    1  UNL1       -0.2300
     11 C           0.6736    2.0350   -0.1961 C.ar    1  UNL1        0.0971
     12 C          -0.1702    3.2425   -0.3034 C.ar    1  UNL1        0.0026
     13 C           0.0090    4.0508   -1.3977 C.ar    1  UNL1       -0.0498
     14 C          -0.7298    5.2143   -1.5907 C.ar    1  UNL1       -0.0258
     15 C          -1.6792    5.5444   -0.6190 C.ar    1  UNL1        0.1234
     16 F          -2.4345    6.6630   -0.7441 F       1  UNL1       -0.2055
     17 C          -1.8595    4.7349    0.4784 C.ar    1  UNL1       -0.0258
     18 C          -1.1065    3.5739    0.6491 C.ar    1  UNL1       -0.0498
     19 C           0.2549    0.7376   -0.3632 C.ar    1  UNL1        0.0781
     20 C          -1.0831    0.2797   -0.6886 C.ar    1  UNL1        0.0173
     21 C          -1.6321    0.6497   -1.9115 C.ar    1  UNL1       -0.0477
     22 C          -2.8892    0.2553   -2.2833 C.ar    1  UNL1       -0.0182
     23 C          -3.6221   -0.5286   -1.4183 C.ar    1  UNL1        0.1381
     24 N          -4.8610   -1.0312   -1.5660 N.ar    1  UNL1       -0.2353
     25 C          -5.1317   -1.7326   -0.4423 C.ar    1  UNL1        0.0588
     26 C          -4.0330   -1.6443    0.3838 C.ar    1  UNL1        0.1280
     27 C          -3.9081   -2.2602    1.7009 C.2     1  UNL1        0.2599
     28 N          -4.9599   -3.0360    2.2363 N.am    1  UNL1       -0.3241
     29 O          -2.8692   -2.1251    2.4017 O.2     1  UNL1       -0.2687
     30 N          -3.0914   -0.8885   -0.2330 N.ar    1  UNL1       -0.2949
     31 C          -1.8528   -0.5030    0.1408 C.ar    1  UNL1        0.0211
     32 C           3.8006    0.2357    0.3923 C.3     1  UNL1        0.0759
     33 H           5.6905   -4.9858   -0.6691 H       1  UNL1        0.0661
     34 H           6.8128   -3.6706   -0.2621 H       1  UNL1        0.0661
     35 H           6.2121   -4.8160    1.0311 H       1  UNL1        0.0661
     36 H           2.1401   -1.3637    1.7917 H       1  UNL1        0.0483
     37 H           2.5861   -2.9257    0.9488 H       1  UNL1        0.0483
     38 H           1.7716   -1.7861   -1.2213 H       1  UNL1        0.0508
     39 H           0.5122   -1.9460    0.0741 H       1  UNL1        0.0508
     40 H           0.7415    3.8030   -2.1520 H       1  UNL1        0.0625
     41 H          -0.5682    5.8229   -2.4483 H       1  UNL1        0.0646
     42 H          -2.5952    4.9923    1.2296 H       1  UNL1        0.0646
     43 H          -1.2316    2.9281    1.4994 H       1  UNL1        0.0625
     44 H          -1.0676    1.2728   -2.6085 H       1  UNL1        0.0626
     45 H          -3.2955    0.5547   -3.2380 H       1  UNL1        0.0654
     46 H          -6.0580   -2.2668   -0.2374 H       1  UNL1        0.0853
     47 H          -4.9434   -4.0694    2.1459 H       1  UNL1        0.1453
     48 H          -5.7524   -2.5831    2.7192 H       1  UNL1        0.1453
     49 H          -1.4504   -0.8001    1.0880 H       1  UNL1        0.0820
     50 H           4.3945    0.4718   -0.5235 H       1  UNL1        0.0546
     51 H           4.2381    0.7135    1.2991 H       1  UNL1        0.0546
@<TRIPOS>BOND
     1     1     2    1
     2     2     3    1
     3     3     4    2
     4     3     5   am
     5     5     6    1
     6     6     7    1
     7     7     8    1
     8     8     9   ar
     9     9    10   ar
    10    10    11   ar
    11    11    12    1
    12    12    13   ar
    13    13    14   ar
    14    14    15   ar
    15    15    16    1
    16    15    17   ar
    17    17    18   ar
    18    11    19   ar
    19    19    20    1
    20    20    21   ar
    21    21    22   ar
    22    22    23   ar
    23    23    24   ar
    24    24    25   ar
    25    25    26   ar
    26    26    27    1
    27    27    28   am
    28    27    29    2
    29    26    30   ar
    30    30    31   ar
    31     9    32    1
    32    32     5    1
    33    19     8   ar
    34    31    20   ar
    35    18    12   ar
    36    30    23   ar
    37     1    33    1
    38     1    34    1
    39     1    35    1
    40     6    36    1
    41     6    37    1
    42     7    38    1
    43     7    39    1
    44    13    40    1
    45    14    41    1
    46    17    42    1
    47    18    43    1
    48    21    44    1
    49    22    45    1
    50    25    46    1
    51    28    47    1
    52    28    48    1
    53    31    49    1
    54    32    50    1
    55    32    51    1
