
     RDKit          3D

 51 55  0  0  0  0  0  0  0  0999 V2000
    5.9369   -4.2346    0.1248 C   0  0  0  0  0  0  0  0  0  0  0  0
    4.8227   -3.4165    0.3549 O   0  0  0  0  0  0  0  0  0  0  0  0
    4.8640   -2.0375    0.2613 C   0  0  0  0  0  0  0  0  0  0  0  0
    5.9613   -1.4830   -0.0485 O   0  0  0  0  0  0  0  0  0  0  0  0
    3.7436   -1.1936    0.4932 N   0  0  0  0  0  0  0  0  0  0  0  0
    2.4800   -1.8318    0.8486 C   0  0  0  0  0  0  0  0  0  0  0  0
    1.4627   -1.4632   -0.2243 C   0  0  0  0  0  0  0  0  0  0  0  0
    1.3655    0.0047   -0.1608 N   0  0  0  0  0  0  0  0  0  0  0  0
    2.4226    0.7818    0.1164 C   0  0  0  0  0  0  0  0  0  0  0  0
    1.9785    2.0609    0.0921 N   0  0  0  0  0  0  0  0  0  0  0  0
    0.6736    2.0350   -0.1961 C   0  0  0  0  0  0  0  0  0  0  0  0
   -0.1702    3.2425   -0.3034 C   0  0  0  0  0  0  0  0  0  0  0  0
    0.0090    4.0508   -1.3977 C   0  0  0  0  0  0  0  0  0  0  0  0
   -0.7298    5.2143   -1.5907 C   0  0  0  0  0  0  0  0  0  0  0  0
   -1.6792    5.5444   -0.6190 C   0  0  0  0  0  0  0  0  0  0  0  0
   -2.4345    6.6630   -0.7441 F   0  0  0  0  0  0  0  0  0  0  0  0
   -1.8595    4.7349    0.4784 C   0  0  0  0  0  0  0  0  0  0  0  0
   -1.1065    3.5739    0.6491 C   0  0  0  0  0  0  0  0  0  0  0  0
    0.2549    0.7376   -0.3632 C   0  0  0  0  0  0  0  0  0  0  0  0
   -1.0831    0.2797   -0.6886 C   0  0  0  0  0  0  0  0  0  0  0  0
   -1.6321    0.6497   -1.9115 C   0  0  0  0  0  0  0  0  0  0  0  0
   -2.8892    0.2553   -2.2833 C   0  0  0  0  0  0  0  0  0  0  0  0
   -3.6221   -0.5286   -1.4183 C   0  0  0  0  0  0  0  0  0  0  0  0
   -4.8610   -1.0312   -1.5660 N   0  0  0  0  0  0  0  0  0  0  0  0
   -5.1317   -1.7326   -0.4423 C   0  0  0  0  0  0  0  0  0  0  0  0
   -4.0330   -1.6443    0.3838 C   0  0  0  0  0  0  0  0  0  0  0  0
   -3.9081   -2.2602    1.7009 C   0  0  0  0  0  0  0  0  0  0  0  0
   -4.9599   -3.0360    2.2363 N   0  0  0  0  0  0  0  0  0  0  0  0
   -2.8692   -2.1251    2.4017 O   0  0  0  0  0  0  0  0  0  0  0  0
   -3.0914   -0.8885   -0.2330 N   0  0  0  0  0  0  0  0  0  0  0  0
   -1.8528   -0.5030    0.1408 C   0  0  0  0  0  0  0  0  0  0  0  0
    3.8006    0.2357    0.3923 C   0  0  0  0  0  0  0  0  0  0  0  0
    5.6905   -4.9858   -0.6691 H   0  0  0  0  0  0  0  0  0  0  0  0
    6.8128   -3.6706   -0.2621 H   0  0  0  0  0  0  0  0  0  0  0  0
    6.2121   -4.8160    1.0311 H   0  0  0  0  0  0  0  0  0  0  0  0
    2.1401   -1.3637    1.7917 H   0  0  0  0  0  0  0  0  0  0  0  0
    2.5861   -2.9257    0.9488 H   0  0  0  0  0  0  0  0  0  0  0  0
    1.7716   -1.7861   -1.2213 H   0  0  0  0  0  0  0  0  0  0  0  0
    0.5122   -1.9460    0.0741 H   0  0  0  0  0  0  0  0  0  0  0  0
    0.7415    3.8030   -2.1520 H   0  0  0  0  0  0  0  0  0  0  0  0
   -0.5682    5.8229   -2.4483 H   0  0  0  0  0  0  0  0  0  0  0  0
   -2.5952    4.9923    1.2296 H   0  0  0  0  0  0  0  0  0  0  0  0
   -1.2316    2.9281    1.4994 H   0  0  0  0  0  0  0  0  0  0  0  0
   -1.0676    1.2728   -2.6085 H   0  0  0  0  0  0  0  0  0  0  0  0
   -3.2955    0.5547   -3.2380 H   0  0  0  0  0  0  0  0  0  0  0  0
   -6.0580   -2.2668   -0.2374 H   0  0  0  0  0  0  0  0  0  0  0  0
   -4.9434   -4.0694    2.1459 H   0  0  0  0  0  0  0  0  0  0  0  0
   -5.7524   -2.5831    2.7192 H   0  0  0  0  0  0  0  0  0  0  0  0
   -1.4504   -0.8001    1.0880 H   0  0  0  0  0  0  0  0  0  0  0  0
    4.3945    0.4718   -0.5235 H   0  0  0  0  0  0  0  0  0  0  0  0
    4.2381    0.7135    1.2991 H   0  0  0  0  0  0  0  0  0  0  0  0
  1  2  1  0
  2  3  1  0
  3  4  2  0
  3  5  1  0
  5  6  1  0
  6  7  1  0
  7  8  1  0
  8  9  1  0
  9 10  2  0
 10 11  1  0
 11 12  1  0
 12 13  2  0
 13 14  1  0
 14 15  2  0
 15 16  1  0
 15 17  1  0
 17 18  2  0
 11 19  2  0
 19 20  1  0
 20 21  1  0
 21 22  2  0
 22 23  1  0
 23 24  2  0
 24 25  1  0
 25 26  2  0
 26 27  1  0
 27 28  1  0
 27 29  2  0
 26 30  1  0
 30 31  1  0
  9 32  1  0
 32  5  1  0
 19  8  1  0
 31 20  2  0
 18 12  1  0
 30 23  1  0
  1 33  1  0
  1 34  1  0
  1 35  1  0
  6 36  1  0
  6 37  1  0
  7 38  1  0
  7 39  1  0
 13 40  1  0
 14 41  1  0
 17 42  1  0
 18 43  1  0
 21 44  1  0
 22 45  1  0
 25 46  1  0
 28 47  1  0
 28 48  1  0
 31 49  1  0
 32 50  1  0
 32 51  1  0
M  END
$$$$
