@<TRIPOS>MOLECULE
*****
 85 87 0 0 0
SMALL
GASTEIGER

@<TRIPOS>ATOM
      1 C           4.6103   -0.5656    0.6001 C.3     1  UNL1        0.1371
      2 O           4.9577   -1.4068   -0.4270 O.3     1  UNL1       -0.3818
      3 C           5.8442   -0.2725    1.4042 C.2     1  UNL1        0.2127
      4 O           6.4249   -1.3914    1.9767 O.2     1  UNL1       -0.4939
      5 N           6.3376    0.8951    1.5633 N.2     1  UNL1       -0.2521
      6 C           7.5213    1.1915    2.3331 C.3     1  UNL1        0.0515
      7 C           8.7167    1.4844    1.4554 C.3     1  UNL1        0.0426
      8 C           9.0670    0.3402    0.5762 C.2     1  UNL1        0.1842
      9 O           8.1695   -0.1472   -0.3628 O.2     1  UNL1       -0.4956
     10 N          10.2223   -0.2218    0.6747 N.2     1  UNL1       -0.2539
     11 C          10.5958   -1.3278   -0.1561 C.3     1  UNL1        0.0528
     12 C          11.4212   -0.8538   -1.3537 C.3     1  UNL1        0.0233
     13 S          12.9254   -0.0323   -0.7496 S.3     1  UNL1       -0.0946
     14 S          12.4749    1.7552    0.2829 S.3     1  UNL1       -0.1104
     15 C           3.9402    0.7075    0.1819 C.3     1  UNL1        0.0236
     16 C           4.7970    1.5545   -0.7262 C.3     1  UNL1       -0.0549
     17 C           3.5609    1.4614    1.4493 C.3     1  UNL1       -0.0549
     18 C           2.6234    0.3547   -0.5182 C.3     1  UNL1        0.0670
     19 O           1.8031   -0.3406    0.3412 O.3     1  UNL1       -0.2857
     20 P           0.3243   -0.7880   -0.3139 P.3     1  UNL1        0.4834
     21 O           0.3743   -2.3599   -0.9537 O.3     1  UNL1       -0.3022
     22 O           0.0239    0.2173   -1.4222 O.2     1  UNL1       -0.2269
     23 O          -0.8404   -0.7366    0.9073 O.3     1  UNL1       -0.1861
     24 P          -1.9715   -1.9840    0.6483 P.3     1  UNL1        0.4835
     25 O          -2.0702   -2.2521   -1.0149 O.3     1  UNL1       -0.3022
     26 O          -1.5012   -3.2620    1.2972 O.2     1  UNL1       -0.2269
     27 O          -3.4654   -1.4908    1.2652 O.3     1  UNL1       -0.2837
     28 C          -3.9470   -0.3652    0.6153 C.3     1  UNL1        0.0879
     29 C          -5.2872    0.0359    1.1770 C.3     1  UNL1        0.1142
     30 O          -5.8026    1.1618    0.5518 O.3     1  UNL1       -0.3456
     31 C          -7.1607    1.1830    0.7603 C.3     1  UNL1        0.1667
     32 N          -7.8416    1.3153   -0.5142 N.ar    1  UNL1       -0.2855
     33 C          -7.4896    0.9824   -1.7665 C.ar    1  UNL1        0.1004
     34 N          -8.4552    1.2984   -2.6436 N.ar    1  UNL1       -0.2306
     35 C          -9.4806    1.8548   -1.9808 C.ar    1  UNL1        0.1473
     36 C         -10.7236    2.3698   -2.3289 C.ar    1  UNL1        0.1472
     37 N         -11.1099    2.3526   -3.7182 N.pl3   1  UNL1       -0.3413
     38 N         -11.5151    2.8647   -1.3452 N.ar    1  UNL1       -0.2188
     39 C         -11.1157    2.8604   -0.0686 C.ar    1  UNL1        0.1205
     40 N          -9.9203    2.3647    0.2634 N.ar    1  UNL1       -0.2159
     41 C          -9.0846    1.8583   -0.6600 C.ar    1  UNL1        0.1674
     42 C          -7.5631   -0.1668    1.3346 C.3     1  UNL1        0.1294
     43 O          -7.5622   -0.0276    2.7058 O.3     1  UNL1       -0.3846
     44 C          -6.3577   -0.9885    0.8695 C.3     1  UNL1        0.1283
     45 O          -6.2334   -2.1594    1.5880 O.3     1  UNL1       -0.2780
     46 P          -6.3909   -3.4405    0.4779 P.3     1  UNL1        0.4728
     47 O          -7.9459   -3.2930   -0.1968 O.3     1  UNL1       -0.3026
     48 O          -6.1887   -4.9380    1.2261 O.3     1  UNL1       -0.3026
     49 O          -5.3795   -3.2175   -0.6116 O.2     1  UNL1       -0.2275
     50 H           3.9186   -1.0888    1.3081 H       1  UNL1        0.0697
     51 H           5.6498   -1.0324   -1.0098 H       1  UNL1        0.2105
     52 H           7.4311   -1.4329    2.1731 H       1  UNL1        0.2935
     53 H           7.7816    0.3776    3.0131 H       1  UNL1        0.0514
     54 H           7.2793    2.1432    2.8830 H       1  UNL1        0.0514
     55 H           8.4837    2.3814    0.8185 H       1  UNL1        0.0377
     56 H           9.6074    1.7595    2.0336 H       1  UNL1        0.0377
     57 H           8.5383   -0.4340   -1.2592 H       1  UNL1        0.2934
     58 H           9.7441   -1.9068   -0.5461 H       1  UNL1        0.0517
     59 H          11.2343   -2.0539    0.3967 H       1  UNL1        0.0517
     60 H          11.7421   -1.7598   -1.9055 H       1  UNL1        0.0402
     61 H          10.8122   -0.2153   -1.9952 H       1  UNL1        0.0402
     62 H          12.4419    2.8800   -0.5561 H       1  UNL1        0.1140
     63 H           5.7370    1.0003   -0.9203 H       1  UNL1        0.0237
     64 H           4.2700    1.7661   -1.6843 H       1  UNL1        0.0237
     65 H           5.0353    2.5456   -0.2523 H       1  UNL1        0.0237
     66 H           3.2133    0.7262    2.1786 H       1  UNL1        0.0237
     67 H           2.6585    2.0804    1.1714 H       1  UNL1        0.0237
     68 H           4.3303    2.1459    1.8090 H       1  UNL1        0.0237
     69 H           2.7861   -0.1411   -1.4953 H       1  UNL1        0.0572
     70 H           2.1278    1.3328   -0.7598 H       1  UNL1        0.0572
     71 H           0.9777   -2.4377   -1.7141 H       1  UNL1        0.2220
     72 H          -2.1582   -3.2208   -1.1674 H       1  UNL1        0.2220
     73 H          -3.2452    0.4628    0.5272 H       1  UNL1        0.0592
     74 H          -4.1490   -0.7006   -0.4443 H       1  UNL1        0.0592
     75 H          -5.2940    0.2134    2.2592 H       1  UNL1        0.0647
     76 H          -7.4971    2.0175    1.4056 H       1  UNL1        0.0866
     77 H          -6.5365    0.5180   -1.9999 H       1  UNL1        0.1030
     78 H         -11.7248    1.4996   -3.7972 H       1  UNL1        0.1438
     79 H         -10.7231    3.1376   -4.3106 H       1  UNL1        0.1438
     80 H         -11.8421    3.2830    0.6052 H       1  UNL1        0.1048
     81 H          -8.5058   -0.5509    0.9100 H       1  UNL1        0.0666
     82 H          -6.9389   -0.7052    3.0617 H       1  UNL1        0.2101
     83 H          -6.5221   -1.1358   -0.2189 H       1  UNL1        0.0656
     84 H          -7.8934   -2.6702   -0.9816 H       1  UNL1        0.2220
     85 H          -7.1021   -5.2192    1.5452 H       1  UNL1        0.2220
@<TRIPOS>BOND
     1     1     2    1
     2     1     3    1
     3     3     4    1
     4     3     5    2
     5     5     6    1
     6     6     7    1
     7     7     8    1
     8     8     9    1
     9     8    10    2
    10    10    11    1
    11    11    12    1
    12    12    13    1
    13    13    14    1
    14     1    15    1
    15    15    16    1
    16    15    17    1
    17    15    18    1
    18    18    19    1
    19    19    20    1
    20    20    21    1
    21    20    22    2
    22    20    23    1
    23    23    24    1
    24    24    25    1
    25    24    26    2
    26    24    27    1
    27    27    28    1
    28    28    29    1
    29    29    30    1
    30    30    31    1
    31    31    32    1
    32    32    33   ar
    33    33    34   ar
    34    34    35   ar
    35    35    36   ar
    36    36    37    1
    37    36    38   ar
    38    38    39   ar
    39    39    40   ar
    40    40    41   ar
    41    31    42    1
    42    42    43    1
    43    42    44    1
    44    44    45    1
    45    45    46    1
    46    46    47    1
    47    46    48    1
    48    46    49    2
    49    44    29    1
    50    41    32   ar
    51    41    35   ar
    52     1    50    1
    53     2    51    1
    54     4    52    1
    55     6    53    1
    56     6    54    1
    57     7    55    1
    58     7    56    1
    59     9    57    1
    60    11    58    1
    61    11    59    1
    62    12    60    1
    63    12    61    1
    64    14    62    1
    65    16    63    1
    66    16    64    1
    67    16    65    1
    68    17    66    1
    69    17    67    1
    70    17    68    1
    71    18    69    1
    72    18    70    1
    73    21    71    1
    74    25    72    1
    75    28    73    1
    76    28    74    1
    77    29    75    1
    78    31    76    1
    79    33    77    1
    80    37    78    1
    81    37    79    1
    82    39    80    1
    83    42    81    1
    84    43    82    1
    85    44    83    1
    86    47    84    1
    87    48    85    1
