
     RDKit          3D

 85 87  0  0  0  0  0  0  0  0999 V2000
    4.6103   -0.5656    0.6001 C   0  0  1  0  0  0  0  0  0  0  0  0
    4.9577   -1.4068   -0.4270 O   0  0  0  0  0  0  0  0  0  0  0  0
    5.8442   -0.2725    1.4042 C   0  0  0  0  0  0  0  0  0  0  0  0
    6.4249   -1.3914    1.9767 O   0  0  0  0  0  0  0  0  0  0  0  0
    6.3376    0.8951    1.5633 N   0  0  0  0  0  0  0  0  0  0  0  0
    7.5213    1.1915    2.3331 C   0  0  0  0  0  0  0  0  0  0  0  0
    8.7167    1.4844    1.4554 C   0  0  0  0  0  0  0  0  0  0  0  0
    9.0670    0.3402    0.5762 C   0  0  0  0  0  0  0  0  0  0  0  0
    8.1695   -0.1472   -0.3628 O   0  0  0  0  0  0  0  0  0  0  0  0
   10.2223   -0.2218    0.6747 N   0  0  0  0  0  0  0  0  0  0  0  0
   10.5958   -1.3278   -0.1561 C   0  0  0  0  0  0  0  0  0  0  0  0
   11.4212   -0.8538   -1.3537 C   0  0  0  0  0  0  0  0  0  0  0  0
   12.9254   -0.0323   -0.7496 S   0  0  0  0  0  0  0  0  0  0  0  0
   12.4749    1.7552    0.2829 S   0  0  0  0  0  0  0  0  0  0  0  0
    3.9402    0.7075    0.1819 C   0  0  0  0  0  0  0  0  0  0  0  0
    4.7970    1.5545   -0.7262 C   0  0  0  0  0  0  0  0  0  0  0  0
    3.5609    1.4614    1.4493 C   0  0  0  0  0  0  0  0  0  0  0  0
    2.6234    0.3547   -0.5182 C   0  0  0  0  0  0  0  0  0  0  0  0
    1.8031   -0.3406    0.3412 O   0  0  0  0  0  0  0  0  0  0  0  0
    0.3243   -0.7880   -0.3139 P   0  0  0  0  0  0  0  0  0  0  0  0
    0.3743   -2.3599   -0.9537 O   0  0  0  0  0  0  0  0  0  0  0  0
    0.0239    0.2173   -1.4222 O   0  0  0  0  0  0  0  0  0  0  0  0
   -0.8404   -0.7366    0.9073 O   0  0  0  0  0  0  0  0  0  0  0  0
   -1.9715   -1.9840    0.6483 P   0  0  0  0  0  0  0  0  0  0  0  0
   -2.0702   -2.2521   -1.0149 O   0  0  0  0  0  0  0  0  0  0  0  0
   -1.5012   -3.2620    1.2972 O   0  0  0  0  0  0  0  0  0  0  0  0
   -3.4654   -1.4908    1.2652 O   0  0  0  0  0  0  0  0  0  0  0  0
   -3.9470   -0.3652    0.6153 C   0  0  0  0  0  0  0  0  0  0  0  0
   -5.2872    0.0359    1.1770 C   0  0  1  0  0  0  0  0  0  0  0  0
   -5.8026    1.1618    0.5518 O   0  0  0  0  0  0  0  0  0  0  0  0
   -7.1607    1.1830    0.7603 C   0  0  1  0  0  0  0  0  0  0  0  0
   -7.8416    1.3153   -0.5142 N   0  0  0  0  0  0  0  0  0  0  0  0
   -7.4896    0.9824   -1.7665 C   0  0  0  0  0  0  0  0  0  0  0  0
   -8.4552    1.2984   -2.6436 N   0  0  0  0  0  0  0  0  0  0  0  0
   -9.4806    1.8548   -1.9808 C   0  0  0  0  0  0  0  0  0  0  0  0
  -10.7236    2.3698   -2.3289 C   0  0  0  0  0  0  0  0  0  0  0  0
  -11.1099    2.3526   -3.7182 N   0  0  0  0  0  0  0  0  0  0  0  0
  -11.5151    2.8647   -1.3452 N   0  0  0  0  0  0  0  0  0  0  0  0
  -11.1157    2.8604   -0.0686 C   0  0  0  0  0  0  0  0  0  0  0  0
   -9.9203    2.3647    0.2634 N   0  0  0  0  0  0  0  0  0  0  0  0
   -9.0846    1.8583   -0.6600 C   0  0  0  0  0  0  0  0  0  0  0  0
   -7.5631   -0.1668    1.3346 C   0  0  2  0  0  0  0  0  0  0  0  0
   -7.5622   -0.0276    2.7058 O   0  0  0  0  0  0  0  0  0  0  0  0
   -6.3577   -0.9885    0.8695 C   0  0  2  0  0  0  0  0  0  0  0  0
   -6.2334   -2.1594    1.5880 O   0  0  0  0  0  0  0  0  0  0  0  0
   -6.3909   -3.4405    0.4779 P   0  0  0  0  0  0  0  0  0  0  0  0
   -7.9459   -3.2930   -0.1968 O   0  0  0  0  0  0  0  0  0  0  0  0
   -6.1887   -4.9380    1.2261 O   0  0  0  0  0  0  0  0  0  0  0  0
   -5.3795   -3.2175   -0.6116 O   0  0  0  0  0  0  0  0  0  0  0  0
    3.9186   -1.0888    1.3081 H   0  0  0  0  0  0  0  0  0  0  0  0
    5.6498   -1.0324   -1.0098 H   0  0  0  0  0  0  0  0  0  0  0  0
    7.4311   -1.4329    2.1731 H   0  0  0  0  0  0  0  0  0  0  0  0
    7.7816    0.3776    3.0131 H   0  0  0  0  0  0  0  0  0  0  0  0
    7.2793    2.1432    2.8830 H   0  0  0  0  0  0  0  0  0  0  0  0
    8.4837    2.3814    0.8185 H   0  0  0  0  0  0  0  0  0  0  0  0
    9.6074    1.7595    2.0336 H   0  0  0  0  0  0  0  0  0  0  0  0
    8.5383   -0.4340   -1.2592 H   0  0  0  0  0  0  0  0  0  0  0  0
    9.7441   -1.9068   -0.5461 H   0  0  0  0  0  0  0  0  0  0  0  0
   11.2343   -2.0539    0.3967 H   0  0  0  0  0  0  0  0  0  0  0  0
   11.7421   -1.7598   -1.9055 H   0  0  0  0  0  0  0  0  0  0  0  0
   10.8122   -0.2153   -1.9952 H   0  0  0  0  0  0  0  0  0  0  0  0
   12.4419    2.8800   -0.5561 H   0  0  0  0  0  0  0  0  0  0  0  0
    5.7370    1.0003   -0.9203 H   0  0  0  0  0  0  0  0  0  0  0  0
    4.2700    1.7661   -1.6843 H   0  0  0  0  0  0  0  0  0  0  0  0
    5.0353    2.5456   -0.2523 H   0  0  0  0  0  0  0  0  0  0  0  0
    3.2133    0.7262    2.1786 H   0  0  0  0  0  0  0  0  0  0  0  0
    2.6585    2.0804    1.1714 H   0  0  0  0  0  0  0  0  0  0  0  0
    4.3303    2.1459    1.8090 H   0  0  0  0  0  0  0  0  0  0  0  0
    2.7861   -0.1411   -1.4953 H   0  0  0  0  0  0  0  0  0  0  0  0
    2.1278    1.3328   -0.7598 H   0  0  0  0  0  0  0  0  0  0  0  0
    0.9777   -2.4377   -1.7141 H   0  0  0  0  0  0  0  0  0  0  0  0
   -2.1582   -3.2208   -1.1674 H   0  0  0  0  0  0  0  0  0  0  0  0
   -3.2452    0.4628    0.5272 H   0  0  0  0  0  0  0  0  0  0  0  0
   -4.1490   -0.7006   -0.4443 H   0  0  0  0  0  0  0  0  0  0  0  0
   -5.2940    0.2134    2.2592 H   0  0  0  0  0  0  0  0  0  0  0  0
   -7.4971    2.0175    1.4056 H   0  0  0  0  0  0  0  0  0  0  0  0
   -6.5365    0.5180   -1.9999 H   0  0  0  0  0  0  0  0  0  0  0  0
  -11.7248    1.4996   -3.7972 H   0  0  0  0  0  0  0  0  0  0  0  0
  -10.7231    3.1376   -4.3106 H   0  0  0  0  0  0  0  0  0  0  0  0
  -11.8421    3.2830    0.6052 H   0  0  0  0  0  0  0  0  0  0  0  0
   -8.5058   -0.5509    0.9100 H   0  0  0  0  0  0  0  0  0  0  0  0
   -6.9389   -0.7052    3.0617 H   0  0  0  0  0  0  0  0  0  0  0  0
   -6.5221   -1.1358   -0.2189 H   0  0  0  0  0  0  0  0  0  0  0  0
   -7.8934   -2.6702   -0.9816 H   0  0  0  0  0  0  0  0  0  0  0  0
   -7.1021   -5.2192    1.5452 H   0  0  0  0  0  0  0  0  0  0  0  0
  1  2  1  0
  1  3  1  0
  3  4  1  0
  3  5  2  3
  5  6  1  0
  6  7  1  0
  7  8  1  0
  8  9  1  0
  8 10  2  3
 10 11  1  0
 11 12  1  0
 12 13  1  0
 13 14  1  0
  1 15  1  0
 15 16  1  0
 15 17  1  0
 15 18  1  0
 18 19  1  0
 19 20  1  0
 20 21  1  0
 20 22  2  0
 20 23  1  0
 23 24  1  0
 24 25  1  0
 24 26  2  0
 24 27  1  0
 27 28  1  0
 28 29  1  0
 29 30  1  0
 30 31  1  0
 31 32  1  0
 32 33  1  0
 33 34  2  0
 34 35  1  0
 35 36  2  0
 36 37  1  0
 36 38  1  0
 38 39  2  0
 39 40  1  0
 40 41  2  0
 31 42  1  0
 42 43  1  0
 42 44  1  0
 44 45  1  0
 45 46  1  0
 46 47  1  0
 46 48  1  0
 46 49  2  0
 44 29  1  0
 41 32  1  0
 41 35  1  0
  1 50  1  1
  2 51  1  0
  4 52  1  0
  6 53  1  0
  6 54  1  0
  7 55  1  0
  7 56  1  0
  9 57  1  0
 11 58  1  0
 11 59  1  0
 12 60  1  0
 12 61  1  0
 14 62  1  0
 16 63  1  0
 16 64  1  0
 16 65  1  0
 17 66  1  0
 17 67  1  0
 17 68  1  0
 18 69  1  0
 18 70  1  0
 21 71  1  0
 25 72  1  0
 28 73  1  0
 28 74  1  0
 29 75  1  1
 31 76  1  1
 33 77  1  0
 37 78  1  0
 37 79  1  0
 39 80  1  0
 42 81  1  6
 43 82  1  0
 44 83  1  6
 47 84  1  0
 48 85  1  0
M  END
$$$$
