@<TRIPOS>MOLECULE
*****
 72 78 0 0 0
SMALL
GASTEIGER

@<TRIPOS>ATOM
      1 O           7.5626    0.4390    1.6752 O.3     1  UNL1       -0.3933
      2 C           6.5744   -0.3611    1.0818 C.3     1  UNL1        0.0632
      3 C           6.4656   -0.1342   -0.4104 C.3     1  UNL1        0.0718
      4 C           7.7901   -0.6831   -0.9842 C.3     1  UNL1        0.0632
      5 O           7.8286   -2.0163   -0.5259 O.3     1  UNL1       -0.3933
      6 N           5.4407   -0.9488   -0.9477 N.3     1  UNL1       -0.2230
      7 N           4.1332   -0.5454   -0.6731 N.am    1  UNL1       -0.1643
      8 C           3.5356    0.6051   -0.0914 C.2     1  UNL1        0.2685
      9 O           4.3411    1.4950    0.2404 O.2     1  UNL1       -0.2682
     10 C           2.1001    0.4779   -0.0187 C.ar    1  UNL1        0.0611
     11 C           1.1278    1.2944    0.4454 C.ar    1  UNL1        0.0223
     12 C          -0.1988    0.9228    0.3968 C.ar    1  UNL1        0.0728
     13 N          -0.9398    1.9198    0.9152 N.ar    1  UNL1       -0.3524
     14 C          -0.1305    2.9501    1.3096 C.ar    1  UNL1        0.0510
     15 C           1.1502    2.5390    1.0078 C.ar    1  UNL1        0.0084
     16 C           2.0821    3.4799    1.3507 C.ar    1  UNL1       -0.0485
     17 C           1.8493    4.7079    1.9285 C.ar    1  UNL1       -0.0195
     18 C           0.5505    5.0697    2.2095 C.ar    1  UNL1        0.1188
     19 O           0.2377    6.2878    2.7901 O.3     1  UNL1       -0.5067
     20 C          -0.4488    4.1774    1.8948 C.ar    1  UNL1        0.0038
     21 C          -0.5716   -0.3098   -0.1340 C.ar    1  UNL1        0.0772
     22 N          -1.7740   -0.9021   -0.2959 N.ar    1  UNL1       -0.3093
     23 C          -3.0584   -0.3794    0.0820 C.3     1  UNL1        0.1649
     24 O          -4.0494   -1.3909    0.1773 O.3     1  UNL1       -0.3457
     25 C          -5.0958   -0.9225    0.9244 C.3     1  UNL1        0.1125
     26 C          -6.1812   -2.0023    0.8645 C.3     1  UNL1        0.0730
     27 O          -6.5077   -2.1463   -0.4860 O.3     1  UNL1       -0.3924
     28 C          -5.7214    0.3372    0.4066 C.3     1  UNL1        0.1119
     29 O          -6.2754    0.9812    1.5378 O.3     1  UNL1       -0.3865
     30 C          -4.7735    1.3055   -0.1975 C.3     1  UNL1        0.1135
     31 O          -5.4376    2.1495   -1.0938 O.3     1  UNL1       -0.3864
     32 C          -3.6624    0.5784   -0.9094 C.3     1  UNL1        0.1285
     33 O          -2.7716    1.3878   -1.5684 O.3     1  UNL1       -0.3847
     34 C          -1.5182   -2.0918   -0.8692 C.ar    1  UNL1        0.0559
     35 C          -0.1603   -2.2220   -1.0534 C.ar    1  UNL1        0.0087
     36 C           0.1862   -3.4085   -1.6364 C.ar    1  UNL1       -0.0485
     37 C          -0.6394   -4.4373   -2.0396 C.ar    1  UNL1       -0.0195
     38 C          -2.0149   -4.2638   -1.8341 C.ar    1  UNL1        0.1189
     39 O          -2.8605   -5.2919   -2.2352 O.3     1  UNL1       -0.5067
     40 C          -2.4301   -3.0738   -1.2431 C.ar    1  UNL1        0.0040
     41 C           0.4741   -1.1129   -0.5994 C.ar    1  UNL1        0.0226
     42 C           1.7942   -0.7533   -0.5560 C.ar    1  UNL1        0.0612
     43 C           3.0178   -1.4089   -0.9685 C.2     1  UNL1        0.2685
     44 O           3.2326   -2.5187   -1.4981 O.2     1  UNL1       -0.2682
     45 H           7.9291    1.0593    1.0104 H       1  UNL1        0.2095
     46 H           5.6308   -0.3300    1.6354 H       1  UNL1        0.0574
     47 H           6.9416   -1.4400    1.1666 H       1  UNL1        0.0574
     48 H           6.3815    0.9375   -0.6590 H       1  UNL1        0.0522
     49 H           8.6353   -0.1148   -0.5668 H       1  UNL1        0.0574
     50 H           7.7041   -0.6478   -2.0881 H       1  UNL1        0.0574
     51 H           7.5333   -2.6062   -1.2647 H       1  UNL1        0.2095
     52 H           5.5819   -1.9583   -0.8466 H       1  UNL1        0.1454
     53 H          -1.9857    2.0173    1.0462 H       1  UNL1        0.1660
     54 H           3.1104    3.2942    1.1739 H       1  UNL1        0.0625
     55 H           2.6309    5.4114    2.1772 H       1  UNL1        0.0654
     56 H          -0.0358    7.0296    2.1528 H       1  UNL1        0.2921
     57 H          -1.4558    4.4781    2.1218 H       1  UNL1        0.0675
     58 H          -3.0673    0.0101    1.1447 H       1  UNL1        0.0866
     59 H          -4.7865   -0.8754    1.9875 H       1  UNL1        0.0647
     60 H          -7.0909   -1.7135    1.4024 H       1  UNL1        0.0584
     61 H          -5.7828   -2.9814    1.1916 H       1  UNL1        0.0584
     62 H          -5.9367   -1.6094   -1.0877 H       1  UNL1        0.2095
     63 H          -6.5866    0.1363   -0.2560 H       1  UNL1        0.0647
     64 H          -6.4411    0.3350    2.2797 H       1  UNL1        0.2100
     65 H          -4.3302    1.9668    0.5659 H       1  UNL1        0.0647
     66 H          -5.8798    2.9116   -0.6067 H       1  UNL1        0.2100
     67 H          -4.1820   -0.0137   -1.7231 H       1  UNL1        0.0665
     68 H          -3.0572    2.3400   -1.6238 H       1  UNL1        0.2101
     69 H           1.2071   -3.6332   -1.8340 H       1  UNL1        0.0625
     70 H          -0.2818   -5.3581   -2.5001 H       1  UNL1        0.0654
     71 H          -3.1395   -5.3424   -3.2126 H       1  UNL1        0.2921
     72 H          -3.5001   -3.0835   -1.1555 H       1  UNL1        0.0675
@<TRIPOS>BOND
     1     1     2    1
     2     2     3    1
     3     3     4    1
     4     4     5    1
     5     3     6    1
     6     6     7    1
     7     7     8   am
     8     8     9    2
     9     8    10    1
    10    10    11   ar
    11    11    12   ar
    12    12    13   ar
    13    13    14   ar
    14    14    15   ar
    15    15    16   ar
    16    16    17   ar
    17    17    18   ar
    18    18    19    1
    19    18    20   ar
    20    12    21   ar
    21    21    22   ar
    22    22    23    1
    23    23    24    1
    24    24    25    1
    25    25    26    1
    26    26    27    1
    27    25    28    1
    28    28    29    1
    29    28    30    1
    30    30    31    1
    31    30    32    1
    32    32    33    1
    33    22    34   ar
    34    34    35   ar
    35    35    36   ar
    36    36    37   ar
    37    37    38   ar
    38    38    39    1
    39    38    40   ar
    40    35    41   ar
    41    41    42   ar
    42    42    43    1
    43    43    44    2
    44    43     7   am
    45    42    10   ar
    46    15    11   ar
    47    41    21   ar
    48    20    14   ar
    49    32    23    1
    50    40    34   ar
    51     1    45    1
    52     2    46    1
    53     2    47    1
    54     3    48    1
    55     4    49    1
    56     4    50    1
    57     5    51    1
    58     6    52    1
    59    13    53    1
    60    16    54    1
    61    17    55    1
    62    19    56    1
    63    20    57    1
    64    23    58    1
    65    25    59    1
    66    26    60    1
    67    26    61    1
    68    27    62    1
    69    28    63    1
    70    29    64    1
    71    30    65    1
    72    31    66    1
    73    32    67    1
    74    33    68    1
    75    36    69    1
    76    37    70    1
    77    39    71    1
    78    40    72    1
