
     RDKit          3D

 47 50  0  0  0  0  0  0  0  0999 V2000
    7.4807   -0.9205    1.0717 O   0  0  0  0  0  0  0  0  0  0  0  0
    6.3464   -0.4346    1.2977 C   0  0  0  0  0  0  0  0  0  0  0  0
    6.1870    0.4530    2.3970 N   0  0  0  0  0  0  0  0  0  0  0  0
    7.2328    0.7868    3.2072 O   0  0  0  0  0  0  0  0  0  0  0  0
    5.1689   -0.7594    0.4520 C   0  0  1  0  0  0  0  0  0  0  0  0
    4.7517    0.4731   -0.3533 C   0  0  0  0  0  0  0  0  0  0  0  0
    3.9332   -0.1414   -1.3822 N   0  0  0  0  0  0  0  0  0  0  0  0
    2.7470    0.4475   -1.9739 C   0  0  0  0  0  0  0  0  0  0  0  0
    1.5151    0.0910   -1.2409 C   0  0  0  0  0  0  0  0  0  0  0  0
    1.0860    0.9016   -0.2059 C   0  0  0  0  0  0  0  0  0  0  0  0
   -0.0789    0.5662    0.4887 C   0  0  0  0  0  0  0  0  0  0  0  0
   -0.8051   -0.5574    0.1591 C   0  0  0  0  0  0  0  0  0  0  0  0
   -1.9504   -0.8332    0.8870 O   0  0  0  0  0  0  0  0  0  0  0  0
   -3.1720   -0.3280    0.4809 C   0  0  0  0  0  0  0  0  0  0  0  0
   -3.2948    0.4540   -0.6416 C   0  0  0  0  0  0  0  0  0  0  0  0
   -4.5125    0.9656   -1.0583 C   0  0  0  0  0  0  0  0  0  0  0  0
   -5.6185    0.6665   -0.3069 C   0  0  0  0  0  0  0  0  0  0  0  0
   -6.8830    1.1458   -0.6626 C   0  0  0  0  0  0  0  0  0  0  0  0
   -7.9905    0.8404    0.0984 C   0  0  0  0  0  0  0  0  0  0  0  0
   -7.9019    0.0590    1.2296 C   0  0  0  0  0  0  0  0  0  0  0  0
   -6.6530   -0.4079    1.5714 C   0  0  0  0  0  0  0  0  0  0  0  0
   -5.5266   -0.1170    0.8265 C   0  0  0  0  0  0  0  0  0  0  0  0
   -4.3009   -0.6087    1.2114 C   0  0  0  0  0  0  0  0  0  0  0  0
   -0.3550   -1.3473   -0.8761 C   0  0  0  0  0  0  0  0  0  0  0  0
    0.7983   -1.0305   -1.5766 C   0  0  0  0  0  0  0  0  0  0  0  0
    4.5487   -1.3961   -1.6522 C   0  0  0  0  0  0  0  0  0  0  0  0
    4.2662   -2.1162   -2.6469 O   0  0  0  0  0  0  0  0  0  0  0  0
    5.5147   -1.6755   -0.6175 N   0  0  0  0  0  0  0  0  0  0  0  0
    5.2181    0.8500    2.5666 H   0  0  0  0  0  0  0  0  0  0  0  0
    7.3693    1.7818    3.1231 H   0  0  0  0  0  0  0  0  0  0  0  0
    4.3066   -1.1226    1.0494 H   0  0  0  0  0  0  0  0  0  0  0  0
    5.6983    0.8910   -0.7696 H   0  0  0  0  0  0  0  0  0  0  0  0
    4.2007    1.1910    0.2582 H   0  0  0  0  0  0  0  0  0  0  0  0
    2.8078    1.5550   -2.0093 H   0  0  0  0  0  0  0  0  0  0  0  0
    2.6223    0.1121   -3.0367 H   0  0  0  0  0  0  0  0  0  0  0  0
    1.6154    1.7910    0.0928 H   0  0  0  0  0  0  0  0  0  0  0  0
   -0.3907    1.2165    1.2918 H   0  0  0  0  0  0  0  0  0  0  0  0
   -2.4273    0.6836   -1.2236 H   0  0  0  0  0  0  0  0  0  0  0  0
   -4.6086    1.5781   -1.9375 H   0  0  0  0  0  0  0  0  0  0  0  0
   -6.9580    1.7599   -1.5501 H   0  0  0  0  0  0  0  0  0  0  0  0
   -8.9629    1.2107   -0.1776 H   0  0  0  0  0  0  0  0  0  0  0  0
   -8.7410   -0.1931    1.8370 H   0  0  0  0  0  0  0  0  0  0  0  0
   -6.5474   -1.0192    2.4463 H   0  0  0  0  0  0  0  0  0  0  0  0
   -4.2662   -1.2172    2.1020 H   0  0  0  0  0  0  0  0  0  0  0  0
   -0.8931   -2.2268   -1.1595 H   0  0  0  0  0  0  0  0  0  0  0  0
    1.1694   -1.6384   -2.3939 H   0  0  0  0  0  0  0  0  0  0  0  0
    6.2537   -2.3806   -0.6930 H   0  0  0  0  0  0  0  0  0  0  0  0
  1  2  2  0
  2  3  1  0
  3  4  1  0
  2  5  1  0
  5  6  1  0
  6  7  1  0
  7  8  1  0
  8  9  1  0
  9 10  2  0
 10 11  1  0
 11 12  2  0
 12 13  1  0
 13 14  1  0
 14 15  2  0
 15 16  1  0
 16 17  2  0
 17 18  1  0
 18 19  2  0
 19 20  1  0
 20 21  2  0
 21 22  1  0
 22 23  2  0
 12 24  1  0
 24 25  2  0
  7 26  1  0
 26 27  2  0
 26 28  1  0
 28  5  1  0
 25  9  1  0
 23 14  1  0
 22 17  1  0
  3 29  1  0
  4 30  1  0
  5 31  1  1
  6 32  1  0
  6 33  1  0
  8 34  1  0
  8 35  1  0
 10 36  1  0
 11 37  1  0
 15 38  1  0
 16 39  1  0
 18 40  1  0
 19 41  1  0
 20 42  1  0
 21 43  1  0
 23 44  1  0
 24 45  1  0
 25 46  1  0
 28 47  1  0
M  END
$$$$
