@<TRIPOS>MOLECULE
*****
 47 50 0 0 0
SMALL
GASTEIGER

@<TRIPOS>ATOM
      1 O           7.4807   -0.9205    1.0717 O.2     1  UNL1       -0.2716
      2 C           6.3464   -0.4346    1.2977 C.2     1  UNL1        0.2573
      3 N           6.1870    0.4530    2.3970 N.am    1  UNL1       -0.1959
      4 O           7.2328    0.7868    3.2072 O.3     1  UNL1       -0.2951
      5 C           5.1689   -0.7594    0.4520 C.3     1  UNL1        0.1184
      6 C           4.7517    0.4731   -0.3533 C.3     1  UNL1        0.0435
      7 N           3.9332   -0.1414   -1.3822 N.am    1  UNL1       -0.2791
      8 C           2.7470    0.4475   -1.9739 C.3     1  UNL1        0.0412
      9 C           1.5151    0.0910   -1.2409 C.ar    1  UNL1       -0.0298
     10 C           1.0860    0.9016   -0.2059 C.ar    1  UNL1       -0.0536
     11 C          -0.0789    0.5662    0.4887 C.ar    1  UNL1       -0.0190
     12 C          -0.8051   -0.5574    0.1591 C.ar    1  UNL1        0.1285
     13 O          -1.9504   -0.8332    0.8870 O.3     1  UNL1       -0.4560
     14 C          -3.1720   -0.3280    0.4809 C.ar    1  UNL1        0.1290
     15 C          -3.2948    0.4540   -0.6416 C.ar    1  UNL1       -0.0187
     16 C          -4.5125    0.9656   -1.0583 C.ar    1  UNL1       -0.0506
     17 C          -5.6185    0.6665   -0.3069 C.ar    1  UNL1       -0.0177
     18 C          -6.8830    1.1458   -0.6626 C.ar    1  UNL1       -0.0540
     19 C          -7.9905    0.8404    0.0984 C.ar    1  UNL1       -0.0612
     20 C          -7.9019    0.0590    1.2296 C.ar    1  UNL1       -0.0612
     21 C          -6.6530   -0.4079    1.5714 C.ar    1  UNL1       -0.0539
     22 C          -5.5266   -0.1170    0.8265 C.ar    1  UNL1       -0.0144
     23 C          -4.3009   -0.6087    1.2114 C.ar    1  UNL1       -0.0116
     24 C          -0.3550   -1.3473   -0.8761 C.ar    1  UNL1       -0.0190
     25 C           0.7983   -1.0305   -1.5766 C.ar    1  UNL1       -0.0536
     26 C           4.5487   -1.3961   -1.6522 C.2     1  UNL1        0.3032
     27 O           4.2662   -2.1162   -2.6469 O.2     1  UNL1       -0.2526
     28 N           5.5147   -1.6755   -0.6175 N.am    1  UNL1       -0.2863
     29 H           5.2181    0.8500    2.5666 H       1  UNL1        0.1823
     30 H           7.3693    1.7818    3.1231 H       1  UNL1        0.2414
     31 H           4.3066   -1.1226    1.0494 H       1  UNL1        0.0611
     32 H           5.6983    0.8910   -0.7696 H       1  UNL1        0.0488
     33 H           4.2007    1.1910    0.2582 H       1  UNL1        0.0488
     34 H           2.8078    1.5550   -2.0093 H       1  UNL1        0.0514
     35 H           2.6223    0.1121   -3.0367 H       1  UNL1        0.0514
     36 H           1.6154    1.7910    0.0928 H       1  UNL1        0.0622
     37 H          -0.3907    1.2165    1.2918 H       1  UNL1        0.0654
     38 H          -2.4273    0.6836   -1.2236 H       1  UNL1        0.0654
     39 H          -4.6086    1.5781   -1.9375 H       1  UNL1        0.0625
     40 H          -6.9580    1.7599   -1.5501 H       1  UNL1        0.0624
     41 H          -8.9629    1.2107   -0.1776 H       1  UNL1        0.0618
     42 H          -8.7410   -0.1931    1.8370 H       1  UNL1        0.0618
     43 H          -6.5474   -1.0192    2.4463 H       1  UNL1        0.0624
     44 H          -4.2662   -1.2172    2.1020 H       1  UNL1        0.0660
     45 H          -0.8931   -2.2268   -1.1595 H       1  UNL1        0.0654
     46 H           1.1694   -1.6384   -2.3939 H       1  UNL1        0.0622
     47 H           6.2537   -2.3806   -0.6930 H       1  UNL1        0.1511
@<TRIPOS>BOND
     1     1     2    2
     2     2     3   am
     3     3     4    1
     4     2     5    1
     5     5     6    1
     6     6     7    1
     7     7     8    1
     8     8     9    1
     9     9    10   ar
    10    10    11   ar
    11    11    12   ar
    12    12    13    1
    13    13    14    1
    14    14    15   ar
    15    15    16   ar
    16    16    17   ar
    17    17    18   ar
    18    18    19   ar
    19    19    20   ar
    20    20    21   ar
    21    21    22   ar
    22    22    23   ar
    23    12    24   ar
    24    24    25   ar
    25     7    26   am
    26    26    27    2
    27    26    28   am
    28    28     5    1
    29    25     9   ar
    30    23    14   ar
    31    22    17   ar
    32     3    29    1
    33     4    30    1
    34     5    31    1
    35     6    32    1
    36     6    33    1
    37     8    34    1
    38     8    35    1
    39    10    36    1
    40    11    37    1
    41    15    38    1
    42    16    39    1
    43    18    40    1
    44    19    41    1
    45    20    42    1
    46    21    43    1
    47    23    44    1
    48    24    45    1
    49    25    46    1
    50    28    47    1
