@<TRIPOS>MOLECULE
*****
 59 62 0 0 0
SMALL
GASTEIGER

@<TRIPOS>ATOM
      1 C           1.5365    0.9731    0.3474 C.3     1  UNL1        0.0198
      2 C           0.1681    0.9174   -0.2366 C.3     1  UNL1        0.0144
      3 C          -0.6225    2.1368    0.0316 C.2     1  UNL1       -0.0763
      4 C          -1.8226    2.3748   -0.4881 C.2     1  UNL1       -0.0449
      5 C          -2.4619    3.6746   -0.0910 C.3     1  UNL1        0.0654
      6 O          -1.6096    4.3444    0.7601 O.3     1  UNL1       -0.3907
      7 C          -2.6553    1.5365   -1.4251 C.3     1  UNL1        0.0073
      8 C          -2.4900    0.0670   -1.1317 C.3     1  UNL1        0.1403
      9 O          -1.8162   -0.6025   -2.1582 O.3     1  UNL1       -0.3797
     10 C          -3.8507   -0.5346   -1.0903 C.2     1  UNL1        0.1909
     11 O          -4.9405   -0.2207   -1.6596 O.2     1  UNL1       -0.2893
     12 C          -3.7336   -1.6914   -0.1790 C.2     1  UNL1       -0.0086
     13 C          -4.6969   -2.8421   -0.1632 C.3     1  UNL1       -0.0366
     14 C          -2.6433   -1.4932    0.5810 C.2     1  UNL1       -0.0687
     15 C          -1.9853   -0.2272    0.2323 C.3     1  UNL1        0.0439
     16 C          -0.5046   -0.2730    0.3753 C.3     1  UNL1        0.0870
     17 O          -0.2527   -0.1677    1.7617 O.3     1  UNL1       -0.3869
     18 C           0.1835   -1.4926   -0.1042 C.3     1  UNL1        0.0160
     19 C           0.4593   -2.4511    1.0369 C.3     1  UNL1       -0.0573
     20 C           1.5052   -1.2268   -0.8393 C.3     1  UNL1        0.1009
     21 O           1.2998   -1.0643   -2.2187 O.3     1  UNL1       -0.3874
     22 C           2.3572   -0.1918   -0.2016 C.3     1  UNL1        0.1489
     23 O           3.1998   -0.7058    0.8454 O.3     1  UNL1       -0.4548
     24 C           4.0523   -1.7375    0.5144 C.2     1  UNL1        0.3046
     25 C           4.9018   -2.2588    1.5999 C.3     1  UNL1        0.0333
     26 O           4.2358   -2.3227   -0.5712 O.2     1  UNL1       -0.2511
     27 C           2.6921    1.1250   -0.6589 C.3     1  UNL1        0.0149
     28 C           3.8969    1.8268   -0.0581 C.3     1  UNL1       -0.0557
     29 C           2.2466    1.8014   -1.9086 C.3     1  UNL1       -0.0557
     30 H           1.6755    1.3432    1.3588 H       1  UNL1        0.0353
     31 H           0.1915    0.7760   -1.3346 H       1  UNL1        0.0375
     32 H          -0.2293    2.9063    0.6888 H       1  UNL1        0.0576
     33 H          -3.4755    3.5208    0.3204 H       1  UNL1        0.0604
     34 H          -2.5172    4.2678   -1.0298 H       1  UNL1        0.0604
     35 H          -1.7617    5.3114    0.7734 H       1  UNL1        0.2098
     36 H          -2.2417    1.7126   -2.4467 H       1  UNL1        0.0343
     37 H          -3.6932    1.8911   -1.4042 H       1  UNL1        0.0343
     38 H          -2.4551   -0.9659   -2.8264 H       1  UNL1        0.2108
     39 H          -5.5761   -2.6044    0.4965 H       1  UNL1        0.0279
     40 H          -5.0838   -3.0535   -1.1606 H       1  UNL1        0.0279
     41 H          -4.2002   -3.7324    0.2654 H       1  UNL1        0.0279
     42 H          -2.4032   -2.2431    1.3076 H       1  UNL1        0.0580
     43 H          -2.3640    0.5683    0.9089 H       1  UNL1        0.0404
     44 H          -0.8307    0.5898    2.0613 H       1  UNL1        0.2102
     45 H          -0.4427   -2.0272   -0.8695 H       1  UNL1        0.0353
     46 H           0.5101   -1.9764    2.0216 H       1  UNL1        0.0234
     47 H          -0.2701   -3.2910    0.9929 H       1  UNL1        0.0234
     48 H           1.4562   -2.9639    0.8953 H       1  UNL1        0.0234
     49 H           2.0092   -2.2136   -0.8006 H       1  UNL1        0.0637
     50 H           0.7678   -1.8580   -2.4878 H       1  UNL1        0.2100
     51 H           4.7821   -1.7487    2.5647 H       1  UNL1        0.0342
     52 H           5.9690   -2.2481    1.3207 H       1  UNL1        0.0342
     53 H           4.6638   -3.3412    1.8126 H       1  UNL1        0.0342
     54 H           4.8143    1.6675   -0.6233 H       1  UNL1        0.0236
     55 H           4.0106    1.4290    0.9903 H       1  UNL1        0.0236
     56 H           3.6185    2.8838    0.0753 H       1  UNL1        0.0236
     57 H           3.1055    2.2533   -2.4624 H       1  UNL1        0.0236
     58 H           1.6185    2.6729   -1.6093 H       1  UNL1        0.0236
     59 H           1.7021    1.1996   -2.6382 H       1  UNL1        0.0236
@<TRIPOS>BOND
     1     1     2    1
     2     2     3    1
     3     3     4    2
     4     4     5    1
     5     5     6    1
     6     4     7    1
     7     7     8    1
     8     8     9    1
     9     8    10    1
    10    10    11    2
    11    10    12    1
    12    12    13    1
    13    12    14    2
    14    14    15    1
    15    15    16    1
    16    16    17    1
    17    16    18    1
    18    18    19    1
    19    18    20    1
    20    20    21    1
    21    20    22    1
    22    22    23    1
    23    23    24    1
    24    24    25    1
    25    24    26    2
    26    22    27    1
    27    27    28    1
    28    27    29    1
    29    22     1    1
    30    27     1    1
    31    16     2    1
    32    15     8    1
    33     1    30    1
    34     2    31    1
    35     3    32    1
    36     5    33    1
    37     5    34    1
    38     6    35    1
    39     7    36    1
    40     7    37    1
    41     9    38    1
    42    13    39    1
    43    13    40    1
    44    13    41    1
    45    14    42    1
    46    15    43    1
    47    17    44    1
    48    18    45    1
    49    19    46    1
    50    19    47    1
    51    19    48    1
    52    20    49    1
    53    21    50    1
    54    25    51    1
    55    25    52    1
    56    25    53    1
    57    28    54    1
    58    28    55    1
    59    28    56    1
    60    29    57    1
    61    29    58    1
    62    29    59    1
