@<TRIPOS>MOLECULE
*****
 39 41 0 0 0
SMALL
GASTEIGER

@<TRIPOS>ATOM
      1 C           1.7486    0.3675   -2.2544 C.3     1  UNL1       -0.0538
      2 C           0.8727   -0.3257   -1.2450 C.3     1  UNL1        0.0362
      3 C           1.5350   -1.0229   -0.1610 C.ar    1  UNL1        0.0855
      4 N           1.1840   -2.2978    0.2082 N.ar    1  UNL1       -0.2371
      5 C           1.7320   -2.9861    1.2106 C.ar    1  UNL1        0.1164
      6 N           2.7124   -2.4981    1.9904 N.ar    1  UNL1       -0.2408
      7 C           3.1346   -1.2533    1.7153 C.ar    1  UNL1        0.0663
      8 C           2.5423   -0.5782    0.6717 C.ar    1  UNL1        0.1629
      9 F           3.0643    0.6515    0.4566 F       1  UNL1       -0.2020
     10 C          -0.4315    0.3249   -1.1125 C.3     1  UNL1        0.1209
     11 O          -0.9608    0.1883   -2.4790 O.3     1  UNL1       -0.3814
     12 C          -0.5571    1.7873   -0.9507 C.3     1  UNL1        0.0768
     13 N           0.0016    2.4937    0.1391 N.ar    1  UNL1       -0.2489
     14 C           1.2103    3.0680    0.2427 C.ar    1  UNL1        0.1144
     15 N           1.3314    3.6625    1.4437 N.ar    1  UNL1       -0.2228
     16 C           0.1880    3.4711    2.1262 C.ar    1  UNL1        0.1379
     17 N          -0.5743    2.7600    1.2871 N.ar    1  UNL1       -0.1583
     18 C          -1.4522   -0.4800   -0.3726 C.ar    1  UNL1        0.0216
     19 C          -1.4136   -0.6900    0.9896 C.ar    1  UNL1        0.1321
     20 F          -0.4251   -0.1947    1.7481 F       1  UNL1       -0.2050
     21 C          -2.3370   -1.4144    1.7112 C.ar    1  UNL1        0.0092
     22 C          -3.3985   -1.9901    1.0465 C.ar    1  UNL1        0.1261
     23 F          -4.3349   -2.7120    1.7047 F       1  UNL1       -0.2054
     24 C          -3.5239   -1.8383   -0.3090 C.ar    1  UNL1       -0.0259
     25 C          -2.5720   -1.1109   -0.9384 C.ar    1  UNL1       -0.0503
     26 H           1.1063    0.7086   -3.0894 H       1  UNL1        0.0237
     27 H           2.3315    1.2042   -1.9012 H       1  UNL1        0.0237
     28 H           2.4727   -0.3487   -2.7444 H       1  UNL1        0.0237
     29 H           0.6004   -1.2775   -1.9315 H       1  UNL1        0.0394
     30 H           1.3631   -4.0022    1.4079 H       1  UNL1        0.1047
     31 H           3.9079   -0.8484    2.3185 H       1  UNL1        0.0860
     32 H          -1.7703    0.7337   -2.5520 H       1  UNL1        0.2107
     33 H          -0.2397    2.2810   -1.9476 H       1  UNL1        0.0541
     34 H          -1.6560    2.1154   -0.9604 H       1  UNL1        0.0541
     35 H           2.0124    3.0938   -0.4796 H       1  UNL1        0.1044
     36 H          -0.0771    3.8048    3.1227 H       1  UNL1        0.1065
     37 H          -2.2928   -1.5692    2.7773 H       1  UNL1        0.0675
     38 H          -4.3434   -2.2763   -0.8606 H       1  UNL1        0.0646
     39 H          -2.6913   -1.0016   -2.0288 H       1  UNL1        0.0623
@<TRIPOS>BOND
     1     1     2    1
     2     2     3    1
     3     3     4   ar
     4     4     5   ar
     5     5     6   ar
     6     6     7   ar
     7     7     8   ar
     8     8     9    1
     9     2    10    1
    10    10    11    1
    11    10    12    1
    12    12    13    1
    13    13    14   ar
    14    14    15   ar
    15    15    16   ar
    16    16    17   ar
    17    10    18    1
    18    18    19   ar
    19    19    20    1
    20    19    21   ar
    21    21    22   ar
    22    22    23    1
    23    22    24   ar
    24    24    25   ar
    25     8     3   ar
    26    17    13   ar
    27    25    18   ar
    28     1    26    1
    29     1    27    1
    30     1    28    1
    31     2    29    1
    32     5    30    1
    33     7    31    1
    34    11    32    1
    35    12    33    1
    36    12    34    1
    37    14    35    1
    38    16    36    1
    39    21    37    1
    40    24    38    1
    41    25    39    1
