@<TRIPOS>MOLECULE
*****
 28 29 0 0 0
SMALL
GASTEIGER

@<TRIPOS>ATOM
      1 O           6.3143   -0.4012    0.4658 O.3     1  UNL1       -0.4795
      2 C           5.1020    0.2435    0.6696 C.2     1  UNL1        0.3221
      3 OXT         5.2865    1.3797    1.2234 O.2     1  UNL1       -0.2492
      4 CA          3.8829   -0.4717    0.2287 C.3     1  UNL1        0.1091
      5 N           2.6804    0.2996    0.4934 N.am    1  UNL1       -0.2995
      6 C           1.5233   -0.4013    0.0644 C.2     1  UNL1        0.2665
      7 O           1.7220   -1.5268   -0.4522 O.2     1  UNL1       -0.2684
      8 CA          0.1628    0.0920    0.1841 C.ar    1  UNL1        0.1672
      9 C          -0.8339   -0.7346   -0.2911 C.ar    1  UNL1        0.1549
     10 O          -0.5869   -1.9942   -0.8672 O.3     1  UNL1       -0.5039
     11 C          -2.1535   -0.2862   -0.1892 C.ar    1  UNL1        0.0283
     12 C          -3.1732   -1.0988   -0.6597 C.ar    1  UNL1       -0.0504
     13 C          -4.5056   -0.7220   -0.5928 C.ar    1  UNL1       -0.0601
     14 C          -4.8048    0.5145   -0.0321 C.ar    1  UNL1       -0.0480
     15 C          -3.7918    1.3356    0.4418 C.ar    1  UNL1        0.0226
     16 I          -4.1663    3.2216    1.3040 I       1  UNL1       -0.0431
     17 C          -2.4759    0.9446    0.3669 C.ar    1  UNL1        0.0169
     18 C          -1.4076    1.7180    0.8229 C.ar    1  UNL1        0.0374
     19 N          -0.1282    1.2817    0.7234 N.ar    1  UNL1       -0.2462
     20 H           7.1841    0.1013    0.2724 H       1  UNL1        0.2951
     21 HA1         3.7608   -1.4470    0.7364 H       1  UNL1        0.0577
     22 HA2         3.8897   -0.6871   -0.8721 H       1  UNL1        0.0577
     23 H           2.5456    1.2516    0.9331 H       1  UNL1        0.1496
     24 H          -0.2769   -2.7414   -0.2444 H       1  UNL1        0.2923
     25 H          -2.9281   -2.0567   -1.0930 H       1  UNL1        0.0625
     26 H          -5.3048   -1.3576   -0.9609 H       1  UNL1        0.0618
     27 H          -5.8467    0.8631    0.0457 H       1  UNL1        0.0628
     28 H          -1.6699    2.6796    1.2565 H       1  UNL1        0.0836
@<TRIPOS>BOND
     1     1     2    1
     2     2     3    2
     3     2     4    1
     4     4     5    1
     5     5     6   am
     6     6     7    2
     7     6     8    1
     8     8     9   ar
     9     9    10    1
    10     9    11   ar
    11    11    12   ar
    12    12    13   ar
    13    13    14   ar
    14    14    15   ar
    15    15    16    1
    16    15    17   ar
    17    17    18   ar
    18    18    19   ar
    19    19     8   ar
    20    17    11   ar
    21     1    20    1
    22     4    21    1
    23     4    22    1
    24     5    23    1
    25    10    24    1
    26    12    25    1
    27    13    26    1
    28    14    27    1
    29    18    28    1
