
     RDKit          3D

 81 85  0  0  0  0  0  0  0  0999 V2000
    8.6975    1.3165    0.0213 C   0  0  0  0  0  0  0  0  0  0  0  0
    7.9261    2.5032    0.3156 N   0  0  0  0  0  0  0  0  0  0  0  0
    8.5374    3.7901    0.1142 C   0  0  0  0  0  0  0  0  0  0  0  0
    6.5754    2.4174    0.7927 C   0  0  0  0  0  0  0  0  0  0  0  0
    5.8960    3.4383    1.0582 O   0  0  0  0  0  0  0  0  0  0  0  0
    5.9455    1.1158    0.9858 C   0  0  0  0  0  0  0  0  0  0  0  0
    6.2357    0.3477    2.0893 C   0  0  0  0  0  0  0  0  0  0  0  0
    5.6602   -0.8951    2.2735 C   0  0  0  0  0  0  0  0  0  0  0  0
    4.7669   -1.4215    1.3551 C   0  0  0  0  0  0  0  0  0  0  0  0
    4.4653   -0.6679    0.2469 C   0  0  0  0  0  0  0  0  0  0  0  0
    3.4117   -1.2442   -0.9757 S   0  0  0  0  0  6  0  0  0  0  0  0
    3.8120   -2.6244   -1.4400 O   0  0  0  0  0  0  0  0  0  0  0  0
    3.5406   -0.3679   -2.2233 O   0  0  0  0  0  0  0  0  0  0  0  0
    1.7352   -1.2092   -0.5697 N   0  0  0  0  0  0  0  0  0  0  0  0
    1.4218   -2.0360    0.5524 C   0  0  0  0  0  0  0  0  0  0  0  0
    1.6151   -3.4385    0.0741 C   0  0  0  0  0  0  0  0  0  0  0  0
    1.2017   -3.3587   -1.3852 C   0  0  0  0  0  0  0  0  0  0  0  0
    1.0581   -1.8744   -1.6844 C   0  0  1  0  0  0  0  0  0  0  0  0
   -0.3307   -1.4972   -1.8732 C   0  0  0  0  0  0  0  0  0  0  0  0
   -0.8080   -1.6019   -3.0534 O   0  0  0  0  0  0  0  0  0  0  0  0
   -1.1064   -1.0442   -0.8225 O   0  0  0  0  0  0  0  0  0  0  0  0
   -2.4474   -0.6490   -0.9816 C   0  0  1  0  0  0  0  0  0  0  0  0
   -3.3438   -1.6287   -0.2803 C   0  0  0  0  0  0  0  0  0  0  0  0
   -3.1445   -2.9655   -0.8860 C   0  0  0  0  0  0  0  0  0  0  0  0
   -3.6272   -3.2716   -2.1433 C   0  0  0  0  0  0  0  0  0  0  0  0
   -4.5106   -2.0579   -3.0669 Cl  0  0  0  0  0  0  0  0  0  0  0  0
   -3.4544   -4.5171   -2.7173 C   0  0  0  0  0  0  0  0  0  0  0  0
   -2.8017   -5.4764   -2.0542 N   0  0  0  0  0  4  0  0  0  0  0  0
   -2.6051   -6.7424   -2.5951 O   0  0  0  0  0  1  0  0  0  0  0  0
   -2.3094   -5.2290   -0.8189 C   0  0  0  0  0  0  0  0  0  0  0  0
   -2.4778   -3.9814   -0.2332 C   0  0  0  0  0  0  0  0  0  0  0  0
   -1.8669   -3.7206    1.3665 Cl  0  0  0  0  0  0  0  0  0  0  0  0
   -2.5922    0.7301   -0.5084 C   0  0  0  0  0  0  0  0  0  0  0  0
   -1.6615    1.6607   -0.9501 C   0  0  0  0  0  0  0  0  0  0  0  0
   -1.7226    2.9642   -0.5448 C   0  0  0  0  0  0  0  0  0  0  0  0
   -2.7336    3.3612    0.3232 C   0  0  0  0  0  0  0  0  0  0  0  0
   -2.7302    4.6686    0.6818 O   0  0  0  0  0  0  0  0  0  0  0  0
   -3.5024    5.4536    1.4890 C   0  0  0  0  0  0  0  0  0  0  0  0
   -2.7183    6.1565    2.4145 F   0  0  0  0  0  0  0  0  0  0  0  0
   -4.0924    6.4524    0.6749 F   0  0  0  0  0  0  0  0  0  0  0  0
   -3.6802    2.4286    0.7751 C   0  0  0  0  0  0  0  0  0  0  0  0
   -4.6751    2.8279    1.6281 O   0  0  0  0  0  0  0  0  0  0  0  0
   -5.6869    2.0740    2.1449 C   0  0  0  0  0  0  0  0  0  0  0  0
   -6.6329    1.5277    1.0959 C   0  0  0  0  0  0  0  0  0  0  0  0
   -7.3628    2.5228    0.2059 C   0  0  0  0  0  0  0  0  0  0  0  0
   -8.0723    1.9175    1.3542 C   0  0  0  0  0  0  0  0  0  0  0  0
   -3.5847    1.1326    0.3467 C   0  0  0  0  0  0  0  0  0  0  0  0
    5.0561    0.5864    0.0787 C   0  0  0  0  0  0  0  0  0  0  0  0
    9.5544    1.2586    0.7554 H   0  0  0  0  0  0  0  0  0  0  0  0
    9.1397    1.3152   -0.9876 H   0  0  0  0  0  0  0  0  0  0  0  0
    8.1096    0.3996    0.1755 H   0  0  0  0  0  0  0  0  0  0  0  0
    8.0394    4.6135    0.6528 H   0  0  0  0  0  0  0  0  0  0  0  0
    9.5999    3.7508    0.4589 H   0  0  0  0  0  0  0  0  0  0  0  0
    8.5150    4.0914   -0.9732 H   0  0  0  0  0  0  0  0  0  0  0  0
    6.9356    0.6897    2.8666 H   0  0  0  0  0  0  0  0  0  0  0  0
    5.8835   -1.5151    3.1496 H   0  0  0  0  0  0  0  0  0  0  0  0
    4.3316   -2.4062    1.5321 H   0  0  0  0  0  0  0  0  0  0  0  0
    2.0088   -1.7909    1.4623 H   0  0  0  0  0  0  0  0  0  0  0  0
    0.3733   -1.8776    0.8081 H   0  0  0  0  0  0  0  0  0  0  0  0
    0.9601   -4.1833    0.5818 H   0  0  0  0  0  0  0  0  0  0  0  0
    2.6747   -3.7712    0.2041 H   0  0  0  0  0  0  0  0  0  0  0  0
    0.1754   -3.8065   -1.4838 H   0  0  0  0  0  0  0  0  0  0  0  0
    1.9154   -3.8614   -2.0522 H   0  0  0  0  0  0  0  0  0  0  0  0
    1.6398   -1.7015   -2.6355 H   0  0  0  0  0  0  0  0  0  0  0  0
   -2.6349   -0.7009   -2.0960 H   0  0  0  0  0  0  0  0  0  0  0  0
   -3.0530   -1.6689    0.7937 H   0  0  0  0  0  0  0  0  0  0  0  0
   -4.4139   -1.3823   -0.3625 H   0  0  0  0  0  0  0  0  0  0  0  0
   -3.8420   -4.7292   -3.7035 H   0  0  0  0  0  0  0  0  0  0  0  0
   -1.7892   -6.0312   -0.3181 H   0  0  0  0  0  0  0  0  0  0  0  0
   -0.8621    1.3541   -1.6316 H   0  0  0  0  0  0  0  0  0  0  0  0
   -0.9873    3.7019   -0.8924 H   0  0  0  0  0  0  0  0  0  0  0  0
   -4.3326    4.9590    2.0092 H   0  0  0  0  0  0  0  0  0  0  0  0
   -6.2454    2.6196    2.9504 H   0  0  0  0  0  0  0  0  0  0  0  0
   -5.2732    1.1640    2.6566 H   0  0  0  0  0  0  0  0  0  0  0  0
   -6.5283    0.4669    0.7666 H   0  0  0  0  0  0  0  0  0  0  0  0
   -7.5562    2.1917   -0.8382 H   0  0  0  0  0  0  0  0  0  0  0  0
   -6.9875    3.5854    0.2746 H   0  0  0  0  0  0  0  0  0  0  0  0
   -8.3108    2.6198    2.1726 H   0  0  0  0  0  0  0  0  0  0  0  0
   -8.8717    1.1842    1.1722 H   0  0  0  0  0  0  0  0  0  0  0  0
   -4.2699    0.3977    0.6767 H   0  0  0  0  0  0  0  0  0  0  0  0
    4.8255    1.1899   -0.7960 H   0  0  0  0  0  0  0  0  0  0  0  0
  1  2  1  0
  2  3  1  0
  2  4  1  0
  4  5  2  0
  4  6  1  0
  6  7  2  0
  7  8  1  0
  8  9  2  0
  9 10  1  0
 10 11  1  0
 11 12  2  0
 11 13  2  0
 11 14  1  0
 14 15  1  0
 15 16  1  0
 16 17  1  0
 17 18  1  0
 18 19  1  0
 19 20  2  0
 19 21  1  0
 21 22  1  0
 22 23  1  0
 23 24  1  0
 24 25  2  0
 25 26  1  0
 25 27  1  0
 27 28  2  0
 28 29  1  0
 28 30  1  0
 30 31  2  0
 31 32  1  0
 22 33  1  0
 33 34  2  0
 34 35  1  0
 35 36  2  0
 36 37  1  0
 37 38  1  0
 38 39  1  0
 38 40  1  0
 36 41  1  0
 41 42  1  0
 42 43  1  0
 43 44  1  0
 44 45  1  0
 45 46  1  0
 41 47  2  0
 10 48  2  0
 48  6  1  0
 18 14  1  0
 31 24  1  0
 47 33  1  0
 46 44  1  0
  1 49  1  0
  1 50  1  0
  1 51  1  0
  3 52  1  0
  3 53  1  0
  3 54  1  0
  7 55  1  0
  8 56  1  0
  9 57  1  0
 15 58  1  0
 15 59  1  0
 16 60  1  0
 16 61  1  0
 17 62  1  0
 17 63  1  0
 18 64  1  6
 22 65  1  6
 23 66  1  0
 23 67  1  0
 27 68  1  0
 30 69  1  0
 34 70  1  0
 35 71  1  0
 38 72  1  0
 43 73  1  0
 43 74  1  0
 44 75  1  0
 45 76  1  0
 45 77  1  0
 46 78  1  0
 46 79  1  0
 47 80  1  0
 48 81  1  0
M  CHG  2  28   1  29  -1
M  END
$$$$
