@<TRIPOS>MOLECULE
*****
 81 85 0 0 0
SMALL
GASTEIGER

@<TRIPOS>ATOM
      1 C           8.6975    1.3165    0.0213 C.3     1  UNL1        0.0031
      2 N           7.9261    2.5032    0.3156 N.am    1  UNL1       -0.3036
      3 C           8.5374    3.7901    0.1142 C.3     1  UNL1        0.0031
      4 C           6.5754    2.4174    0.7927 C.2     1  UNL1        0.2462
      5 O           5.8960    3.4383    1.0582 O.2     1  UNL1       -0.2700
      6 C           5.9455    1.1158    0.9858 C.ar    1  UNL1        0.0387
      7 C           6.2357    0.3477    2.0893 C.ar    1  UNL1       -0.0495
      8 C           5.6602   -0.8951    2.2735 C.ar    1  UNL1       -0.0592
      9 C           4.7669   -1.4215    1.3551 C.ar    1  UNL1       -0.0353
     10 C           4.4653   -0.6679    0.2469 C.ar    1  UNL1        0.1062
     11 S           3.4117   -1.2442   -0.9757 S.O2    1  UNL1        0.0616
     12 O           3.8120   -2.6244   -1.4400 O.2     1  UNL1       -0.1528
     13 O           3.5406   -0.3679   -2.2233 O.2     1  UNL1       -0.1528
     14 N           1.7352   -1.2092   -0.5697 N.3     1  UNL1       -0.1628
     15 C           1.4218   -2.0360    0.5524 C.3     1  UNL1        0.0215
     16 C           1.6151   -3.4385    0.0741 C.3     1  UNL1       -0.0365
     17 C           1.2017   -3.3587   -1.3852 C.3     1  UNL1       -0.0241
     18 C           1.0581   -1.8744   -1.6844 C.3     1  UNL1        0.1286
     19 C          -0.3307   -1.4972   -1.8732 C.2     1  UNL1        0.3268
     20 O          -0.8080   -1.6019   -3.0534 O.2     1  UNL1       -0.2490
     21 O          -1.1064   -1.0442   -0.8225 O.3     1  UNL1       -0.4551
     22 C          -2.4474   -0.6490   -0.9816 C.3     1  UNL1        0.1322
     23 C          -3.3438   -1.6287   -0.2803 C.3     1  UNL1        0.0170
     24 C          -3.1445   -2.9655   -0.8860 C.ar    1  UNL1        0.0046
     25 C          -3.6272   -3.2716   -2.1433 C.ar    1  UNL1        0.1103
     26 CL         -4.5106   -2.0579   -3.0669 Cl      1  UNL1       -0.0770
     27 C          -3.4544   -4.5171   -2.7173 C.ar    1  UNL1        0.2015
     28 N          -2.8017   -5.4764   -2.0542 N.ar    1  UNL1       -0.1747
     29 O          -2.6051   -6.7424   -2.5951 O.co2   1  UNL1       -0.6197
     30 C          -2.3094   -5.2290   -0.8189 C.ar    1  UNL1        0.2015
     31 C          -2.4778   -3.9814   -0.2332 C.ar    1  UNL1        0.1103
     32 CL         -1.8669   -3.7206    1.3665 Cl      1  UNL1       -0.0770
     33 C          -2.5922    0.7301   -0.5084 C.ar    1  UNL1       -0.0033
     34 C          -1.6615    1.6607   -0.9501 C.ar    1  UNL1       -0.0514
     35 C          -1.7226    2.9642   -0.5448 C.ar    1  UNL1       -0.0157
     36 C          -2.7336    3.3612    0.3232 C.ar    1  UNL1        0.1683
     37 O          -2.7302    4.6686    0.6818 O.3     1  UNL1       -0.4305
     38 C          -3.5024    5.4536    1.4890 C.3     1  UNL1        0.3894
     39 F          -2.7183    6.1565    2.4145 F       1  UNL1       -0.1663
     40 F          -4.0924    6.4524    0.6749 F       1  UNL1       -0.1663
     41 C          -3.6802    2.4286    0.7751 C.ar    1  UNL1        0.1625
     42 O          -4.6751    2.8279    1.6281 O.3     1  UNL1       -0.4880
     43 C          -5.6869    2.0740    2.1449 C.3     1  UNL1        0.0926
     44 C          -6.6329    1.5277    1.0959 C.3     1  UNL1       -0.0068
     45 C          -7.3628    2.5228    0.2059 C.3     1  UNL1       -0.0468
     46 C          -8.0723    1.9175    1.3542 C.3     1  UNL1       -0.0468
     47 C          -3.5847    1.1326    0.3467 C.ar    1  UNL1       -0.0096
     48 C           5.0561    0.5864    0.0787 C.ar    1  UNL1       -0.0232
     49 H           9.5544    1.2586    0.7554 H       1  UNL1        0.0428
     50 H           9.1397    1.3152   -0.9876 H       1  UNL1        0.0428
     51 H           8.1096    0.3996    0.1755 H       1  UNL1        0.0428
     52 H           8.0394    4.6135    0.6528 H       1  UNL1        0.0428
     53 H           9.5999    3.7508    0.4589 H       1  UNL1        0.0428
     54 H           8.5150    4.0914   -0.9732 H       1  UNL1        0.0428
     55 H           6.9356    0.6897    2.8666 H       1  UNL1        0.0625
     56 H           5.8835   -1.5151    3.1496 H       1  UNL1        0.0618
     57 H           4.3316   -2.4062    1.5321 H       1  UNL1        0.0637
     58 H           2.0088   -1.7909    1.4623 H       1  UNL1        0.0444
     59 H           0.3733   -1.8776    0.8081 H       1  UNL1        0.0444
     60 H           0.9601   -4.1833    0.5818 H       1  UNL1        0.0279
     61 H           2.6747   -3.7712    0.2041 H       1  UNL1        0.0279
     62 H           0.1754   -3.8065   -1.4838 H       1  UNL1        0.0287
     63 H           1.9154   -3.8614   -2.0522 H       1  UNL1        0.0287
     64 H           1.6398   -1.7015   -2.6355 H       1  UNL1        0.0595
     65 H          -2.6349   -0.7009   -2.0960 H       1  UNL1        0.0788
     66 H          -3.0530   -1.6689    0.7937 H       1  UNL1        0.0353
     67 H          -4.4139   -1.3823   -0.3625 H       1  UNL1        0.0353
     68 H          -3.8420   -4.7292   -3.7035 H       1  UNL1        0.1405
     69 H          -1.7892   -6.0312   -0.3181 H       1  UNL1        0.1405
     70 H          -0.8621    1.3541   -1.6316 H       1  UNL1        0.0623
     71 H          -0.9873    3.7019   -0.8924 H       1  UNL1        0.0655
     72 H          -4.3326    4.9590    2.0092 H       1  UNL1        0.1520
     73 H          -6.2454    2.6196    2.9504 H       1  UNL1        0.0699
     74 H          -5.2732    1.1640    2.6566 H       1  UNL1        0.0699
     75 H          -6.5283    0.4669    0.7666 H       1  UNL1        0.0334
     76 H          -7.5562    2.1917   -0.8382 H       1  UNL1        0.0269
     77 H          -6.9875    3.5854    0.2746 H       1  UNL1        0.0269
     78 H          -8.3108    2.6198    2.1726 H       1  UNL1        0.0269
     79 H          -8.8717    1.1842    1.1722 H       1  UNL1        0.0269
     80 H          -4.2699    0.3977    0.6767 H       1  UNL1        0.0659
     81 H           4.8255    1.1899   -0.7960 H       1  UNL1        0.0644
@<TRIPOS>UNITY_ATOM_ATTR
28 1
charge 1
29 1
charge -1
@<TRIPOS>BOND
     1     1     2    1
     2     2     3    1
     3     2     4   am
     4     4     5    2
     5     4     6    1
     6     6     7   ar
     7     7     8   ar
     8     8     9   ar
     9     9    10   ar
    10    10    11    1
    11    11    12    2
    12    11    13    2
    13    11    14    1
    14    14    15    1
    15    15    16    1
    16    16    17    1
    17    17    18    1
    18    18    19    1
    19    19    20    2
    20    19    21    1
    21    21    22    1
    22    22    23    1
    23    23    24    1
    24    24    25   ar
    25    25    26    1
    26    25    27   ar
    27    27    28   ar
    28    28    29    1
    29    28    30   ar
    30    30    31   ar
    31    31    32    1
    32    22    33    1
    33    33    34   ar
    34    34    35   ar
    35    35    36   ar
    36    36    37    1
    37    37    38    1
    38    38    39    1
    39    38    40    1
    40    36    41   ar
    41    41    42    1
    42    42    43    1
    43    43    44    1
    44    44    45    1
    45    45    46    1
    46    41    47   ar
    47    10    48   ar
    48    48     6   ar
    49    18    14    1
    50    31    24   ar
    51    47    33   ar
    52    46    44    1
    53     1    49    1
    54     1    50    1
    55     1    51    1
    56     3    52    1
    57     3    53    1
    58     3    54    1
    59     7    55    1
    60     8    56    1
    61     9    57    1
    62    15    58    1
    63    15    59    1
    64    16    60    1
    65    16    61    1
    66    17    62    1
    67    17    63    1
    68    18    64    1
    69    22    65    1
    70    23    66    1
    71    23    67    1
    72    27    68    1
    73    30    69    1
    74    34    70    1
    75    35    71    1
    76    38    72    1
    77    43    73    1
    78    43    74    1
    79    44    75    1
    80    45    76    1
    81    45    77    1
    82    46    78    1
    83    46    79    1
    84    47    80    1
    85    48    81    1
