@<TRIPOS>MOLECULE
*****
 97 104 0 0 0
SMALL
GASTEIGER

@<TRIPOS>ATOM
      1 C          14.7638    1.9954   -1.2125 C.3     1  UNL1       -0.0376
      2 C          13.6031    1.0657   -1.2322 C.ar    1  UNL1       -0.0233
      3 C          12.3010    1.5109   -1.2060 C.ar    1  UNL1       -0.0355
      4 C          11.1885    0.6520   -1.2247 C.ar    1  UNL1        0.0346
      5 N           9.9002    1.2154   -1.1984 N.pl3   1  UNL1       -0.2835
      6 C           8.6895    0.4948   -1.0548 C.ar    1  UNL1        0.2226
      7 N           8.6212   -0.8265   -0.9394 N.ar    1  UNL1       -0.2225
      8 C           7.5112   -1.5606   -0.7909 C.ar    1  UNL1        0.0362
      9 C           6.3241   -0.8691   -0.7546 C.ar    1  UNL1        0.0186
     10 C           6.3461    0.5212   -0.8713 C.ar    1  UNL1        0.2249
     11 O           5.1375    1.2061   -0.8356 O.3     1  UNL1       -0.4373
     12 C           3.9139    0.6222   -0.6096 C.ar    1  UNL1        0.1381
     13 C           2.9328    0.5913   -1.5851 C.ar    1  UNL1       -0.0169
     14 C           1.7019    0.0087   -1.3699 C.ar    1  UNL1       -0.0363
     15 C           1.4067   -0.5695   -0.1566 C.ar    1  UNL1        0.0427
     16 N           0.1341   -1.1781    0.1048 N.am    1  UNL1       -0.2686
     17 C          -0.9607   -0.4835    0.6610 C.2     1  UNL1        0.3092
     18 O          -0.8122    0.7276    0.9425 O.2     1  UNL1       -0.2521
     19 N          -2.2338   -1.0656    0.9285 N.am    1  UNL1       -0.2538
     20 C          -3.3015   -0.3109    1.5006 C.ar    1  UNL1        0.1299
     21 C          -3.3917   -0.1177    2.8858 C.ar    1  UNL1        0.0018
     22 C          -4.5182    0.6311    3.0862 C.ar    1  UNL1        0.0679
     23 C          -5.0437    1.0967    4.4045 C.3     1  UNL1       -0.0025
     24 C          -3.9822    1.6640    5.2851 C.3     1  UNL1       -0.0572
     25 C          -5.5805   -0.1638    5.1019 C.3     1  UNL1       -0.0572
     26 N          -5.0882    0.8846    1.9079 N.ar    1  UNL1       -0.1694
     27 N          -4.3253    0.2973    0.9558 N.ar    1  UNL1       -0.2180
     28 C          -4.7326    0.3902   -0.4021 C.ar    1  UNL1        0.0709
     29 C          -3.8377    0.3851   -1.4179 C.ar    1  UNL1       -0.0360
     30 C          -4.2850    0.4749   -2.7423 C.ar    1  UNL1       -0.0563
     31 C          -5.6249    0.5696   -3.0375 C.ar    1  UNL1       -0.0198
     32 C          -6.5543    0.5774   -2.0219 C.ar    1  UNL1        0.1226
     33 O          -7.9272    0.6750   -2.3012 O.3     1  UNL1       -0.4906
     34 C          -8.7988    0.6830   -1.1880 C.3     1  UNL1        0.1022
     35 C         -10.2432    0.7975   -1.5492 C.3     1  UNL1        0.0333
     36 N         -10.7508   -0.2600   -2.3628 N.3     1  UNL1       -0.2948
     37 C         -10.8126   -1.5150   -1.6632 C.3     1  UNL1        0.0225
     38 C         -11.8500   -1.4941   -0.5923 C.3     1  UNL1        0.0604
     39 O         -13.0830   -1.2069   -1.1477 O.3     1  UNL1       -0.3772
     40 C         -13.0517    0.0850   -1.6613 C.3     1  UNL1        0.0604
     41 C         -12.0777    0.0466   -2.8238 C.3     1  UNL1        0.0225
     42 C          -6.0820    0.4875   -0.7378 C.ar    1  UNL1        0.0056
     43 C           2.3958   -0.5272    0.8015 C.ar    1  UNL1        0.0069
     44 C           2.1141   -1.0820    2.0266 C.ar    1  UNL1       -0.0521
     45 C           3.0395   -1.0674    3.0500 C.ar    1  UNL1       -0.0611
     46 C           4.2655   -0.4991    2.8737 C.ar    1  UNL1       -0.0611
     47 C           4.5718    0.0629    1.6557 C.ar    1  UNL1       -0.0505
     48 C           3.6385    0.0434    0.6318 C.ar    1  UNL1        0.0262
     49 N           7.5017    1.1637   -1.0164 N.ar    1  UNL1       -0.1789
     50 C          11.4836   -0.6769   -1.2718 C.ar    1  UNL1       -0.0298
     51 C          12.8014   -1.1656   -1.2988 C.ar    1  UNL1        0.0215
     52 C          13.3734   -2.4102   -1.3449 C.ar    1  UNL1        0.0569
     53 N          14.7082   -2.3071   -1.3524 N.ar    1  UNL1       -0.1812
     54 N          14.9952   -1.0079   -1.3120 N.ar    1  UNL1       -0.2767
     55 C          13.8624   -0.2878   -1.2788 C.ar    1  UNL1        0.0687
     56 H          14.5302    2.9100   -1.8058 H       1  UNL1        0.0278
     57 H          15.6601    1.4799   -1.5544 H       1  UNL1        0.0278
     58 H          14.9697    2.3387   -0.1669 H       1  UNL1        0.0278
     59 H          12.1048    2.5624   -1.1694 H       1  UNL1        0.0639
     60 H           9.8299    2.2932   -1.2999 H       1  UNL1        0.1550
     61 H           7.5730   -2.6388   -0.7066 H       1  UNL1        0.0832
     62 H           5.4127   -1.3962   -0.6458 H       1  UNL1        0.0686
     63 H           3.1875    1.0579   -2.5421 H       1  UNL1        0.0655
     64 H           0.9587    0.0012   -2.1524 H       1  UNL1        0.0637
     65 H           0.0408   -2.1848   -0.1382 H       1  UNL1        0.1564
     66 H          -2.3697   -2.0615    0.7003 H       1  UNL1        0.1578
     67 H          -2.6934   -0.4981    3.6360 H       1  UNL1        0.0671
     68 H          -5.8713    1.7868    4.2469 H       1  UNL1        0.0359
     69 H          -3.1337    2.1130    4.7314 H       1  UNL1        0.0236
     70 H          -3.6028    0.8843    6.0086 H       1  UNL1        0.0236
     71 H          -4.4383    2.4579    5.9078 H       1  UNL1        0.0236
     72 H          -5.9928    0.1207    6.0914 H       1  UNL1        0.0236
     73 H          -6.3951   -0.6287    4.4848 H       1  UNL1        0.0236
     74 H          -4.7886   -0.9074    5.2367 H       1  UNL1        0.0236
     75 H          -2.7775    0.3201   -1.2699 H       1  UNL1        0.0639
     76 H          -3.5417    0.4674   -3.5203 H       1  UNL1        0.0619
     77 H          -5.8979    0.6353   -4.0777 H       1  UNL1        0.0654
     78 H          -8.6127   -0.2350   -0.5581 H       1  UNL1        0.0709
     79 H          -8.5272    1.5281   -0.5191 H       1  UNL1        0.0709
     80 H         -10.3681    1.7835   -2.0659 H       1  UNL1        0.0460
     81 H         -10.8043    0.8741   -0.5847 H       1  UNL1        0.0460
     82 H          -9.8567   -1.8055   -1.2062 H       1  UNL1        0.0449
     83 H         -11.0615   -2.3110   -2.3953 H       1  UNL1        0.0449
     84 H         -11.9279   -2.5406   -0.2020 H       1  UNL1        0.0572
     85 H         -11.6097   -0.7880    0.2255 H       1  UNL1        0.0572
     86 H         -12.8092    0.8309   -0.8966 H       1  UNL1        0.0572
     87 H         -14.0472    0.3369   -2.1292 H       1  UNL1        0.0572
     88 H         -12.4274   -0.8007   -3.4649 H       1  UNL1        0.0449
     89 H         -12.1088    0.9514   -3.4554 H       1  UNL1        0.0449
     90 H          -6.7837    0.4903    0.0810 H       1  UNL1        0.0675
     91 H           1.1311   -1.5466    2.1939 H       1  UNL1        0.0624
     92 H           2.7709   -1.5171    3.9992 H       1  UNL1        0.0618
     93 H           4.9989   -0.4925    3.7002 H       1  UNL1        0.0618
     94 H           5.5422    0.5195    1.5518 H       1  UNL1        0.0625
     95 H          10.6800   -1.3943   -1.2955 H       1  UNL1        0.0643
     96 H          12.8229   -3.3316   -1.3711 H       1  UNL1        0.0854
     97 H          15.9566   -0.6396   -1.3094 H       1  UNL1        0.1889
@<TRIPOS>BOND
     1     1     2    1
     2     2     3   ar
     3     3     4   ar
     4     4     5    1
     5     5     6    1
     6     6     7   ar
     7     7     8   ar
     8     8     9   ar
     9     9    10   ar
    10    10    11    1
    11    11    12    1
    12    12    13   ar
    13    13    14   ar
    14    14    15   ar
    15    15    16    1
    16    16    17   am
    17    17    18    2
    18    17    19   am
    19    19    20    1
    20    20    21   ar
    21    21    22   ar
    22    22    23    1
    23    23    24    1
    24    23    25    1
    25    22    26   ar
    26    26    27   ar
    27    27    28    1
    28    28    29   ar
    29    29    30   ar
    30    30    31   ar
    31    31    32   ar
    32    32    33    1
    33    33    34    1
    34    34    35    1
    35    35    36    1
    36    36    37    1
    37    37    38    1
    38    38    39    1
    39    39    40    1
    40    40    41    1
    41    32    42   ar
    42    15    43   ar
    43    43    44   ar
    44    44    45   ar
    45    45    46   ar
    46    46    47   ar
    47    47    48   ar
    48    10    49   ar
    49     4    50   ar
    50    50    51   ar
    51    51    52   ar
    52    52    53   ar
    53    53    54   ar
    54    54    55   ar
    55    55     2   ar
    56    49     6   ar
    57    55    51   ar
    58    48    12   ar
    59    27    20   ar
    60    42    28   ar
    61    48    43   ar
    62    41    36    1
    63     1    56    1
    64     1    57    1
    65     1    58    1
    66     3    59    1
    67     5    60    1
    68     8    61    1
    69     9    62    1
    70    13    63    1
    71    14    64    1
    72    16    65    1
    73    19    66    1
    74    21    67    1
    75    23    68    1
    76    24    69    1
    77    24    70    1
    78    24    71    1
    79    25    72    1
    80    25    73    1
    81    25    74    1
    82    29    75    1
    83    30    76    1
    84    31    77    1
    85    34    78    1
    86    34    79    1
    87    35    80    1
    88    35    81    1
    89    37    82    1
    90    37    83    1
    91    38    84    1
    92    38    85    1
    93    40    86    1
    94    40    87    1
    95    41    88    1
    96    41    89    1
    97    42    90    1
    98    44    91    1
    99    45    92    1
   100    46    93    1
   101    47    94    1
   102    50    95    1
   103    52    96    1
   104    54    97    1
