
     RDKit          3D

 54 58  0  0  0  0  0  0  0  0999 V2000
    5.7748    4.0437   -1.6440 C   0  0  0  0  0  0  0  0  0  0  0  0
    5.3513    2.6598   -1.7913 N   0  0  0  0  0  0  0  0  0  0  0  0
    4.5104    2.0459   -0.8394 C   0  0  0  0  0  0  0  0  0  0  0  0
    4.1267    2.7202    0.1515 O   0  0  0  0  0  0  0  0  0  0  0  0
    4.0773    0.7160   -0.9406 N   0  0  0  0  0  0  0  0  0  0  0  0
    3.2370    0.0536   -0.0177 C   0  0  0  0  0  0  0  0  0  0  0  0
    3.5870   -0.6777    1.1054 C   0  0  0  0  0  0  0  0  0  0  0  0
    2.4660   -1.1559    1.7236 N   0  0  0  0  0  0  0  0  0  0  0  0
    2.4392   -1.9425    2.9395 C   0  0  0  0  0  0  0  0  0  0  0  0
    1.3909   -0.7556    1.0253 C   0  0  0  0  0  0  0  0  0  0  0  0
    1.8428   -0.0147   -0.0290 C   0  0  0  0  0  0  0  0  0  0  0  0
    0.6442    0.5475   -0.6692 C   0  0  0  0  0  0  0  0  0  0  0  0
    0.7122    1.2647   -1.6868 O   0  0  0  0  0  0  0  0  0  0  0  0
   -0.5243    0.1441    0.0448 N   0  0  0  0  0  0  0  0  0  0  0  0
   -1.8340    0.7060   -0.0384 C   0  0  0  0  0  0  0  0  0  0  0  0
   -2.1216    1.6406   -1.0039 C   0  0  0  0  0  0  0  0  0  0  0  0
   -3.3881    2.2441   -1.0801 C   0  0  0  0  0  0  0  0  0  0  0  0
   -3.6873    3.2549   -2.1302 C   0  0  0  0  0  0  0  0  0  0  0  0
   -4.3069    1.8428   -0.1381 C   0  0  0  0  0  0  0  0  0  0  0  0
   -5.5841    2.2061    0.0764 N   0  0  0  0  0  0  0  0  0  0  0  0
   -6.0523    1.5240    1.1240 N   0  0  0  0  0  0  0  0  0  0  0  0
   -5.0854    0.7165    1.5945 C   0  0  0  0  0  0  0  0  0  0  0  0
   -5.1683   -0.2295    2.7609 C   0  0  0  0  0  0  0  0  0  0  0  0
   -4.2247    0.0424    3.7080 F   0  0  0  0  0  0  0  0  0  0  0  0
   -4.9780   -1.5414    2.3359 F   0  0  0  0  0  0  0  0  0  0  0  0
   -4.0187    0.9262    0.8054 N   0  0  0  0  0  0  0  0  0  0  0  0
   -2.8170    0.3972    0.8261 N   0  0  0  0  0  0  0  0  0  0  0  0
   -0.1069   -0.9295    0.9031 C   0  0  0  0  0  0  0  0  0  0  0  0
   -0.3592   -2.2680    0.2416 C   0  0  0  0  0  0  0  0  0  0  0  0
    0.6765   -3.1653    0.1004 C   0  0  0  0  0  0  0  0  0  0  0  0
    0.4990   -4.4237   -0.4904 C   0  0  0  0  0  0  0  0  0  0  0  0
   -0.7358   -4.8110   -0.9574 C   0  0  0  0  0  0  0  0  0  0  0  0
   -0.9599   -6.3875   -1.6979 Cl  0  0  0  0  0  0  0  0  0  0  0  0
   -1.7719   -3.9208   -0.8200 C   0  0  0  0  0  0  0  0  0  0  0  0
   -1.5807   -2.6632   -0.2259 C   0  0  0  0  0  0  0  0  0  0  0  0
    6.5698    4.0713   -0.8489 H   0  0  0  0  0  0  0  0  0  0  0  0
    6.2499    4.3983   -2.5804 H   0  0  0  0  0  0  0  0  0  0  0  0
    4.9248    4.6616   -1.3234 H   0  0  0  0  0  0  0  0  0  0  0  0
    5.6810    2.1132   -2.6238 H   0  0  0  0  0  0  0  0  0  0  0  0
    4.4100    0.1623   -1.7817 H   0  0  0  0  0  0  0  0  0  0  0  0
    4.5656   -0.8659    1.4708 H   0  0  0  0  0  0  0  0  0  0  0  0
    3.2340   -2.7134    2.9682 H   0  0  0  0  0  0  0  0  0  0  0  0
    2.4483   -1.2900    3.8358 H   0  0  0  0  0  0  0  0  0  0  0  0
    1.4661   -2.4942    2.9833 H   0  0  0  0  0  0  0  0  0  0  0  0
   -1.4247    1.9759   -1.7573 H   0  0  0  0  0  0  0  0  0  0  0  0
   -4.4285    4.0028   -1.7805 H   0  0  0  0  0  0  0  0  0  0  0  0
   -2.7121    3.7312   -2.3905 H   0  0  0  0  0  0  0  0  0  0  0  0
   -4.1497    2.7458   -3.0099 H   0  0  0  0  0  0  0  0  0  0  0  0
   -6.1695   -0.1910    3.2221 H   0  0  0  0  0  0  0  0  0  0  0  0
   -0.5222   -0.8724    1.9085 H   0  0  0  0  0  0  0  0  0  0  0  0
    1.6694   -2.9346    0.4268 H   0  0  0  0  0  0  0  0  0  0  0  0
    1.3341   -5.0900   -0.5789 H   0  0  0  0  0  0  0  0  0  0  0  0
   -2.7473   -4.2077   -1.1808 H   0  0  0  0  0  0  0  0  0  0  0  0
   -2.4291   -2.0134   -0.1481 H   0  0  0  0  0  0  0  0  0  0  0  0
  1  2  1  0
  2  3  1  0
  3  4  2  0
  3  5  1  0
  5  6  1  0
  6  7  2  0
  7  8  1  0
  8  9  1  0
  8 10  1  0
 10 11  2  0
 11 12  1  0
 12 13  2  0
 12 14  1  0
 14 15  1  0
 15 16  1  0
 16 17  2  0
 17 18  1  0
 17 19  1  0
 19 20  2  0
 20 21  1  0
 21 22  2  0
 22 23  1  0
 23 24  1  0
 23 25  1  0
 22 26  1  0
 26 27  1  0
 14 28  1  0
 28 29  1  0
 29 30  2  0
 30 31  1  0
 31 32  2  0
 32 33  1  0
 32 34  1  0
 34 35  2  0
 11  6  1  0
 27 15  2  0
 35 29  1  0
 28 10  1  0
 26 19  1  0
  1 36  1  0
  1 37  1  0
  1 38  1  0
  2 39  1  0
  5 40  1  0
  7 41  1  0
  9 42  1  0
  9 43  1  0
  9 44  1  0
 16 45  1  0
 18 46  1  0
 18 47  1  0
 18 48  1  0
 23 49  1  0
 28 50  1  0
 30 51  1  0
 31 52  1  0
 34 53  1  0
 35 54  1  0
M  END
$$$$
