@<TRIPOS>MOLECULE
*****
 54 58 0 0 0
SMALL
GASTEIGER

@<TRIPOS>ATOM
      1 C           5.7748    4.0437   -1.6440 C.3     1  UNL1        0.0015
      2 N           5.3513    2.6598   -1.7913 N.am    1  UNL1       -0.3022
      3 C           4.5104    2.0459   -0.8394 C.2     1  UNL1        0.3037
      4 O           4.1267    2.7202    0.1515 O.2     1  UNL1       -0.2525
      5 N           4.0773    0.7160   -0.9406 N.am    1  UNL1       -0.2675
      6 C           3.2370    0.0536   -0.0177 C.ar    1  UNL1        0.0648
      7 C           3.5870   -0.6777    1.1054 C.ar    1  UNL1        0.0266
      8 N           2.4660   -1.1559    1.7236 N.ar    1  UNL1       -0.3492
      9 C           2.4392   -1.9425    2.9395 C.3     1  UNL1        0.0117
     10 C           1.3909   -0.7556    1.0253 C.ar    1  UNL1        0.0581
     11 C           1.8428   -0.0147   -0.0290 C.ar    1  UNL1        0.0813
     12 C           0.6442    0.5475   -0.6692 C.2     1  UNL1        0.2564
     13 O           0.7122    1.2647   -1.6868 O.2     1  UNL1       -0.2694
     14 N          -0.5243    0.1441    0.0448 N.am    1  UNL1       -0.2374
     15 C          -1.8340    0.7060   -0.0384 C.ar    1  UNL1        0.1499
     16 C          -2.1216    1.6406   -1.0039 C.ar    1  UNL1       -0.0131
     17 C          -3.3881    2.2441   -1.0801 C.ar    1  UNL1       -0.0012
     18 C          -3.6873    3.2549   -2.1302 C.3     1  UNL1       -0.0360
     19 C          -4.3069    1.8428   -0.1381 C.ar    1  UNL1        0.1811
     20 N          -5.5841    2.2061    0.0764 N.ar    1  UNL1       -0.1275
     21 N          -6.0523    1.5240    1.1240 N.ar    1  UNL1       -0.1263
     22 C          -5.0854    0.7165    1.5945 C.ar    1  UNL1        0.2205
     23 C          -5.1683   -0.2295    2.7609 C.3     1  UNL1        0.2993
     24 F          -4.2247    0.0424    3.7080 F       1  UNL1       -0.2005
     25 F          -4.9780   -1.5414    2.3359 F       1  UNL1       -0.2005
     26 N          -4.0187    0.9262    0.8054 N.ar    1  UNL1       -0.1896
     27 N          -2.8170    0.3972    0.8261 N.ar    1  UNL1       -0.1476
     28 C          -0.1069   -0.9295    0.9031 C.3     1  UNL1        0.0986
     29 C          -0.3592   -2.2680    0.2416 C.ar    1  UNL1       -0.0207
     30 C           0.6765   -3.1653    0.1004 C.ar    1  UNL1       -0.0550
     31 C           0.4990   -4.4237   -0.4904 C.ar    1  UNL1       -0.0431
     32 C          -0.7358   -4.8110   -0.9574 C.ar    1  UNL1        0.0410
     33 CL         -0.9599   -6.3875   -1.6979 Cl      1  UNL1       -0.0835
     34 C          -1.7719   -3.9208   -0.8200 C.ar    1  UNL1       -0.0431
     35 C          -1.5807   -2.6632   -0.2259 C.ar    1  UNL1       -0.0550
     36 H           6.5698    4.0713   -0.8489 H       1  UNL1        0.0426
     37 H           6.2499    4.3983   -2.5804 H       1  UNL1        0.0426
     38 H           4.9248    4.6616   -1.3234 H       1  UNL1        0.0426
     39 H           5.6810    2.1132   -2.6238 H       1  UNL1        0.1499
     40 H           4.4100    0.1623   -1.7817 H       1  UNL1        0.1564
     41 H           4.5656   -0.8659    1.4708 H       1  UNL1        0.0828
     42 H           3.2340   -2.7134    2.9682 H       1  UNL1        0.0456
     43 H           2.4483   -1.2900    3.8358 H       1  UNL1        0.0456
     44 H           1.4661   -2.4942    2.9833 H       1  UNL1        0.0456
     45 H          -1.4247    1.9759   -1.7573 H       1  UNL1        0.0656
     46 H          -4.4285    4.0028   -1.7805 H       1  UNL1        0.0279
     47 H          -2.7121    3.7312   -2.3905 H       1  UNL1        0.0279
     48 H          -4.1497    2.7458   -3.0099 H       1  UNL1        0.0279
     49 H          -6.1695   -0.1910    3.2221 H       1  UNL1        0.1105
     50 H          -0.5222   -0.8724    1.9085 H       1  UNL1        0.0620
     51 H           1.6694   -2.9346    0.4268 H       1  UNL1        0.0621
     52 H           1.3341   -5.0900   -0.5789 H       1  UNL1        0.0632
     53 H          -2.7473   -4.2077   -1.1808 H       1  UNL1        0.0632
     54 H          -2.4291   -2.0134   -0.1481 H       1  UNL1        0.0621
@<TRIPOS>BOND
     1     1     2    1
     2     2     3   am
     3     3     4    2
     4     3     5   am
     5     5     6    1
     6     6     7   ar
     7     7     8   ar
     8     8     9    1
     9     8    10   ar
    10    10    11   ar
    11    11    12    1
    12    12    13    2
    13    12    14   am
    14    14    15    1
    15    15    16   ar
    16    16    17   ar
    17    17    18    1
    18    17    19   ar
    19    19    20   ar
    20    20    21   ar
    21    21    22   ar
    22    22    23    1
    23    23    24    1
    24    23    25    1
    25    22    26   ar
    26    26    27   ar
    27    14    28    1
    28    28    29    1
    29    29    30   ar
    30    30    31   ar
    31    31    32   ar
    32    32    33    1
    33    32    34   ar
    34    34    35   ar
    35    11     6   ar
    36    27    15   ar
    37    35    29   ar
    38    28    10    1
    39    26    19   ar
    40     1    36    1
    41     1    37    1
    42     1    38    1
    43     2    39    1
    44     5    40    1
    45     7    41    1
    46     9    42    1
    47     9    43    1
    48     9    44    1
    49    16    45    1
    50    18    46    1
    51    18    47    1
    52    18    48    1
    53    23    49    1
    54    28    50    1
    55    30    51    1
    56    31    52    1
    57    34    53    1
    58    35    54    1
