
     RDKit          3D

 45 48  0  0  0  0  0  0  0  0999 V2000
   -2.9763   -0.4448    2.1256 C   0  0  0  0  0  0  0  0  0  0  0  0
   -2.4360   -0.1357    0.7296 C   0  0  1  0  0  0  0  0  0  0  0  0
   -1.1309   -0.2298    0.5743 O   0  0  0  0  0  0  0  0  0  0  0  0
    0.0541    0.2357    0.2847 C   0  0  0  0  0  0  0  0  0  0  0  0
    1.1440   -0.6027    0.3601 N   0  0  0  0  0  0  0  0  0  0  0  0
    2.3839   -0.2632    0.0969 C   0  0  0  0  0  0  0  0  0  0  0  0
    3.5283   -1.1774    0.1851 C   0  0  0  0  0  0  0  0  0  0  0  0
    3.3964   -2.4985    0.5598 C   0  0  0  0  0  0  0  0  0  0  0  0
    4.6507   -3.0737    0.5414 C   0  0  0  0  0  0  0  0  0  0  0  0
    5.4911   -2.0945    0.1609 N   0  0  0  0  0  0  0  0  0  0  0  0
    6.9171   -2.2796    0.0134 C   0  0  0  0  0  0  0  0  0  0  0  0
    4.8105   -0.9626   -0.0503 N   0  0  0  0  0  0  0  0  0  0  0  0
    2.6317    1.0343   -0.2874 C   0  0  0  0  0  0  0  0  0  0  0  0
    1.5886    1.9376   -0.3868 C   0  0  0  0  0  0  0  0  0  0  0  0
    1.5235    3.2432   -0.7300 N   0  0  0  0  0  0  0  0  0  0  0  0
    0.2730    3.6526   -0.6674 N   0  0  0  0  0  0  0  0  0  0  0  0
   -0.2563    4.9915   -0.9553 C   0  0  0  0  0  0  0  0  0  0  0  0
   -0.5240    2.6457   -0.2854 C   0  0  0  0  0  0  0  0  0  0  0  0
    0.2837    1.5468   -0.1007 C   0  0  0  0  0  0  0  0  0  0  0  0
   -3.2562   -1.0737   -0.1920 C   0  0  1  0  0  0  0  0  0  0  0  0
   -4.7042   -0.7004   -0.0132 C   0  0  0  0  0  0  0  0  0  0  0  0
   -5.3212   -0.8885   -1.3109 N   0  0  0  0  0  0  0  0  0  0  0  0
   -4.2952   -0.8207   -2.2851 C   0  0  0  0  0  0  0  0  0  0  0  0
   -4.5292   -0.8114   -3.5287 O   0  0  0  0  0  0  0  0  0  0  0  0
   -2.9664   -0.7650   -1.6372 C   0  0  0  0  0  0  0  0  0  0  0  0
   -3.0342   -1.5574    2.1803 H   0  0  0  0  0  0  0  0  0  0  0  0
   -3.9827   -0.0559    2.2849 H   0  0  0  0  0  0  0  0  0  0  0  0
   -2.2543   -0.1468    2.9171 H   0  0  0  0  0  0  0  0  0  0  0  0
   -2.8368    0.8817    0.5104 H   0  0  0  0  0  0  0  0  0  0  0  0
    2.5040   -3.0464    0.8311 H   0  0  0  0  0  0  0  0  0  0  0  0
    4.9109   -4.1142    0.7860 H   0  0  0  0  0  0  0  0  0  0  0  0
    7.0861   -3.3041   -0.3723 H   0  0  0  0  0  0  0  0  0  0  0  0
    7.2478   -1.5895   -0.7894 H   0  0  0  0  0  0  0  0  0  0  0  0
    7.4267   -2.0834    0.9781 H   0  0  0  0  0  0  0  0  0  0  0  0
    3.6445    1.3541   -0.5139 H   0  0  0  0  0  0  0  0  0  0  0  0
   -0.5584    5.0215   -2.0279 H   0  0  0  0  0  0  0  0  0  0  0  0
    0.5344    5.7484   -0.7760 H   0  0  0  0  0  0  0  0  0  0  0  0
   -1.1706    5.1866   -0.3626 H   0  0  0  0  0  0  0  0  0  0  0  0
   -1.5786    2.6713   -0.1464 H   0  0  0  0  0  0  0  0  0  0  0  0
   -3.1006   -2.1155    0.0877 H   0  0  0  0  0  0  0  0  0  0  0  0
   -5.2049   -1.2764    0.7877 H   0  0  0  0  0  0  0  0  0  0  0  0
   -4.7445    0.3848    0.2237 H   0  0  0  0  0  0  0  0  0  0  0  0
   -6.3454   -1.0420   -1.4351 H   0  0  0  0  0  0  0  0  0  0  0  0
   -2.4826    0.2234   -1.7711 H   0  0  0  0  0  0  0  0  0  0  0  0
   -2.3415   -1.6054   -2.0262 H   0  0  0  0  0  0  0  0  0  0  0  0
  1  2  1  0
  2  3  1  0
  3  4  1  0
  4  5  2  0
  5  6  1  0
  6  7  1  0
  7  8  1  0
  8  9  2  0
  9 10  1  0
 10 11  1  0
 10 12  1  0
  6 13  2  0
 13 14  1  0
 14 15  2  0
 15 16  1  0
 16 17  1  0
 16 18  1  0
 18 19  2  0
  2 20  1  0
 20 21  1  0
 21 22  1  0
 22 23  1  0
 23 24  2  0
 23 25  1  0
 19  4  1  0
 25 20  1  0
 12  7  2  0
 19 14  1  0
  1 26  1  0
  1 27  1  0
  1 28  1  0
  2 29  1  6
  8 30  1  0
  9 31  1  0
 11 32  1  0
 11 33  1  0
 11 34  1  0
 13 35  1  0
 17 36  1  0
 17 37  1  0
 17 38  1  0
 18 39  1  0
 20 40  1  1
 21 41  1  0
 21 42  1  0
 22 43  1  0
 25 44  1  0
 25 45  1  0
M  END
$$$$
