@<TRIPOS>MOLECULE
*****
 45 48 0 0 0
SMALL
GASTEIGER

@<TRIPOS>ATOM
      1 C          -2.9763   -0.4448    2.1256 C.3     1  UNL1       -0.0274
      2 C          -2.4360   -0.1357    0.7296 C.3     1  UNL1        0.1037
      3 O          -1.1309   -0.2298    0.5743 O.3     1  UNL1       -0.4725
      4 C           0.0541    0.2357    0.2847 C.ar    1  UNL1        0.2265
      5 N           1.1440   -0.6027    0.3601 N.ar    1  UNL1       -0.2106
      6 C           2.3839   -0.2632    0.0969 C.ar    1  UNL1        0.0968
      7 C           3.5283   -1.1774    0.1851 C.ar    1  UNL1        0.1110
      8 C           3.3964   -2.4985    0.5598 C.ar    1  UNL1       -0.0148
      9 C           4.6507   -3.0737    0.5414 C.ar    1  UNL1        0.0258
     10 N           5.4911   -2.0945    0.1609 N.ar    1  UNL1       -0.2739
     11 C           6.9171   -2.2796    0.0134 C.3     1  UNL1        0.0302
     12 N           4.8105   -0.9626   -0.0503 N.ar    1  UNL1       -0.1699
     13 C           2.6317    1.0343   -0.2874 C.ar    1  UNL1       -0.0061
     14 C           1.5886    1.9376   -0.3868 C.ar    1  UNL1        0.0999
     15 N           1.5235    3.2432   -0.7300 N.ar    1  UNL1       -0.1712
     16 N           0.2730    3.6526   -0.6674 N.ar    1  UNL1       -0.2732
     17 C          -0.2563    4.9915   -0.9553 C.3     1  UNL1        0.0302
     18 C          -0.5240    2.6457   -0.2854 C.ar    1  UNL1        0.0380
     19 C           0.2837    1.5468   -0.1007 C.ar    1  UNL1        0.0812
     20 C          -3.2562   -1.0737   -0.1920 C.3     1  UNL1        0.0196
     21 C          -4.7042   -0.7004   -0.0132 C.3     1  UNL1        0.0182
     22 N          -5.3212   -0.8885   -1.3109 N.am    1  UNL1       -0.3149
     23 C          -4.2952   -0.8207   -2.2851 C.2     1  UNL1        0.2135
     24 O          -4.5292   -0.8114   -3.5287 O.2     1  UNL1       -0.2758
     25 C          -2.9664   -0.7650   -1.6372 C.3     1  UNL1        0.0315
     26 H          -3.0342   -1.5574    2.1803 H       1  UNL1        0.0265
     27 H          -3.9827   -0.0559    2.2849 H       1  UNL1        0.0265
     28 H          -2.2543   -0.1468    2.9171 H       1  UNL1        0.0265
     29 H          -2.8368    0.8817    0.5104 H       1  UNL1        0.0734
     30 H           2.5040   -3.0464    0.8311 H       1  UNL1        0.0655
     31 H           4.9109   -4.1142    0.7860 H       1  UNL1        0.0826
     32 H           7.0861   -3.3041   -0.3723 H       1  UNL1        0.0473
     33 H           7.2478   -1.5895   -0.7894 H       1  UNL1        0.0473
     34 H           7.4267   -2.0834    0.9781 H       1  UNL1        0.0473
     35 H           3.6445    1.3541   -0.5139 H       1  UNL1        0.0661
     36 H          -0.5584    5.0215   -2.0279 H       1  UNL1        0.0473
     37 H           0.5344    5.7484   -0.7760 H       1  UNL1        0.0473
     38 H          -1.1706    5.1866   -0.3626 H       1  UNL1        0.0473
     39 H          -1.5786    2.6713   -0.1464 H       1  UNL1        0.0834
     40 H          -3.1006   -2.1155    0.0877 H       1  UNL1        0.0356
     41 H          -5.2049   -1.2764    0.7877 H       1  UNL1        0.0466
     42 H          -4.7445    0.3848    0.2237 H       1  UNL1        0.0466
     43 H          -6.3454   -1.0420   -1.4351 H       1  UNL1        0.1487
     44 H          -2.4826    0.2234   -1.7711 H       1  UNL1        0.0363
     45 H          -2.3415   -1.6054   -2.0262 H       1  UNL1        0.0363
@<TRIPOS>BOND
     1     1     2    1
     2     2     3    1
     3     3     4    1
     4     4     5   ar
     5     5     6   ar
     6     6     7    1
     7     7     8   ar
     8     8     9   ar
     9     9    10   ar
    10    10    11    1
    11    10    12   ar
    12     6    13   ar
    13    13    14   ar
    14    14    15   ar
    15    15    16   ar
    16    16    17    1
    17    16    18   ar
    18    18    19   ar
    19     2    20    1
    20    20    21    1
    21    21    22    1
    22    22    23   am
    23    23    24    2
    24    23    25    1
    25    19     4   ar
    26    25    20    1
    27    12     7   ar
    28    19    14   ar
    29     1    26    1
    30     1    27    1
    31     1    28    1
    32     2    29    1
    33     8    30    1
    34     9    31    1
    35    11    32    1
    36    11    33    1
    37    11    34    1
    38    13    35    1
    39    17    36    1
    40    17    37    1
    41    17    38    1
    42    18    39    1
    43    20    40    1
    44    21    41    1
    45    21    42    1
    46    22    43    1
    47    25    44    1
    48    25    45    1
