@<TRIPOS>MOLECULE
*****
 50 53 0 0 0
SMALL
GASTEIGER

@<TRIPOS>ATOM
      1 C           1.0226   -2.0586   -1.4742 C.3     1  UNL1       -0.0236
      2 C           1.4754   -1.0567   -0.4564 C.ar    1  UNL1        0.0251
      3 C           0.7290   -0.0823    0.1667 C.ar    1  UNL1        0.0124
      4 C          -0.6780    0.1931   -0.0271 C.ar    1  UNL1        0.0085
      5 C          -1.6867   -0.3961    0.7094 C.ar    1  UNL1        0.0166
      6 N          -2.9868   -0.1199    0.5061 N.ar    1  UNL1       -0.3116
      7 C          -4.0421   -0.7362    1.2766 C.3     1  UNL1        0.0318
      8 C          -3.6430   -0.9713    2.7133 C.3     1  UNL1       -0.0444
      9 C          -4.4567   -2.0640    0.6405 C.3     1  UNL1       -0.0444
     10 C          -3.3331    0.7731   -0.4600 C.ar    1  UNL1        0.2593
     11 O          -4.5257    1.0469   -0.6692 O.2     1  UNL1       -0.2670
     12 C          -2.3512    1.3919   -1.2274 C.ar    1  UNL1        0.0473
     13 C          -2.7409    2.3048   -2.2122 C.ar    1  UNL1       -0.0488
     14 C          -1.7502    2.8911   -2.9441 C.ar    1  UNL1       -0.0610
     15 C          -0.4084    2.6229   -2.7531 C.ar    1  UNL1       -0.0611
     16 C          -0.0245    1.7273   -1.7871 C.ar    1  UNL1       -0.0532
     17 C          -1.0142    1.1144   -1.0256 C.ar    1  UNL1       -0.0035
     18 C           1.5585    0.6115    1.0311 C.ar    1  UNL1        0.0106
     19 C           1.3206    1.6892    1.9018 C.ar    1  UNL1       -0.0167
     20 C           2.3619    2.1552    2.6321 C.ar    1  UNL1        0.1241
     21 F           2.1682    3.2011    3.4887 F       1  UNL1       -0.2055
     22 C           3.6208    1.5839    2.5209 C.ar    1  UNL1       -0.0245
     23 C           3.8604    0.5237    1.6660 C.ar    1  UNL1       -0.0349
     24 C           2.7988    0.0300    0.9051 C.ar    1  UNL1        0.0505
     25 N           2.7371   -0.9782    0.0027 N.ar    1  UNL1       -0.3327
     26 C           3.8636   -1.8095   -0.3775 C.3     1  UNL1        0.1204
     27 C           4.6132   -1.2752   -1.5123 C.2     1  UNL1        0.3247
     28 O           4.2707   -0.2083   -2.0571 O.2     1  UNL1       -0.2490
     29 O           5.7111   -1.9534   -1.9899 O.3     1  UNL1       -0.4794
     30 H           0.5711   -2.9472   -1.0092 H       1  UNL1        0.0292
     31 H           1.9008   -2.4296   -2.0473 H       1  UNL1        0.0292
     32 H           0.3641   -1.5840   -2.2432 H       1  UNL1        0.0292
     33 H          -1.4156   -1.1061    1.4779 H       1  UNL1        0.0816
     34 H          -4.9562   -0.1127    1.2859 H       1  UNL1        0.0523
     35 H          -2.7158   -0.3897    2.8942 H       1  UNL1        0.0249
     36 H          -4.4512   -0.6958    3.4045 H       1  UNL1        0.0249
     37 H          -3.4634   -2.0721    2.8487 H       1  UNL1        0.0249
     38 H          -4.5209   -1.8767   -0.4424 H       1  UNL1        0.0249
     39 H          -5.4330   -2.3377    1.0600 H       1  UNL1        0.0249
     40 H          -3.7029   -2.8176    0.9145 H       1  UNL1        0.0249
     41 H          -3.7952    2.4886   -2.3323 H       1  UNL1        0.0625
     42 H          -2.0456    3.5986   -3.7079 H       1  UNL1        0.0618
     43 H           0.3540    3.1108   -3.3571 H       1  UNL1        0.0618
     44 H           1.0040    1.4639   -1.5763 H       1  UNL1        0.0624
     45 H           0.3011    2.0972    1.9440 H       1  UNL1        0.0653
     46 H           4.4484    1.9638    3.1097 H       1  UNL1        0.0647
     47 H           4.8394    0.0708    1.5720 H       1  UNL1        0.0639
     48 H           3.5466   -2.8684   -0.5594 H       1  UNL1        0.0607
     49 H           4.5878   -1.8878    0.4859 H       1  UNL1        0.0607
     50 H           6.1121   -1.8187   -2.9098 H       1  UNL1        0.2951
@<TRIPOS>BOND
     1     1     2    1
     2     2     3   ar
     3     3     4    1
     4     4     5   ar
     5     5     6   ar
     6     6     7    1
     7     7     8    1
     8     7     9    1
     9     6    10   ar
    10    10    11    2
    11    10    12   ar
    12    12    13   ar
    13    13    14   ar
    14    14    15   ar
    15    15    16   ar
    16    16    17   ar
    17     3    18   ar
    18    18    19   ar
    19    19    20   ar
    20    20    21    1
    21    20    22   ar
    22    22    23   ar
    23    23    24   ar
    24    24    25   ar
    25    25    26    1
    26    26    27    1
    27    27    28    2
    28    27    29    1
    29    25     2   ar
    30    17     4   ar
    31    24    18   ar
    32    17    12   ar
    33     1    30    1
    34     1    31    1
    35     1    32    1
    36     5    33    1
    37     7    34    1
    38     8    35    1
    39     8    36    1
    40     8    37    1
    41     9    38    1
    42     9    39    1
    43     9    40    1
    44    13    41    1
    45    14    42    1
    46    15    43    1
    47    16    44    1
    48    19    45    1
    49    22    46    1
    50    23    47    1
    51    26    48    1
    52    26    49    1
    53    29    50    1
