
     RDKit          3D

 47 50  0  0  0  0  0  0  0  0999 V2000
   -0.9370    1.9980    0.7191 C   0  0  0  0  0  0  0  0  0  0  0  0
   -1.6655    0.7106    0.2844 C   0  0  1  0  0  0  0  0  0  0  0  0
   -0.6584   -0.1783   -0.3528 C   0  0  0  0  0  0  0  0  0  0  0  0
    0.6686    0.1833   -0.4092 C   0  0  0  0  0  0  0  0  0  0  0  0
    1.5597   -0.6642   -1.0043 C   0  0  0  0  0  0  0  0  0  0  0  0
    2.9297   -0.2881   -1.0610 N   0  0  0  0  0  0  0  0  0  0  0  0
    3.7483   -0.6948    0.0393 C   0  0  0  0  0  0  0  0  0  0  0  0
    3.2641   -1.3524    1.0017 O   0  0  0  0  0  0  0  0  0  0  0  0
    5.1554   -0.3295    0.0188 C   0  0  0  0  0  0  0  0  0  0  0  0
    5.9571   -0.7241    1.0896 C   0  0  0  0  0  0  0  0  0  0  0  0
    7.2899   -0.3868    1.0858 C   0  0  0  0  0  0  0  0  0  0  0  0
    7.8037    0.3216    0.0454 C   0  0  0  0  0  0  0  0  0  0  0  0
    9.5081    0.7827   -0.0130 Cl  0  0  0  0  0  0  0  0  0  0  0  0
    6.9714    0.6864   -0.9857 C   0  0  0  0  0  0  0  0  0  0  0  0
    5.6780    0.3671   -0.9964 N   0  0  0  0  0  0  0  0  0  0  0  0
    1.1271   -1.8562   -1.5347 C   0  0  0  0  0  0  0  0  0  0  0  0
   -0.1985   -2.2419   -1.4909 C   0  0  0  0  0  0  0  0  0  0  0  0
   -1.0943   -1.3839   -0.8897 C   0  0  0  0  0  0  0  0  0  0  0  0
   -2.3806   -1.7876   -0.8619 F   0  0  0  0  0  0  0  0  0  0  0  0
   -2.1220    0.0443    1.5482 C   0  0  0  0  0  0  0  0  0  0  0  0
   -3.8394    0.4076    1.8596 S   0  0  0  0  0  6  0  0  0  0  0  0
   -4.4315   -0.5474    2.8411 O   0  0  0  0  0  0  0  0  0  0  0  0
   -4.0006    1.8405    2.2777 O   0  0  0  0  0  0  0  0  0  0  0  0
   -4.6114    0.1842    0.3001 C   0  0  0  0  0  0  0  0  0  0  0  0
   -6.0657    0.2067    0.1891 C   0  0  0  0  0  0  0  0  0  0  0  0
   -5.3576   -1.0544   -0.0225 C   0  0  0  0  0  0  0  0  0  0  0  0
   -3.8785    0.9284   -0.7431 C   0  0  0  0  0  0  0  0  0  0  0  0
   -4.6113    1.4692   -1.8786 N   0  0  0  0  0  0  0  0  0  0  0  0
   -2.6428    1.0777   -0.6289 N   0  0  0  0  0  0  0  0  0  0  0  0
   -0.5036    2.5241   -0.1480 H   0  0  0  0  0  0  0  0  0  0  0  0
   -0.2148    1.8086    1.5310 H   0  0  0  0  0  0  0  0  0  0  0  0
   -1.7034    2.7143    1.1366 H   0  0  0  0  0  0  0  0  0  0  0  0
    0.9751    1.1468    0.0275 H   0  0  0  0  0  0  0  0  0  0  0  0
    3.2644    0.2454   -1.8681 H   0  0  0  0  0  0  0  0  0  0  0  0
    5.4838   -1.2914    1.8948 H   0  0  0  0  0  0  0  0  0  0  0  0
    7.9086   -0.6968    1.9220 H   0  0  0  0  0  0  0  0  0  0  0  0
    7.3380    1.2566   -1.8444 H   0  0  0  0  0  0  0  0  0  0  0  0
    1.8280   -2.5368   -2.0099 H   0  0  0  0  0  0  0  0  0  0  0  0
   -0.4896   -3.1896   -1.9223 H   0  0  0  0  0  0  0  0  0  0  0  0
   -2.0147   -1.0575    1.5153 H   0  0  0  0  0  0  0  0  0  0  0  0
   -1.5452    0.4113    2.4116 H   0  0  0  0  0  0  0  0  0  0  0  0
   -6.5673    0.6750   -0.6777 H   0  0  0  0  0  0  0  0  0  0  0  0
   -6.6824    0.2614    1.1336 H   0  0  0  0  0  0  0  0  0  0  0  0
   -5.3012   -1.8584    0.7538 H   0  0  0  0  0  0  0  0  0  0  0  0
   -5.2216   -1.4841   -1.0562 H   0  0  0  0  0  0  0  0  0  0  0  0
   -5.0427    0.8572   -2.5800 H   0  0  0  0  0  0  0  0  0  0  0  0
   -4.6774    2.4951   -1.9467 H   0  0  0  0  0  0  0  0  0  0  0  0
  2  1  1  1
  2  3  1  0
  3  4  2  0
  4  5  1  0
  5  6  1  0
  6  7  1  0
  7  8  2  0
  7  9  1  0
  9 10  2  0
 10 11  1  0
 11 12  2  0
 12 13  1  0
 12 14  1  0
 14 15  2  0
  5 16  2  0
 16 17  1  0
 17 18  2  0
 18 19  1  0
  2 20  1  0
 20 21  1  0
 21 22  2  0
 21 23  2  0
 21 24  1  0
 24 25  1  0
 25 26  1  0
 24 27  1  0
 27 28  1  0
 27 29  2  0
 29  2  1  0
 18  3  1  0
 26 24  1  0
 15  9  1  0
  1 30  1  0
  1 31  1  0
  1 32  1  0
  4 33  1  0
  6 34  1  0
 10 35  1  0
 11 36  1  0
 14 37  1  0
 16 38  1  0
 17 39  1  0
 20 40  1  0
 20 41  1  0
 25 42  1  0
 25 43  1  0
 26 44  1  0
 26 45  1  0
 28 46  1  0
 28 47  1  0
M  END
$$$$
