@<TRIPOS>MOLECULE
*****
 47 50 0 0 0
SMALL
GASTEIGER

@<TRIPOS>ATOM
      1 C          -0.9370    1.9980    0.7191 C.3     1  UNL1       -0.0112
      2 C          -1.6655    0.7106    0.2844 C.3     1  UNL1        0.1959
      3 C          -0.6584   -0.1783   -0.3528 C.ar    1  UNL1        0.0420
      4 C           0.6686    0.1833   -0.4092 C.ar    1  UNL1       -0.0301
      5 C           1.5597   -0.6642   -1.0043 C.ar    1  UNL1        0.0343
      6 N           2.9297   -0.2881   -1.0610 N.am    1  UNL1       -0.2802
      7 C           3.7483   -0.6948    0.0393 C.2     1  UNL1        0.2666
      8 O           3.2641   -1.3524    1.0017 O.2     1  UNL1       -0.2682
      9 C           5.1554   -0.3295    0.0188 C.ar    1  UNL1        0.1257
     10 C           5.9571   -0.7241    1.0896 C.ar    1  UNL1       -0.0298
     11 C           7.2899   -0.3868    1.0858 C.ar    1  UNL1       -0.0397
     12 C           7.8037    0.3216    0.0454 C.ar    1  UNL1        0.0591
     13 CL          9.5081    0.7827   -0.0130 Cl      1  UNL1       -0.0820
     14 C           6.9714    0.6864   -0.9857 C.ar    1  UNL1        0.0467
     15 N           5.6780    0.3671   -0.9964 N.ar    1  UNL1       -0.2489
     16 C           1.1271   -1.8562   -1.5347 C.ar    1  UNL1       -0.0377
     17 C          -0.1985   -2.2419   -1.4909 C.ar    1  UNL1       -0.0243
     18 C          -1.0943   -1.3839   -0.8897 C.ar    1  UNL1        0.1311
     19 F          -2.3806   -1.7876   -0.8619 F       1  UNL1       -0.2050
     20 C          -2.1220    0.0443    1.5482 C.3     1  UNL1        0.1183
     21 S          -3.8394    0.4076    1.8596 S.O2    1  UNL1       -0.0095
     22 O          -4.4315   -0.5474    2.8411 O.2     1  UNL1       -0.1731
     23 O          -4.0006    1.8405    2.2777 O.2     1  UNL1       -0.1731
     24 C          -4.6114    0.1842    0.3001 C.3     1  UNL1        0.1888
     25 C          -6.0657    0.2067    0.1891 C.3     1  UNL1       -0.0139
     26 C          -5.3576   -1.0544   -0.0225 C.3     1  UNL1       -0.0139
     27 C          -3.8785    0.9284   -0.7431 C.2     1  UNL1        0.3072
     28 N          -4.6113    1.4692   -1.8786 N.pl3   1  UNL1       -0.2488
     29 N          -2.6428    1.0777   -0.6289 N.2     1  UNL1       -0.0727
     30 H          -0.5036    2.5241   -0.1480 H       1  UNL1        0.0279
     31 H          -0.2148    1.8086    1.5310 H       1  UNL1        0.0279
     32 H          -1.7034    2.7143    1.1366 H       1  UNL1        0.0279
     33 H           0.9751    1.1468    0.0275 H       1  UNL1        0.0641
     34 H           3.2644    0.2454   -1.8681 H       1  UNL1        0.1552
     35 H           5.4838   -1.2914    1.8948 H       1  UNL1        0.0641
     36 H           7.9086   -0.6968    1.9220 H       1  UNL1        0.0633
     37 H           7.3380    1.2566   -1.8444 H       1  UNL1        0.0844
     38 H           1.8280   -2.5368   -2.0099 H       1  UNL1        0.0637
     39 H          -0.4896   -3.1896   -1.9223 H       1  UNL1        0.0647
     40 H          -2.0147   -1.0575    1.5153 H       1  UNL1        0.0550
     41 H          -1.5452    0.4113    2.4116 H       1  UNL1        0.0550
     42 H          -6.5673    0.6750   -0.6777 H       1  UNL1        0.0293
     43 H          -6.6824    0.2614    1.1336 H       1  UNL1        0.0293
     44 H          -5.3012   -1.8584    0.7538 H       1  UNL1        0.0293
     45 H          -5.2216   -1.4841   -1.0562 H       1  UNL1        0.0293
     46 H          -5.0427    0.8572   -2.5800 H       1  UNL1        0.2881
     47 H          -4.6774    2.4951   -1.9467 H       1  UNL1        0.2881
@<TRIPOS>BOND
     1     2     1    1
     2     2     3    1
     3     3     4   ar
     4     4     5   ar
     5     5     6    1
     6     6     7   am
     7     7     8    2
     8     7     9    1
     9     9    10   ar
    10    10    11   ar
    11    11    12   ar
    12    12    13    1
    13    12    14   ar
    14    14    15   ar
    15     5    16   ar
    16    16    17   ar
    17    17    18   ar
    18    18    19    1
    19     2    20    1
    20    20    21    1
    21    21    22    2
    22    21    23    2
    23    21    24    1
    24    24    25    1
    25    25    26    1
    26    24    27    1
    27    27    28    1
    28    27    29    2
    29    29     2    1
    30    18     3   ar
    31    26    24    1
    32    15     9   ar
    33     1    30    1
    34     1    31    1
    35     1    32    1
    36     4    33    1
    37     6    34    1
    38    10    35    1
    39    11    36    1
    40    14    37    1
    41    16    38    1
    42    17    39    1
    43    20    40    1
    44    20    41    1
    45    25    42    1
    46    25    43    1
    47    26    44    1
    48    26    45    1
    49    28    46    1
    50    28    47    1
