@<TRIPOS>MOLECULE
*****
 53 56 0 0 0
SMALL
GASTEIGER

@<TRIPOS>ATOM
      1 C           5.9445    3.4834   -0.6370 C.3     1  UNL1       -0.0397
      2 C           4.8291    2.5270   -0.4875 C.ar    1  UNL1       -0.0502
      3 C           4.9104    1.4426    0.3621 C.ar    1  UNL1       -0.0554
      4 C           3.8405    0.5764    0.4674 C.ar    1  UNL1       -0.0190
      5 C           2.6686    0.7381   -0.2452 C.ar    1  UNL1        0.1317
      6 O           1.6037   -0.1624   -0.1118 O.3     1  UNL1       -0.4256
      7 C           0.6023    0.0247    0.8403 C.2     1  UNL1        0.3175
      8 O           0.7156    1.0472    1.5670 O.2     1  UNL1       -0.2500
      9 C          -0.5328   -0.9104    1.0024 C.3     1  UNL1        0.0791
     10 C          -1.3608   -1.0234   -0.2597 C.3     1  UNL1       -0.0001
     11 C          -2.0633    0.2594   -0.5331 C.ar    1  UNL1       -0.0434
     12 C          -1.8613    0.9702   -1.7053 C.ar    1  UNL1       -0.0580
     13 C          -2.5366    2.1615   -1.9196 C.ar    1  UNL1       -0.0586
     14 C          -3.4130    2.6753   -1.0017 C.ar    1  UNL1       -0.0504
     15 C          -4.1467    3.9566   -1.2194 C.3     1  UNL1       -0.0397
     16 C          -3.6284    1.9745    0.1821 C.ar    1  UNL1       -0.0586
     17 C          -2.9588    0.8063    0.3793 C.ar    1  UNL1       -0.0580
     18 C          -2.3980   -2.0832   -0.0759 C.3     1  UNL1       -0.0297
     19 C          -1.8399   -3.3642    0.5106 C.3     1  UNL1        0.0110
     20 C          -0.6744   -3.7866   -0.3560 C.3     1  UNL1       -0.0359
     21 C           0.4806   -3.0119    0.2341 C.3     1  UNL1       -0.0351
     22 C          -0.0885   -2.2949    1.4245 C.3     1  UNL1        0.0239
     23 N          -1.2790   -3.0289    1.7997 N.3     1  UNL1       -0.2986
     24 C          -0.9718   -4.1939    2.5955 C.3     1  UNL1       -0.0122
     25 C           2.5972    1.8235   -1.0905 C.ar    1  UNL1       -0.0190
     26 C           3.6598    2.6982   -1.2058 C.ar    1  UNL1       -0.0554
     27 H           6.6355    3.4360    0.2342 H       1  UNL1        0.0278
     28 H           5.5750    4.5494   -0.6517 H       1  UNL1        0.0278
     29 H           6.4797    3.2748   -1.5854 H       1  UNL1        0.0278
     30 H           5.8230    1.2927    0.9348 H       1  UNL1        0.0621
     31 H           3.9211   -0.2684    1.1379 H       1  UNL1        0.0654
     32 H          -1.1924   -0.5280    1.7914 H       1  UNL1        0.0435
     33 H          -0.7162   -1.2340   -1.1292 H       1  UNL1        0.0358
     34 H          -1.1777    0.6030   -2.4602 H       1  UNL1        0.0620
     35 H          -2.3792    2.7300   -2.8500 H       1  UNL1        0.0620
     36 H          -4.4677    4.3838   -0.2377 H       1  UNL1        0.0278
     37 H          -5.0613    3.8221   -1.8191 H       1  UNL1        0.0278
     38 H          -3.5049    4.6994   -1.7452 H       1  UNL1        0.0278
     39 H          -4.3186    2.3518    0.9365 H       1  UNL1        0.0620
     40 H          -3.1524    0.2793    1.3241 H       1  UNL1        0.0620
     41 H          -3.1511   -1.7026    0.6521 H       1  UNL1        0.0286
     42 H          -2.8778   -2.3418   -1.0527 H       1  UNL1        0.0286
     43 H          -2.6370   -4.1090    0.5647 H       1  UNL1        0.0463
     44 H          -0.8894   -3.4899   -1.4110 H       1  UNL1        0.0281
     45 H          -0.4873   -4.8628   -0.3419 H       1  UNL1        0.0281
     46 H           1.2928   -3.7261    0.5153 H       1  UNL1        0.0281
     47 H           0.8862   -2.3601   -0.5406 H       1  UNL1        0.0281
     48 H           0.6617   -2.2412    2.2351 H       1  UNL1        0.0471
     49 H          -1.6642   -4.2022    3.4651 H       1  UNL1        0.0391
     50 H           0.0521   -4.0334    3.0213 H       1  UNL1        0.0391
     51 H          -1.0234   -5.1243    2.0155 H       1  UNL1        0.0391
     52 H           1.6806    1.9510   -1.6486 H       1  UNL1        0.0654
     53 H           3.5936    3.5456   -1.8711 H       1  UNL1        0.0621
@<TRIPOS>BOND
     1     1     2    1
     2     2     3   ar
     3     3     4   ar
     4     4     5   ar
     5     5     6    1
     6     6     7    1
     7     7     8    2
     8     7     9    1
     9     9    10    1
    10    10    11    1
    11    11    12   ar
    12    12    13   ar
    13    13    14   ar
    14    14    15    1
    15    14    16   ar
    16    16    17   ar
    17    10    18    1
    18    18    19    1
    19    19    20    1
    20    20    21    1
    21    21    22    1
    22    22    23    1
    23    23    24    1
    24     5    25   ar
    25    25    26   ar
    26    26     2   ar
    27    22     9    1
    28    17    11   ar
    29    23    19    1
    30     1    27    1
    31     1    28    1
    32     1    29    1
    33     3    30    1
    34     4    31    1
    35     9    32    1
    36    10    33    1
    37    12    34    1
    38    13    35    1
    39    15    36    1
    40    15    37    1
    41    15    38    1
    42    16    39    1
    43    17    40    1
    44    18    41    1
    45    18    42    1
    46    19    43    1
    47    20    44    1
    48    20    45    1
    49    21    46    1
    50    21    47    1
    51    22    48    1
    52    24    49    1
    53    24    50    1
    54    24    51    1
    55    25    52    1
    56    26    53    1
