
     RDKit          3D

 53 56  0  0  0  0  0  0  0  0999 V2000
    5.9445    3.4834   -0.6370 C   0  0  0  0  0  0  0  0  0  0  0  0
    4.8291    2.5270   -0.4875 C   0  0  0  0  0  0  0  0  0  0  0  0
    4.9104    1.4426    0.3621 C   0  0  0  0  0  0  0  0  0  0  0  0
    3.8405    0.5764    0.4674 C   0  0  0  0  0  0  0  0  0  0  0  0
    2.6686    0.7381   -0.2452 C   0  0  0  0  0  0  0  0  0  0  0  0
    1.6037   -0.1624   -0.1118 O   0  0  0  0  0  0  0  0  0  0  0  0
    0.6023    0.0247    0.8403 C   0  0  0  0  0  0  0  0  0  0  0  0
    0.7156    1.0472    1.5670 O   0  0  0  0  0  0  0  0  0  0  0  0
   -0.5328   -0.9104    1.0024 C   0  0  0  0  0  0  0  0  0  0  0  0
   -1.3608   -1.0234   -0.2597 C   0  0  0  0  0  0  0  0  0  0  0  0
   -2.0633    0.2594   -0.5331 C   0  0  0  0  0  0  0  0  0  0  0  0
   -1.8613    0.9702   -1.7053 C   0  0  0  0  0  0  0  0  0  0  0  0
   -2.5366    2.1615   -1.9196 C   0  0  0  0  0  0  0  0  0  0  0  0
   -3.4130    2.6753   -1.0017 C   0  0  0  0  0  0  0  0  0  0  0  0
   -4.1467    3.9566   -1.2194 C   0  0  0  0  0  0  0  0  0  0  0  0
   -3.6284    1.9745    0.1821 C   0  0  0  0  0  0  0  0  0  0  0  0
   -2.9588    0.8063    0.3793 C   0  0  0  0  0  0  0  0  0  0  0  0
   -2.3980   -2.0832   -0.0759 C   0  0  0  0  0  0  0  0  0  0  0  0
   -1.8399   -3.3642    0.5106 C   0  0  0  0  0  0  0  0  0  0  0  0
   -0.6744   -3.7866   -0.3560 C   0  0  0  0  0  0  0  0  0  0  0  0
    0.4806   -3.0119    0.2341 C   0  0  0  0  0  0  0  0  0  0  0  0
   -0.0885   -2.2949    1.4245 C   0  0  0  0  0  0  0  0  0  0  0  0
   -1.2790   -3.0289    1.7997 N   0  0  0  0  0  0  0  0  0  0  0  0
   -0.9718   -4.1939    2.5955 C   0  0  0  0  0  0  0  0  0  0  0  0
    2.5972    1.8235   -1.0905 C   0  0  0  0  0  0  0  0  0  0  0  0
    3.6598    2.6982   -1.2058 C   0  0  0  0  0  0  0  0  0  0  0  0
    6.6355    3.4360    0.2342 H   0  0  0  0  0  0  0  0  0  0  0  0
    5.5750    4.5494   -0.6517 H   0  0  0  0  0  0  0  0  0  0  0  0
    6.4797    3.2748   -1.5854 H   0  0  0  0  0  0  0  0  0  0  0  0
    5.8230    1.2927    0.9348 H   0  0  0  0  0  0  0  0  0  0  0  0
    3.9211   -0.2684    1.1379 H   0  0  0  0  0  0  0  0  0  0  0  0
   -1.1924   -0.5280    1.7914 H   0  0  0  0  0  0  0  0  0  0  0  0
   -0.7162   -1.2340   -1.1292 H   0  0  0  0  0  0  0  0  0  0  0  0
   -1.1777    0.6030   -2.4602 H   0  0  0  0  0  0  0  0  0  0  0  0
   -2.3792    2.7300   -2.8500 H   0  0  0  0  0  0  0  0  0  0  0  0
   -4.4677    4.3838   -0.2377 H   0  0  0  0  0  0  0  0  0  0  0  0
   -5.0613    3.8221   -1.8191 H   0  0  0  0  0  0  0  0  0  0  0  0
   -3.5049    4.6994   -1.7452 H   0  0  0  0  0  0  0  0  0  0  0  0
   -4.3186    2.3518    0.9365 H   0  0  0  0  0  0  0  0  0  0  0  0
   -3.1524    0.2793    1.3241 H   0  0  0  0  0  0  0  0  0  0  0  0
   -3.1511   -1.7026    0.6521 H   0  0  0  0  0  0  0  0  0  0  0  0
   -2.8778   -2.3418   -1.0527 H   0  0  0  0  0  0  0  0  0  0  0  0
   -2.6370   -4.1090    0.5647 H   0  0  0  0  0  0  0  0  0  0  0  0
   -0.8894   -3.4899   -1.4110 H   0  0  0  0  0  0  0  0  0  0  0  0
   -0.4873   -4.8628   -0.3419 H   0  0  0  0  0  0  0  0  0  0  0  0
    1.2928   -3.7261    0.5153 H   0  0  0  0  0  0  0  0  0  0  0  0
    0.8862   -2.3601   -0.5406 H   0  0  0  0  0  0  0  0  0  0  0  0
    0.6617   -2.2412    2.2351 H   0  0  0  0  0  0  0  0  0  0  0  0
   -1.6642   -4.2022    3.4651 H   0  0  0  0  0  0  0  0  0  0  0  0
    0.0521   -4.0334    3.0213 H   0  0  0  0  0  0  0  0  0  0  0  0
   -1.0234   -5.1243    2.0155 H   0  0  0  0  0  0  0  0  0  0  0  0
    1.6806    1.9510   -1.6486 H   0  0  0  0  0  0  0  0  0  0  0  0
    3.5936    3.5456   -1.8711 H   0  0  0  0  0  0  0  0  0  0  0  0
  1  2  1  0
  2  3  2  0
  3  4  1  0
  4  5  2  0
  5  6  1  0
  6  7  1  0
  7  8  2  0
  7  9  1  0
  9 10  1  0
 10 11  1  0
 11 12  2  0
 12 13  1  0
 13 14  2  0
 14 15  1  0
 14 16  1  0
 16 17  2  0
 10 18  1  0
 18 19  1  0
 19 20  1  0
 20 21  1  0
 21 22  1  0
 22 23  1  0
 23 24  1  0
  5 25  1  0
 25 26  2  0
 26  2  1  0
 22  9  1  0
 17 11  1  0
 23 19  1  0
  1 27  1  0
  1 28  1  0
  1 29  1  0
  3 30  1  0
  4 31  1  0
  9 32  1  0
 10 33  1  0
 12 34  1  0
 13 35  1  0
 15 36  1  0
 15 37  1  0
 15 38  1  0
 16 39  1  0
 17 40  1  0
 18 41  1  0
 18 42  1  0
 19 43  1  0
 20 44  1  0
 20 45  1  0
 21 46  1  0
 21 47  1  0
 22 48  1  0
 24 49  1  0
 24 50  1  0
 24 51  1  0
 25 52  1  0
 26 53  1  0
M  END
$$$$
