
     RDKit          3D

 44 47  0  0  0  0  0  0  0  0999 V2000
    0.6464   -1.3794    1.3981 O   0  0  0  0  0  0  0  0  0  0  0  0
    0.3177   -0.4267    0.6096 C   0  0  0  0  0  0  0  0  0  0  0  0
   -0.9638   -0.3976    0.0138 N   0  0  0  0  0  0  0  0  0  0  0  0
   -1.9213   -1.4369    0.2821 C   0  0  0  0  0  0  0  0  0  0  0  0
   -3.1860   -1.2276   -0.4273 C   0  0  0  0  0  0  0  0  0  0  0  0
   -4.2387   -0.5484    0.0398 N   0  0  0  0  0  0  0  0  0  0  0  0
   -5.2333   -0.5409   -0.8469 C   0  0  0  0  0  0  0  0  0  0  0  0
   -6.5472    0.1029   -0.6909 C   0  0  0  0  0  0  0  0  0  0  0  0
   -7.4965    0.0468   -1.6697 C   0  0  0  0  0  0  0  0  0  0  0  0
   -8.7047    0.6710   -1.4590 C   0  0  0  0  0  0  0  0  0  0  0  0
   -8.9843    1.3522   -0.2860 C   0  0  0  0  0  0  0  0  0  0  0  0
   -8.0310    1.4076    0.6952 C   0  0  0  0  0  0  0  0  0  0  0  0
   -6.8235    0.7770    0.4702 C   0  0  0  0  0  0  0  0  0  0  0  0
   -4.7788   -1.2581   -1.9364 C   0  0  0  0  0  0  0  0  0  0  0  0
   -3.5249   -1.6659   -1.6526 N   0  0  0  0  0  0  0  0  0  0  0  0
    1.3096    0.5436    0.4032 N   0  0  0  0  0  0  0  0  0  0  0  0
    2.5976    0.4754    1.0281 C   0  0  0  0  0  0  0  0  0  0  0  0
    3.1692   -0.2835    1.7954 N   0  0  0  0  0  0  0  0  0  0  0  0
    4.3711   -0.1667    2.2572 C   0  0  0  0  0  0  0  0  0  0  0  0
    5.0972    0.9254    1.8494 C   0  0  0  0  0  0  0  0  0  0  0  0
    6.7229    1.4945    2.1976 S   0  0  0  0  0  0  0  0  0  0  0  0
    7.9366    0.8756    1.0782 C   0  0  0  0  0  0  0  0  0  0  0  0
    7.6228    0.0294    0.0379 C   0  0  0  0  0  0  0  0  0  0  0  0
    8.5886   -0.4443   -0.8279 C   0  0  0  0  0  0  0  0  0  0  0  0
    9.8892   -0.0418   -0.6191 C   0  0  0  0  0  0  0  0  0  0  0  0
   10.1853    0.7992    0.4187 C   0  0  0  0  0  0  0  0  0  0  0  0
    9.2175    1.2373    1.2380 N   0  0  0  0  0  0  0  0  0  0  0  0
    3.8819    1.7600    0.7418 S   0  0  0  0  0  0  0  0  0  0  0  0
   -1.2245    0.3728   -0.6215 H   0  0  0  0  0  0  0  0  0  0  0  0
   -2.0586   -1.4668    1.3935 H   0  0  0  0  0  0  0  0  0  0  0  0
   -1.4535   -2.4294    0.0291 H   0  0  0  0  0  0  0  0  0  0  0  0
   -7.2575   -0.4892   -2.5755 H   0  0  0  0  0  0  0  0  0  0  0  0
   -9.4696    0.6288   -2.2414 H   0  0  0  0  0  0  0  0  0  0  0  0
   -9.9383    1.8446   -0.1203 H   0  0  0  0  0  0  0  0  0  0  0  0
   -8.1591    1.9172    1.6463 H   0  0  0  0  0  0  0  0  0  0  0  0
   -6.0382    0.8038    1.2390 H   0  0  0  0  0  0  0  0  0  0  0  0
   -5.3760   -1.4207   -2.8188 H   0  0  0  0  0  0  0  0  0  0  0  0
   -2.9443   -2.2289   -2.3047 H   0  0  0  0  0  0  0  0  0  0  0  0
    1.0916    1.3531   -0.2392 H   0  0  0  0  0  0  0  0  0  0  0  0
    4.8318   -0.8920    2.9520 H   0  0  0  0  0  0  0  0  0  0  0  0
    6.6065   -0.3012   -0.1464 H   0  0  0  0  0  0  0  0  0  0  0  0
    8.3615   -1.1111   -1.6526 H   0  0  0  0  0  0  0  0  0  0  0  0
   10.6901   -0.3880   -1.2755 H   0  0  0  0  0  0  0  0  0  0  0  0
   11.2189    1.1287    0.5973 H   0  0  0  0  0  0  0  0  0  0  0  0
  1  2  2  0
  2  3  1  0
  3  4  1  0
  4  5  1  0
  5  6  2  0
  6  7  1  0
  7  8  1  0
  8  9  2  0
  9 10  1  0
 10 11  2  0
 11 12  1  0
 12 13  2  0
  7 14  2  0
 14 15  1  0
  2 16  1  0
 16 17  1  0
 17 18  2  0
 18 19  1  0
 19 20  2  0
 20 21  1  0
 21 22  1  0
 22 23  2  0
 23 24  1  0
 24 25  2  0
 25 26  1  0
 26 27  2  0
 20 28  1  0
 15  5  1  0
 28 17  1  0
 13  8  1  0
 27 22  1  0
  3 29  1  0
  4 30  1  0
  4 31  1  0
  9 32  1  0
 10 33  1  0
 11 34  1  0
 12 35  1  0
 13 36  1  0
 14 37  1  0
 15 38  1  0
 16 39  1  0
 19 40  1  0
 23 41  1  0
 24 42  1  0
 25 43  1  0
 26 44  1  0
M  END
$$$$
