@<TRIPOS>MOLECULE
*****
 44 47 0 0 0
SMALL
GASTEIGER

@<TRIPOS>ATOM
      1 O           0.6464   -1.3794    1.3981 O.2     1  UNL1       -0.2524
      2 C           0.3177   -0.4267    0.6096 C.2     1  UNL1        0.3057
      3 N          -0.9638   -0.3976    0.0138 N.am    1  UNL1       -0.2920
      4 C          -1.9213   -1.4369    0.2821 C.3     1  UNL1        0.0711
      5 C          -3.1860   -1.2276   -0.4273 C.ar    1  UNL1        0.1251
      6 N          -4.2387   -0.5484    0.0398 N.ar    1  UNL1       -0.2309
      7 C          -5.2333   -0.5409   -0.8469 C.ar    1  UNL1        0.0889
      8 C          -6.5472    0.1029   -0.6909 C.ar    1  UNL1        0.0018
      9 C          -7.4965    0.0468   -1.6697 C.ar    1  UNL1       -0.0525
     10 C          -8.7047    0.6710   -1.4590 C.ar    1  UNL1       -0.0611
     11 C          -8.9843    1.3522   -0.2860 C.ar    1  UNL1       -0.0617
     12 C          -8.0310    1.4076    0.6952 C.ar    1  UNL1       -0.0611
     13 C          -6.8235    0.7770    0.4702 C.ar    1  UNL1       -0.0525
     14 C          -4.7788   -1.2581   -1.9364 C.ar    1  UNL1        0.0293
     15 N          -3.5249   -1.6659   -1.6526 N.ar    1  UNL1       -0.3464
     16 N           1.3096    0.5436    0.4032 N.am    1  UNL1       -0.2485
     17 C           2.5976    0.4754    1.0281 C.ar    1  UNL1        0.1666
     18 N           3.1692   -0.2835    1.7954 N.ar    1  UNL1       -0.2318
     19 C           4.3711   -0.1667    2.2572 C.ar    1  UNL1        0.0507
     20 C           5.0972    0.9254    1.8494 C.ar    1  UNL1        0.0724
     21 S           6.7229    1.4945    2.1976 S.3     1  UNL1       -0.0611
     22 C           7.9366    0.8756    1.0782 C.ar    1  UNL1        0.1020
     23 C           7.6228    0.0294    0.0379 C.ar    1  UNL1       -0.0295
     24 C           8.5886   -0.4443   -0.8279 C.ar    1  UNL1       -0.0578
     25 C           9.8892   -0.0418   -0.6191 C.ar    1  UNL1       -0.0435
     26 C          10.1853    0.7992    0.4187 C.ar    1  UNL1        0.0288
     27 N           9.2175    1.2373    1.2380 N.ar    1  UNL1       -0.2484
     28 S           3.8819    1.7600    0.7418 S.2     1  UNL1       -0.0454
     29 H          -1.2245    0.3728   -0.6215 H       1  UNL1        0.1507
     30 H          -2.0586   -1.4668    1.3935 H       1  UNL1        0.0543
     31 H          -1.4535   -2.4294    0.0291 H       1  UNL1        0.0543
     32 H          -7.2575   -0.4892   -2.5755 H       1  UNL1        0.0624
     33 H          -9.4696    0.6288   -2.2414 H       1  UNL1        0.0618
     34 H          -9.9383    1.8446   -0.1203 H       1  UNL1        0.0618
     35 H          -8.1591    1.9172    1.6463 H       1  UNL1        0.0618
     36 H          -6.0382    0.8038    1.2390 H       1  UNL1        0.0624
     37 H          -5.3760   -1.4207   -2.8188 H       1  UNL1        0.0829
     38 H          -2.9443   -2.2289   -2.3047 H       1  UNL1        0.1666
     39 H           1.0916    1.3531   -0.2392 H       1  UNL1        0.1583
     40 H           4.8318   -0.8920    2.9520 H       1  UNL1        0.0847
     41 H           6.6065   -0.3012   -0.1464 H       1  UNL1        0.0644
     42 H           8.3615   -1.1111   -1.6526 H       1  UNL1        0.0619
     43 H          10.6901   -0.3880   -1.2755 H       1  UNL1        0.0633
     44 H          11.2189    1.1287    0.5973 H       1  UNL1        0.0830
@<TRIPOS>BOND
     1     1     2    2
     2     2     3   am
     3     3     4    1
     4     4     5    1
     5     5     6   ar
     6     6     7   ar
     7     7     8    1
     8     8     9   ar
     9     9    10   ar
    10    10    11   ar
    11    11    12   ar
    12    12    13   ar
    13     7    14   ar
    14    14    15   ar
    15     2    16   am
    16    16    17    1
    17    17    18   ar
    18    18    19   ar
    19    19    20   ar
    20    20    21    1
    21    21    22    1
    22    22    23   ar
    23    23    24   ar
    24    24    25   ar
    25    25    26   ar
    26    26    27   ar
    27    20    28   ar
    28    15     5   ar
    29    28    17   ar
    30    13     8   ar
    31    27    22   ar
    32     3    29    1
    33     4    30    1
    34     4    31    1
    35     9    32    1
    36    10    33    1
    37    11    34    1
    38    12    35    1
    39    13    36    1
    40    14    37    1
    41    15    38    1
    42    16    39    1
    43    19    40    1
    44    23    41    1
    45    24    42    1
    46    25    43    1
    47    26    44    1
