
     RDKit          3D

 69 71  0  0  0  0  0  0  0  0999 V2000
    6.2795   -0.8689   -0.3842 C   0  0  0  0  0  0  0  0  0  0  0  0
    5.2890    0.0958   -0.7428 N   0  0  0  0  0  0  0  0  0  0  0  0
    5.1719    0.2641   -2.1808 C   0  0  0  0  0  0  0  0  0  0  0  0
    5.4129    1.3411   -0.0499 C   0  0  0  0  0  0  0  0  0  0  0  0
    5.0847    1.2038    1.3904 C   0  0  0  0  0  0  0  0  0  0  0  0
    3.7600    0.7626    1.7024 N   0  0  0  0  0  0  0  0  0  0  0  0
    2.7841    1.8161    1.8128 C   0  0  0  0  0  0  0  0  0  0  0  0
    1.6742    1.7447    0.8351 C   0  0  0  0  0  0  0  0  0  0  0  0
    0.8898    0.4819    0.9398 N   0  0  0  0  0  0  0  0  0  0  0  0
   -0.0259    0.3683   -0.0717 C   0  0  0  0  0  0  0  0  0  0  0  0
   -0.0542    1.4018   -0.8874 O   0  0  0  0  0  0  0  0  0  0  0  0
   -0.9868   -0.7239   -0.3901 C   0  0  0  0  0  0  0  0  0  0  0  0
   -0.9505   -1.9949    0.0573 C   0  0  0  0  0  0  0  0  0  0  0  0
   -1.8721   -2.8883   -0.3563 C   0  0  0  0  0  0  0  0  0  0  0  0
   -2.0714   -4.3226   -0.0354 C   0  0  0  0  0  0  0  0  0  0  0  0
   -2.9619   -4.5022    1.1749 C   0  0  0  0  0  0  0  0  0  0  0  0
   -2.7469   -4.9960   -1.2070 C   0  0  0  0  0  0  0  0  0  0  0  0
   -0.7369   -4.9309    0.2365 C   0  0  0  0  0  0  0  0  0  0  0  0
   -2.9071   -1.9953   -1.4490 S   0  0  0  0  0  0  0  0  0  0  0  0
   -2.0031   -0.4134   -1.2764 C   0  0  0  0  0  0  0  0  0  0  0  0
   -2.3743    0.7591   -1.9454 N   0  0  0  0  0  0  0  0  0  0  0  0
   -3.3009    1.6274   -1.2843 C   0  0  0  0  0  0  0  0  0  0  0  0
   -3.7484    1.3078   -0.1296 O   0  0  0  0  0  0  0  0  0  0  0  0
   -3.7665    2.8467   -1.8373 N   0  0  0  0  0  0  0  0  0  0  0  0
   -4.6922    3.6771   -1.1360 C   0  0  0  0  0  0  0  0  0  0  0  0
   -4.2437    4.6609   -0.2782 C   0  0  0  0  0  0  0  0  0  0  0  0
   -5.1508    5.4734    0.4071 C   0  0  0  0  0  0  0  0  0  0  0  0
   -6.5063    5.2862    0.2204 C   0  0  0  0  0  0  0  0  0  0  0  0
   -6.9561    4.2990   -0.6408 C   0  0  0  0  0  0  0  0  0  0  0  0
   -8.6699    4.0325   -0.9014 Cl  0  0  0  0  0  0  0  0  0  0  0  0
   -6.0397    3.5033   -1.3109 C   0  0  0  0  0  0  0  0  0  0  0  0
   -6.5687    2.2394   -2.4104 Cl  0  0  0  0  0  0  0  0  0  0  0  0
    1.0541   -0.4417    1.9904 C   0  0  0  0  0  0  0  0  0  0  0  0
    2.2163   -1.3735    1.6895 C   0  0  0  0  0  0  0  0  0  0  0  0
    3.5148   -0.6242    1.8646 C   0  0  0  0  0  0  0  0  0  0  0  0
    4.4587   -1.3713    2.1960 O   0  0  0  0  0  0  0  0  0  0  0  0
    6.7548   -0.6603    0.6075 H   0  0  0  0  0  0  0  0  0  0  0  0
    5.8901   -1.9288   -0.4060 H   0  0  0  0  0  0  0  0  0  0  0  0
    7.0766   -0.8506   -1.1807 H   0  0  0  0  0  0  0  0  0  0  0  0
    4.6458    1.1746   -2.4737 H   0  0  0  0  0  0  0  0  0  0  0  0
    4.6963   -0.6276   -2.6356 H   0  0  0  0  0  0  0  0  0  0  0  0
    6.2345    0.2619   -2.5669 H   0  0  0  0  0  0  0  0  0  0  0  0
    4.8571    2.1400   -0.5701 H   0  0  0  0  0  0  0  0  0  0  0  0
    6.4973    1.6441   -0.1601 H   0  0  0  0  0  0  0  0  0  0  0  0
    5.7864    0.5472    1.9474 H   0  0  0  0  0  0  0  0  0  0  0  0
    5.2034    2.2222    1.8708 H   0  0  0  0  0  0  0  0  0  0  0  0
    3.2733    2.8162    1.6731 H   0  0  0  0  0  0  0  0  0  0  0  0
    2.3552    1.8808    2.8470 H   0  0  0  0  0  0  0  0  0  0  0  0
    0.9552    2.5542    1.0382 H   0  0  0  0  0  0  0  0  0  0  0  0
    2.0268    1.8701   -0.2120 H   0  0  0  0  0  0  0  0  0  0  0  0
   -0.1625   -2.3923    0.7568 H   0  0  0  0  0  0  0  0  0  0  0  0
   -2.4285   -4.2753    2.1078 H   0  0  0  0  0  0  0  0  0  0  0  0
   -3.3146   -5.5540    1.1815 H   0  0  0  0  0  0  0  0  0  0  0  0
   -3.9015   -3.8908    1.0503 H   0  0  0  0  0  0  0  0  0  0  0  0
   -2.7778   -4.3075   -2.1020 H   0  0  0  0  0  0  0  0  0  0  0  0
   -3.7591   -5.3553   -0.9445 H   0  0  0  0  0  0  0  0  0  0  0  0
   -2.1761   -5.9020   -1.5206 H   0  0  0  0  0  0  0  0  0  0  0  0
    0.0187   -4.6714   -0.5443 H   0  0  0  0  0  0  0  0  0  0  0  0
   -0.7806   -6.0603    0.2498 H   0  0  0  0  0  0  0  0  0  0  0  0
   -0.3590   -4.6338    1.2362 H   0  0  0  0  0  0  0  0  0  0  0  0
   -2.0367    1.0555   -2.8798 H   0  0  0  0  0  0  0  0  0  0  0  0
   -3.4346    3.1514   -2.7660 H   0  0  0  0  0  0  0  0  0  0  0  0
   -3.1893    4.8203   -0.1215 H   0  0  0  0  0  0  0  0  0  0  0  0
   -4.8568    6.2455    1.0797 H   0  0  0  0  0  0  0  0  0  0  0  0
   -7.2511    5.8844    0.7240 H   0  0  0  0  0  0  0  0  0  0  0  0
    1.4161    0.0975    2.9496 H   0  0  0  0  0  0  0  0  0  0  0  0
    0.2086   -1.0016    2.3516 H   0  0  0  0  0  0  0  0  0  0  0  0
    2.1403   -1.7756    0.6611 H   0  0  0  0  0  0  0  0  0  0  0  0
    2.1360   -2.2248    2.3850 H   0  0  0  0  0  0  0  0  0  0  0  0
  1  2  1  0
  2  3  1  0
  2  4  1  0
  4  5  1  0
  5  6  1  0
  6  7  1  0
  7  8  1  0
  8  9  1  0
  9 10  1  0
 10 11  2  0
 10 12  1  0
 12 13  1  0
 13 14  2  0
 14 15  1  0
 15 16  1  0
 15 17  1  0
 15 18  1  0
 14 19  1  0
 19 20  1  0
 20 21  1  0
 21 22  1  0
 22 23  2  0
 22 24  1  0
 24 25  1  0
 25 26  2  0
 26 27  1  0
 27 28  2  0
 28 29  1  0
 29 30  1  0
 29 31  2  0
 31 32  1  0
  9 33  1  0
 33 34  1  0
 34 35  1  0
 35 36  2  0
 35  6  1  0
 20 12  2  0
 31 25  1  0
  1 37  1  0
  1 38  1  0
  1 39  1  0
  3 40  1  0
  3 41  1  0
  3 42  1  0
  4 43  1  0
  4 44  1  0
  5 45  1  0
  5 46  1  0
  7 47  1  0
  7 48  1  0
  8 49  1  0
  8 50  1  0
 13 51  1  0
 16 52  1  0
 16 53  1  0
 16 54  1  0
 17 55  1  0
 17 56  1  0
 17 57  1  0
 18 58  1  0
 18 59  1  0
 18 60  1  0
 21 61  1  0
 24 62  1  0
 26 63  1  0
 27 64  1  0
 28 65  1  0
 33 66  1  0
 33 67  1  0
 34 68  1  0
 34 69  1  0
M  END
$$$$
