@<TRIPOS>MOLECULE
*****
 69 71 0 0 0
SMALL
GASTEIGER

@<TRIPOS>ATOM
      1 C           6.2795   -0.8689   -0.3842 C.3     1  UNL1       -0.0130
      2 N           5.2890    0.0958   -0.7428 N.3     1  UNL1       -0.3069
      3 C           5.1719    0.2641   -2.1808 C.3     1  UNL1       -0.0130
      4 C           5.4129    1.3411   -0.0499 C.3     1  UNL1        0.0141
      5 C           5.0847    1.2038    1.3904 C.3     1  UNL1        0.0275
      6 N           3.7600    0.7626    1.7024 N.am    1  UNL1       -0.2987
      7 C           2.7841    1.8161    1.8128 C.3     1  UNL1        0.0305
      8 C           1.6742    1.7447    0.8351 C.3     1  UNL1        0.0308
      9 N           0.8898    0.4819    0.9398 N.am    1  UNL1       -0.2955
     10 C          -0.0259    0.3683   -0.0717 C.2     1  UNL1        0.2490
     11 O          -0.0542    1.4018   -0.8874 O.2     1  UNL1       -0.2699
     12 C          -0.9868   -0.7239   -0.3901 C.ar    1  UNL1        0.0657
     13 C          -0.9505   -1.9949    0.0573 C.ar    1  UNL1       -0.0370
     14 C          -1.8721   -2.8883   -0.3563 C.ar    1  UNL1       -0.0023
     15 C          -2.0714   -4.3226   -0.0354 C.3     1  UNL1       -0.0064
     16 C          -2.9619   -4.5022    1.1749 C.3     1  UNL1       -0.0556
     17 C          -2.7469   -4.9960   -1.2070 C.3     1  UNL1       -0.0556
     18 C          -0.7369   -4.9309    0.2365 C.3     1  UNL1       -0.0556
     19 S          -2.9071   -1.9953   -1.4490 S.2     1  UNL1       -0.0771
     20 C          -2.0031   -0.4134   -1.2764 C.ar    1  UNL1        0.0853
     21 N          -2.3743    0.7591   -1.9454 N.am    1  UNL1       -0.2629
     22 C          -3.3009    1.6274   -1.2843 C.2     1  UNL1        0.3085
     23 O          -3.7484    1.3078   -0.1296 O.2     1  UNL1       -0.2521
     24 N          -3.7665    2.8467   -1.8373 N.am    1  UNL1       -0.2678
     25 C          -4.6922    3.6771   -1.1360 C.ar    1  UNL1        0.0546
     26 C          -4.2437    4.6609   -0.2782 C.ar    1  UNL1       -0.0389
     27 C          -5.1508    5.4734    0.4071 C.ar    1  UNL1       -0.0585
     28 C          -6.5063    5.2862    0.2204 C.ar    1  UNL1       -0.0419
     29 C          -6.9561    4.2990   -0.6408 C.ar    1  UNL1        0.0610
     30 CL         -8.6699    4.0325   -0.9014 Cl      1  UNL1       -0.0820
     31 C          -6.0397    3.5033   -1.3109 C.ar    1  UNL1        0.0804
     32 CL         -6.5687    2.2394   -2.4104 Cl      1  UNL1       -0.0801
     33 C           1.0541   -0.4417    1.9904 C.3     1  UNL1        0.0233
     34 C           2.2163   -1.3735    1.6895 C.3     1  UNL1        0.0399
     35 C           3.5148   -0.6242    1.8646 C.2     1  UNL1        0.2171
     36 O           4.4587   -1.3713    2.1960 O.2     1  UNL1       -0.2755
     37 H           6.7548   -0.6603    0.6075 H       1  UNL1        0.0391
     38 H           5.8901   -1.9288   -0.4060 H       1  UNL1        0.0391
     39 H           7.0766   -0.8506   -1.1807 H       1  UNL1        0.0391
     40 H           4.6458    1.1746   -2.4737 H       1  UNL1        0.0391
     41 H           4.6963   -0.6276   -2.6356 H       1  UNL1        0.0391
     42 H           6.2345    0.2619   -2.5669 H       1  UNL1        0.0391
     43 H           4.8571    2.1400   -0.5701 H       1  UNL1        0.0442
     44 H           6.4973    1.6441   -0.1601 H       1  UNL1        0.0442
     45 H           5.7864    0.5472    1.9474 H       1  UNL1        0.0477
     46 H           5.2034    2.2222    1.8708 H       1  UNL1        0.0477
     47 H           3.2733    2.8162    1.6731 H       1  UNL1        0.0480
     48 H           2.3552    1.8808    2.8470 H       1  UNL1        0.0480
     49 H           0.9552    2.5542    1.0382 H       1  UNL1        0.0480
     50 H           2.0268    1.8701   -0.2120 H       1  UNL1        0.0480
     51 H          -0.1625   -2.3923    0.7568 H       1  UNL1        0.0634
     52 H          -2.4285   -4.2753    2.1078 H       1  UNL1        0.0238
     53 H          -3.3146   -5.5540    1.1815 H       1  UNL1        0.0238
     54 H          -3.9015   -3.8908    1.0503 H       1  UNL1        0.0238
     55 H          -2.7778   -4.3075   -2.1020 H       1  UNL1        0.0238
     56 H          -3.7591   -5.3553   -0.9445 H       1  UNL1        0.0238
     57 H          -2.1761   -5.9020   -1.5206 H       1  UNL1        0.0238
     58 H           0.0187   -4.6714   -0.5443 H       1  UNL1        0.0238
     59 H          -0.7806   -6.0603    0.2498 H       1  UNL1        0.0238
     60 H          -0.3590   -4.6338    1.2362 H       1  UNL1        0.0238
     61 H          -2.0367    1.0555   -2.8798 H       1  UNL1        0.1569
     62 H          -3.4346    3.1514   -2.7660 H       1  UNL1        0.1564
     63 H          -3.1893    4.8203   -0.1215 H       1  UNL1        0.0637
     64 H          -4.8568    6.2455    1.0797 H       1  UNL1        0.0619
     65 H          -7.2511    5.8844    0.7240 H       1  UNL1        0.0633
     66 H           1.4161    0.0975    2.9496 H       1  UNL1        0.0469
     67 H           0.2086   -1.0016    2.3516 H       1  UNL1        0.0469
     68 H           2.1403   -1.7756    0.6611 H       1  UNL1        0.0374
     69 H           2.1360   -2.2248    2.3850 H       1  UNL1        0.0374
@<TRIPOS>BOND
     1     1     2    1
     2     2     3    1
     3     2     4    1
     4     4     5    1
     5     5     6    1
     6     6     7    1
     7     7     8    1
     8     8     9    1
     9     9    10   am
    10    10    11    2
    11    10    12    1
    12    12    13   ar
    13    13    14   ar
    14    14    15    1
    15    15    16    1
    16    15    17    1
    17    15    18    1
    18    14    19   ar
    19    19    20   ar
    20    20    21    1
    21    21    22   am
    22    22    23    2
    23    22    24   am
    24    24    25    1
    25    25    26   ar
    26    26    27   ar
    27    27    28   ar
    28    28    29   ar
    29    29    30    1
    30    29    31   ar
    31    31    32    1
    32     9    33    1
    33    33    34    1
    34    34    35    1
    35    35    36    2
    36    35     6   am
    37    20    12   ar
    38    31    25   ar
    39     1    37    1
    40     1    38    1
    41     1    39    1
    42     3    40    1
    43     3    41    1
    44     3    42    1
    45     4    43    1
    46     4    44    1
    47     5    45    1
    48     5    46    1
    49     7    47    1
    50     7    48    1
    51     8    49    1
    52     8    50    1
    53    13    51    1
    54    16    52    1
    55    16    53    1
    56    16    54    1
    57    17    55    1
    58    17    56    1
    59    17    57    1
    60    18    58    1
    61    18    59    1
    62    18    60    1
    63    21    61    1
    64    24    62    1
    65    26    63    1
    66    27    64    1
    67    28    65    1
    68    33    66    1
    69    33    67    1
    70    34    68    1
    71    34    69    1
