@<TRIPOS>MOLECULE
*****
 86 91 0 0 0
SMALL
GASTEIGER

@<TRIPOS>ATOM
      1 C         -11.0435   -2.2449   -0.6230 C.3     1  UNL1       -0.0394
      2 C          -9.7948   -1.4676   -0.4394 C.ar    1  UNL1       -0.0454
      3 C          -9.6070   -0.2667   -1.1266 C.ar    1  UNL1       -0.0311
      4 C          -8.4488    0.4501   -0.9534 C.ar    1  UNL1        0.0886
      5 C          -7.4427    0.0239   -0.1115 C.ar    1  UNL1        0.0694
      6 C          -7.5984   -1.1518    0.5772 C.ar    1  UNL1       -0.0329
      7 C          -8.7729   -1.8636    0.3917 C.ar    1  UNL1       -0.0455
      8 C          -8.9462   -3.1432    1.1392 C.3     1  UNL1       -0.0394
      9 N          -6.2986    0.6925    0.0886 N.ar    1  UNL1       -0.3195
     10 C          -5.2067    0.3153    0.9313 C.3     1  UNL1        0.0538
     11 C          -4.1557   -0.5022    0.2140 C.3     1  UNL1        0.1014
     12 O          -4.6249   -1.6771   -0.3087 O.3     1  UNL1       -0.3874
     13 C          -2.9473   -0.6641    1.1259 C.3     1  UNL1        0.1106
     14 O          -2.6469    0.6556    1.5390 O.3     1  UNL1       -0.3865
     15 C          -1.8213   -1.1453    0.2366 C.3     1  UNL1        0.1073
     16 O          -2.1240   -2.4453   -0.1636 O.3     1  UNL1       -0.3868
     17 C          -0.5042   -1.1846    0.9668 C.3     1  UNL1        0.0875
     18 O          -0.1032    0.0631    1.4124 O.3     1  UNL1       -0.2837
     19 P           1.3698    0.0942    2.1877 P.3     1  UNL1        0.4835
     20 O           1.3042    1.2523    3.4196 O.3     1  UNL1       -0.3022
     21 O           2.4953    0.5544    1.2598 O.2     1  UNL1       -0.2269
     22 O           1.8681   -1.4172    2.7681 O.3     1  UNL1       -0.1861
     23 P           3.5463   -1.4882    2.9397 P.3     1  UNL1        0.4835
     24 O           4.0065   -1.0529    4.5272 O.3     1  UNL1       -0.3022
     25 O           3.9542   -2.9331    2.7609 O.2     1  UNL1       -0.2269
     26 O           4.3487   -0.5724    1.7997 O.3     1  UNL1       -0.2837
     27 C           4.7153   -1.2343    0.6551 C.3     1  UNL1        0.0879
     28 C           5.4349   -0.3304   -0.3056 C.3     1  UNL1        0.1134
     29 O           6.6013    0.2076    0.2354 O.3     1  UNL1       -0.3456
     30 C           7.0369    0.9384   -0.8794 C.3     1  UNL1        0.1667
     31 C           6.9328   -0.0010   -2.0578 C.3     1  UNL1        0.1285
     32 O           6.2130    0.6144   -3.0929 O.3     1  UNL1       -0.3847
     33 C           6.0060   -1.0803   -1.4867 C.3     1  UNL1        0.1135
     34 O           5.0247   -1.4600   -2.3688 O.3     1  UNL1       -0.3864
     35 N           8.3516    1.5025   -0.7056 N.ar    1  UNL1       -0.2855
     36 C           8.6779    2.7174   -1.1548 C.ar    1  UNL1        0.1004
     37 N           9.9716    2.9473   -0.8345 N.ar    1  UNL1       -0.2306
     38 C          10.4508    1.8726   -0.1846 C.ar    1  UNL1        0.1473
     39 C           9.4098    0.9699   -0.1136 C.ar    1  UNL1        0.1674
     40 N           9.6488   -0.1965    0.4995 N.ar    1  UNL1       -0.2159
     41 C          10.8829   -0.4397    1.0170 C.ar    1  UNL1        0.1205
     42 N          11.8830    0.4546    0.9364 N.ar    1  UNL1       -0.2188
     43 C          11.7225    1.6644    0.3293 C.ar    1  UNL1        0.1472
     44 N          12.7572    2.6271    0.2287 N.pl3   1  UNL1       -0.3413
     45 C          -6.1988    1.8567   -0.6190 C.ar    1  UNL1        0.1705
     46 N          -5.0823    2.5922   -0.4785 N.ar    1  UNL1       -0.1733
     47 C          -4.9447    3.7412   -1.1559 C.ar    1  UNL1        0.3505
     48 O          -3.8828    4.3988   -0.9948 O.2     1  UNL1       -0.2446
     49 N          -5.8653    4.2385   -1.9962 N.ar    1  UNL1       -0.2717
     50 C          -7.0099    3.5650   -2.1930 C.ar    1  UNL1        0.2817
     51 O          -7.9174    3.9678   -2.9640 O.2     1  UNL1       -0.2653
     52 C          -7.2163    2.3757   -1.5276 C.ar    1  UNL1        0.1712
     53 N          -8.3284    1.6031   -1.6422 N.ar    1  UNL1       -0.2368
     54 H         -11.6202   -1.7982   -1.4555 H       1  UNL1        0.0278
     55 H         -11.6834   -2.2456    0.2718 H       1  UNL1        0.0278
     56 H         -10.8151   -3.2873   -0.9650 H       1  UNL1        0.0278
     57 H         -10.4018    0.0645   -1.7881 H       1  UNL1        0.0642
     58 H          -6.8593   -1.5245    1.2398 H       1  UNL1        0.0641
     59 H          -9.6153   -2.9735    2.0112 H       1  UNL1        0.0278
     60 H          -7.9561   -3.5204    1.4622 H       1  UNL1        0.0278
     61 H          -9.4644   -3.8456    0.4834 H       1  UNL1        0.0278
     62 H          -5.4841   -0.1807    1.8744 H       1  UNL1        0.0519
     63 H          -4.6758    1.2604    1.2593 H       1  UNL1        0.0519
     64 H          -3.7571    0.0866   -0.6645 H       1  UNL1        0.0638
     65 H          -4.9747   -1.6186   -1.2198 H       1  UNL1        0.2100
     66 H          -3.1054   -1.3490    1.9591 H       1  UNL1        0.0646
     67 H          -3.0401    0.7469    2.4485 H       1  UNL1        0.2100
     68 H          -1.8033   -0.4364   -0.6228 H       1  UNL1        0.0643
     69 H          -1.3178   -2.9581   -0.3843 H       1  UNL1        0.2100
     70 H          -0.6558   -1.8009    1.8860 H       1  UNL1        0.0592
     71 H           0.2984   -1.6461    0.3897 H       1  UNL1        0.0592
     72 H           2.2294    1.5396    3.6338 H       1  UNL1        0.2220
     73 H           3.3839   -1.4878    5.1329 H       1  UNL1        0.2220
     74 H           5.3337   -2.0870    0.9336 H       1  UNL1        0.0592
     75 H           3.7955   -1.6247    0.1745 H       1  UNL1        0.0592
     76 H           4.8326    0.4990   -0.6703 H       1  UNL1        0.0647
     77 H           6.2552    1.7397   -1.0042 H       1  UNL1        0.0866
     78 H           7.8861   -0.4092   -2.4015 H       1  UNL1        0.0665
     79 H           5.2800    0.6830   -2.7700 H       1  UNL1        0.2101
     80 H           6.6628   -1.9125   -1.1703 H       1  UNL1        0.0647
     81 H           5.3861   -1.9971   -3.0937 H       1  UNL1        0.2100
     82 H           8.1338    3.4888   -1.6871 H       1  UNL1        0.1030
     83 H          11.0424   -1.4025    1.5104 H       1  UNL1        0.1048
     84 H          12.9040    3.5181    0.7842 H       1  UNL1        0.1438
     85 H          13.4141    2.3495   -0.5068 H       1  UNL1        0.1438
     86 H          -5.6893    5.1355   -2.4868 H       1  UNL1        0.1735
@<TRIPOS>BOND
     1     1     2    1
     2     2     3   ar
     3     3     4   ar
     4     4     5   ar
     5     5     6   ar
     6     6     7   ar
     7     7     8    1
     8     5     9   ar
     9     9    10    1
    10    10    11    1
    11    11    12    1
    12    11    13    1
    13    13    14    1
    14    13    15    1
    15    15    16    1
    16    15    17    1
    17    17    18    1
    18    19    18    1
    19    19    20    1
    20    19    21    2
    21    19    22    1
    22    23    22    1
    23    23    24    1
    24    23    25    2
    25    23    26    1
    26    26    27    1
    27    27    28    1
    28    28    29    1
    29    29    30    1
    30    30    31    1
    31    31    32    1
    32    31    33    1
    33    33    34    1
    34    30    35    1
    35    35    36   ar
    36    36    37   ar
    37    37    38   ar
    38    38    39   ar
    39    39    40   ar
    40    40    41   ar
    41    41    42   ar
    42    42    43   ar
    43    43    44    1
    44     9    45   ar
    45    45    46   ar
    46    46    47   ar
    47    47    48    2
    48    47    49   ar
    49    49    50   ar
    50    50    51    2
    51    50    52   ar
    52    52    53   ar
    53     7     2   ar
    54    33    28    1
    55    39    35   ar
    56    52    45    1
    57    53     4   ar
    58    43    38   ar
    59     1    54    1
    60     1    55    1
    61     1    56    1
    62     3    57    1
    63     6    58    1
    64     8    59    1
    65     8    60    1
    66     8    61    1
    67    10    62    1
    68    10    63    1
    69    11    64    1
    70    12    65    1
    71    13    66    1
    72    14    67    1
    73    15    68    1
    74    16    69    1
    75    17    70    1
    76    17    71    1
    77    20    72    1
    78    24    73    1
    79    27    74    1
    80    27    75    1
    81    28    76    1
    82    30    77    1
    83    31    78    1
    84    32    79    1
    85    33    80    1
    86    34    81    1
    87    36    82    1
    88    41    83    1
    89    44    84    1
    90    44    85    1
    91    49    86    1
