
     RDKit          3D

 32 34  0  0  0  0  0  0  0  0999 V2000
    0.6646    1.5104    0.3862 C   0  0  0  0  0  0  0  0  0  0  0  0
    0.2401    0.1789   -0.1550 C   0  0  2  0  0  0  0  0  0  0  0  0
    1.1949   -0.4636   -1.0670 C   0  0  0  0  0  0  0  0  0  0  0  0
    2.4915   -0.7617   -0.5694 N   0  0  0  0  0  0  0  0  0  0  0  0
    2.9655   -1.8664    0.0419 C   0  0  0  0  0  0  0  0  0  0  0  0
    4.2863   -1.6101    0.3086 C   0  0  0  0  0  0  0  0  0  0  0  0
    4.5564   -0.3841   -0.1424 N   0  0  0  0  0  0  0  0  0  0  0  0
    3.4745    0.1233   -0.6700 N   0  0  0  0  0  0  0  0  0  0  0  0
   -1.0350    0.3939   -0.9305 C   0  0  2  0  0  0  0  0  0  0  0  0
   -1.0350    1.8221   -1.4179 C   0  0  0  0  0  0  0  0  0  0  0  0
   -0.1328    2.2822   -2.1581 O   0  0  0  0  0  0  0  0  0  0  0  0
   -2.0602    2.6771   -1.0468 O   0  0  0  0  0  0  0  0  0  0  0  0
   -2.1628    0.1903   -0.1411 N   0  0  0  0  0  0  0  0  0  0  0  0
   -3.5166    0.0903    0.2086 C   0  0  0  0  0  0  0  0  0  0  0  0
   -4.5654    0.6756   -0.0871 O   0  0  0  0  0  0  0  0  0  0  0  0
   -3.1212   -1.0365    1.0947 C   0  0  0  0  0  0  0  0  0  0  0  0
   -1.9294   -0.1584    1.2534 C   0  0  1  0  0  0  0  0  0  0  0  0
   -0.3288   -0.9115    1.1412 S   0  0  0  0  0  6  0  0  0  0  0  0
    0.3634   -0.6862    2.4257 O   0  0  0  0  0  0  0  0  0  0  0  0
   -0.3735   -2.3152    0.6831 O   0  0  0  0  0  0  0  0  0  0  0  0
    1.2313    1.4479    1.3309 H   0  0  0  0  0  0  0  0  0  0  0  0
    1.3132    1.9998   -0.3474 H   0  0  0  0  0  0  0  0  0  0  0  0
   -0.2344    2.1408    0.5245 H   0  0  0  0  0  0  0  0  0  0  0  0
    1.2602    0.1242   -2.0061 H   0  0  0  0  0  0  0  0  0  0  0  0
    0.7384   -1.4461   -1.3899 H   0  0  0  0  0  0  0  0  0  0  0  0
    2.3575   -2.7287    0.2398 H   0  0  0  0  0  0  0  0  0  0  0  0
    4.9403   -2.3132    0.7983 H   0  0  0  0  0  0  0  0  0  0  0  0
   -1.0210   -0.2030   -1.8983 H   0  0  0  0  0  0  0  0  0  0  0  0
   -1.9190    3.6919   -0.9826 H   0  0  0  0  0  0  0  0  0  0  0  0
   -3.7338   -1.1392    2.0121 H   0  0  0  0  0  0  0  0  0  0  0  0
   -2.8757   -1.9806    0.5839 H   0  0  0  0  0  0  0  0  0  0  0  0
   -2.0334    0.6558    1.9768 H   0  0  0  0  0  0  0  0  0  0  0  0
  2  1  1  1
  2  3  1  0
  3  4  1  0
  4  5  1  0
  5  6  2  0
  6  7  1  0
  7  8  2  0
  2  9  1  0
  9 10  1  0
 10 11  2  0
 10 12  1  0
  9 13  1  0
 13 14  1  0
 14 15  2  0
 14 16  1  0
 16 17  1  0
 17 18  1  0
 18 19  2  0
 18 20  2  0
 18  2  1  0
  8  4  1  0
 17 13  1  0
  1 21  1  0
  1 22  1  0
  1 23  1  0
  3 24  1  0
  3 25  1  0
  5 26  1  0
  6 27  1  0
  9 28  1  6
 12 29  1  0
 16 30  1  0
 16 31  1  0
 17 32  1  1
M  END
$$$$
