@<TRIPOS>MOLECULE
*****
 32 34 0 0 0
SMALL
GASTEIGER

@<TRIPOS>ATOM
      1 C           0.6646    1.5104    0.3862 C.3     1  UNL1       -0.0358
      2 C           0.2401    0.1789   -0.1550 C.3     1  UNL1        0.1351
      3 C           1.1949   -0.4636   -1.0670 C.3     1  UNL1        0.0703
      4 N           2.4915   -0.7617   -0.5694 N.ar    1  UNL1       -0.2495
      5 C           2.9655   -1.8664    0.0419 C.ar    1  UNL1        0.0455
      6 C           4.2863   -1.6101    0.3086 C.ar    1  UNL1        0.0693
      7 N           4.5564   -0.3841   -0.1424 N.ar    1  UNL1       -0.1380
      8 N           3.4745    0.1233   -0.6700 N.ar    1  UNL1       -0.0657
      9 C          -1.0350    0.3939   -0.9305 C.3     1  UNL1        0.1508
     10 C          -1.0350    1.8221   -1.4179 C.2     1  UNL1        0.3278
     11 O          -0.1328    2.2822   -2.1581 O.2     1  UNL1       -0.2488
     12 O          -2.0602    2.6771   -1.0468 O.3     1  UNL1       -0.4793
     13 N          -2.1628    0.1903   -0.1411 N.am    1  UNL1       -0.2632
     14 C          -3.5166    0.0903    0.2086 C.2     1  UNL1        0.2212
     15 O          -4.5654    0.6756   -0.0871 O.2     1  UNL1       -0.2754
     16 C          -3.1212   -1.0365    1.0947 C.3     1  UNL1        0.0629
     17 C          -1.9294   -0.1584    1.2534 C.3     1  UNL1        0.1536
     18 S          -0.3288   -0.9115    1.1412 S.O2    1  UNL1       -0.0022
     19 O           0.3634   -0.6862    2.4257 O.2     1  UNL1       -0.1719
     20 O          -0.3735   -2.3152    0.6831 O.2     1  UNL1       -0.1719
     21 H           1.2313    1.4479    1.3309 H       1  UNL1        0.0252
     22 H           1.3132    1.9998   -0.3474 H       1  UNL1        0.0252
     23 H          -0.2344    2.1408    0.5245 H       1  UNL1        0.0252
     24 H           1.2602    0.1242   -2.0061 H       1  UNL1        0.0532
     25 H           0.7384   -1.4461   -1.3899 H       1  UNL1        0.0532
     26 H           2.3575   -2.7287    0.2398 H       1  UNL1        0.0842
     27 H           4.9403   -2.3132    0.7983 H       1  UNL1        0.0864
     28 H          -1.0210   -0.2030   -1.8983 H       1  UNL1        0.0640
     29 H          -1.9190    3.6919   -0.9826 H       1  UNL1        0.2951
     30 H          -3.7338   -1.1392    2.0121 H       1  UNL1        0.0393
     31 H          -2.8757   -1.9806    0.5839 H       1  UNL1        0.0393
     32 H          -2.0334    0.6558    1.9768 H       1  UNL1        0.0750
@<TRIPOS>BOND
     1     2     1    1
     2     2     3    1
     3     3     4    1
     4     4     5   ar
     5     5     6   ar
     6     6     7   ar
     7     7     8   ar
     8     2     9    1
     9     9    10    1
    10    10    11    2
    11    10    12    1
    12     9    13    1
    13    13    14   am
    14    14    15    2
    15    14    16    1
    16    16    17    1
    17    17    18    1
    18    18    19    2
    19    18    20    2
    20    18     2    1
    21     8     4   ar
    22    17    13    1
    23     1    21    1
    24     1    22    1
    25     1    23    1
    26     3    24    1
    27     3    25    1
    28     5    26    1
    29     6    27    1
    30     9    28    1
    31    12    29    1
    32    16    30    1
    33    16    31    1
    34    17    32    1
