@<TRIPOS>MOLECULE
*****
 55 57 0 0 0
SMALL
GASTEIGER

@<TRIPOS>ATOM
      1 O          -7.6028   -2.1075    0.6082 O.2     1  UNL1       -0.2737
      2 C          -8.1270   -1.0975    0.0753 C.2     1  UNL1        0.2354
      3 C          -7.3851   -0.2787   -0.8800 C.3     1  UNL1        0.0259
      4 C          -5.9970   -0.6672   -1.1725 C.3     1  UNL1       -0.0447
      5 C          -5.0455   -0.6746   -0.0266 C.3     1  UNL1       -0.0526
      6 C          -4.8680    0.6320    0.6612 C.3     1  UNL1       -0.0526
      7 C          -4.3553    1.7303   -0.2010 C.3     1  UNL1       -0.0448
      8 C          -3.0334    1.5270   -0.8407 C.3     1  UNL1        0.0243
      9 C          -1.9012    1.3420    0.1053 C.2     1  UNL1        0.2172
     10 O          -2.1015    1.4090    1.3206 O.2     1  UNL1       -0.2755
     11 N          -0.6220    1.0935   -0.4124 N.am    1  UNL1       -0.2855
     12 C           0.5485    0.8969    0.3527 C.ar    1  UNL1        0.0340
     13 C           0.6174    0.9192    1.7259 C.ar    1  UNL1       -0.0404
     14 C           1.7997    0.7190    2.4453 C.ar    1  UNL1       -0.0594
     15 C           2.9630    0.4864    1.7566 C.ar    1  UNL1       -0.0523
     16 C           2.9478    0.4542    0.3802 C.ar    1  UNL1        0.0054
     17 C           4.2044    0.2033   -0.3493 C.ar    1  UNL1        0.1130
     18 C           5.4366   -0.0098    0.2275 C.ar    1  UNL1        0.0591
     19 N           6.3485   -0.2037   -0.7683 N.ar    1  UNL1       -0.2195
     20 C           7.7436   -0.4576   -0.6132 C.ar    1  UNL1        0.0671
     21 C           8.2372   -1.7394   -0.7106 C.ar    1  UNL1       -0.0352
     22 C           9.5856   -1.9775   -0.5597 C.ar    1  UNL1       -0.0466
     23 C          10.4585   -0.9219   -0.3077 C.ar    1  UNL1        0.0135
     24 I          12.5165   -1.2417   -0.0719 I       1  UNL1       -0.0438
     25 C           9.9712    0.3523   -0.2104 C.ar    1  UNL1       -0.0466
     26 C           8.6260    0.5760   -0.3627 C.ar    1  UNL1       -0.0352
     27 N           5.6851   -0.1100   -1.9065 N.ar    1  UNL1       -0.0602
     28 N           4.4013    0.1333   -1.6717 N.ar    1  UNL1       -0.1292
     29 C           1.7718    0.6543   -0.2962 C.ar    1  UNL1       -0.0312
     30 N          -9.4776   -0.7778    0.4378 N.am    1  UNL1       -0.1975
     31 O         -10.1534   -1.5370    1.3183 O.3     1  UNL1       -0.2952
     32 H          -7.9524   -0.3493   -1.8587 H       1  UNL1        0.0359
     33 H          -7.4592    0.8249   -0.6400 H       1  UNL1        0.0359
     34 H          -5.5974    0.0892   -1.9132 H       1  UNL1        0.0270
     35 H          -5.9988   -1.6214   -1.7383 H       1  UNL1        0.0270
     36 H          -5.3976   -1.4262    0.7069 H       1  UNL1        0.0265
     37 H          -4.0244   -1.0273   -0.3244 H       1  UNL1        0.0265
     38 H          -5.8135    1.0115    1.1296 H       1  UNL1        0.0265
     39 H          -4.1856    0.4942    1.5188 H       1  UNL1        0.0265
     40 H          -5.0835    1.9870   -1.0281 H       1  UNL1        0.0270
     41 H          -4.2890    2.7059    0.3681 H       1  UNL1        0.0270
     42 H          -3.0304    0.7533   -1.6380 H       1  UNL1        0.0358
     43 H          -2.7947    2.4860   -1.3908 H       1  UNL1        0.0358
     44 H          -0.4913    1.0434   -1.4672 H       1  UNL1        0.1548
     45 H          -0.2621    1.0970    2.3243 H       1  UNL1        0.0636
     46 H           1.8330    0.7401    3.5162 H       1  UNL1        0.0618
     47 H           3.8998    0.3267    2.2840 H       1  UNL1        0.0624
     48 H           5.6953   -0.0309    1.2777 H       1  UNL1        0.0853
     49 H           7.5421   -2.5665   -0.9096 H       1  UNL1        0.0639
     50 H          10.0089   -2.9758   -0.6303 H       1  UNL1        0.0629
     51 H          10.6391    1.1652   -0.0169 H       1  UNL1        0.0629
     52 H           8.2317    1.5654   -0.2893 H       1  UNL1        0.0639
     53 H           1.7566    0.6295   -1.3789 H       1  UNL1        0.0643
     54 H          -9.8770    0.0672   -0.0256 H       1  UNL1        0.1822
     55 H         -10.5428   -0.9891    2.0701 H       1  UNL1        0.2414
@<TRIPOS>BOND
     1     1     2    2
     2     2     3    1
     3     3     4    1
     4     4     5    1
     5     5     6    1
     6     6     7    1
     7     7     8    1
     8     8     9    1
     9     9    10    2
    10     9    11   am
    11    11    12    1
    12    12    13   ar
    13    13    14   ar
    14    14    15   ar
    15    15    16   ar
    16    16    17    1
    17    17    18   ar
    18    18    19   ar
    19    19    20    1
    20    20    21   ar
    21    21    22   ar
    22    22    23   ar
    23    23    24    1
    24    23    25   ar
    25    25    26   ar
    26    19    27   ar
    27    27    28   ar
    28    16    29   ar
    29     2    30   am
    30    30    31    1
    31    29    12   ar
    32    28    17   ar
    33    26    20   ar
    34     3    32    1
    35     3    33    1
    36     4    34    1
    37     4    35    1
    38     5    36    1
    39     5    37    1
    40     6    38    1
    41     6    39    1
    42     7    40    1
    43     7    41    1
    44     8    42    1
    45     8    43    1
    46    11    44    1
    47    13    45    1
    48    14    46    1
    49    15    47    1
    50    18    48    1
    51    21    49    1
    52    22    50    1
    53    25    51    1
    54    26    52    1
    55    29    53    1
    56    30    54    1
    57    31    55    1
