@<TRIPOS>MOLECULE
*****
 39 38 0 0 0
SMALL
GASTEIGER

@<TRIPOS>ATOM
      1 C          -2.7390    0.7433   -0.8774 C.3     1  UNL1        0.1260
      2 C          -2.1287    1.1591   -2.2147 C.3     1  UNL1       -0.0339
      3 N          -1.6896    0.4523    0.0351 N.2     1  UNL1       -0.2404
      4 C          -1.7557    0.1770    1.2690 C.2     1  UNL1        0.2084
      5 O          -2.9479    0.1111    1.9734 O.2     1  UNL1       -0.4942
      6 C          -0.4904   -0.0940    2.0214 C.3     1  UNL1        0.1295
      7 C          -0.3487    0.9098    3.1730 C.3     1  UNL1       -0.0338
      8 N           0.6609   -0.0333    1.1519 N.2     1  UNL1       -0.2040
      9 C           0.8371   -0.9700    0.2889 C.2     1  UNL1        0.3846
     10 O          -0.0362   -2.0273    0.1683 O.2     1  UNL1       -0.4657
     11 O           1.7101    0.0819    0.4055 O.2     1  UNL1       -0.4442
     12 C           2.8705    0.1005   -0.3503 C.3     1  UNL1        0.1069
     13 C           3.6925    1.3500   -0.1432 C.3     1  UNL1       -0.0253
     14 C           3.7266   -1.1023    0.0546 C.3     1  UNL1       -0.0253
     15 C           2.6005   -0.0031   -1.8290 C.3     1  UNL1       -0.0253
     16 C          -3.6263   -0.4096   -1.1479 C.2     1  UNL1        0.2048
     17 O          -4.6110   -1.2458   -1.6058 O.2     1  UNL1       -0.4943
     18 N          -3.5607   -1.6244   -0.6655 N.2     1  UNL1       -0.2693
     19 H          -3.3479    1.5890   -0.4671 H       1  UNL1        0.0640
     20 H          -1.6650    2.1487   -2.1226 H       1  UNL1        0.0255
     21 H          -1.2815    0.4424   -2.4012 H       1  UNL1        0.0255
     22 H          -2.8626    1.0959   -3.0338 H       1  UNL1        0.0255
     23 H          -3.8400    0.3064    1.5153 H       1  UNL1        0.2935
     24 H          -0.6311   -1.0688    2.5264 H       1  UNL1        0.0641
     25 H           0.6944    0.9663    3.5175 H       1  UNL1        0.0255
     26 H          -0.5666    1.9155    2.7107 H       1  UNL1        0.0255
     27 H          -1.0171    0.6721    4.0011 H       1  UNL1        0.0255
     28 H          -0.6207   -2.3254    0.9383 H       1  UNL1        0.2969
     29 H           3.8876    1.6012    0.9051 H       1  UNL1        0.0268
     30 H           3.2507    2.1907   -0.7359 H       1  UNL1        0.0268
     31 H           4.6810    1.1692   -0.6159 H       1  UNL1        0.0268
     32 H           3.3874   -1.9585   -0.5645 H       1  UNL1        0.0268
     33 H           4.8041   -0.8954   -0.1536 H       1  UNL1        0.0268
     34 H           3.6123   -1.2952    1.1441 H       1  UNL1        0.0268
     35 H           1.5621   -0.3926   -1.9773 H       1  UNL1        0.0268
     36 H           3.3321   -0.6568   -2.3444 H       1  UNL1        0.0268
     37 H           2.5845    1.0163   -2.3133 H       1  UNL1        0.0268
     38 H          -5.3631   -0.9392   -2.2408 H       1  UNL1        0.2935
     39 H          -2.7650   -1.7928    0.0047 H       1  UNL1        0.1896
@<TRIPOS>BOND
     1     1     2    1
     2     1     3    1
     3     3     4    2
     4     4     5    1
     5     4     6    1
     6     6     7    1
     7     6     8    1
     8     8     9    2
     9     9    10    1
    10     9    11    1
    11    11    12    1
    12    12    13    1
    13    12    14    1
    14    12    15    1
    15     1    16    1
    16    16    17    1
    17    16    18    2
    18     1    19    1
    19     2    20    1
    20     2    21    1
    21     2    22    1
    22     5    23    1
    23     6    24    1
    24     7    25    1
    25     7    26    1
    26     7    27    1
    27    10    28    1
    28    13    29    1
    29    13    30    1
    30    13    31    1
    31    14    32    1
    32    14    33    1
    33    14    34    1
    34    15    35    1
    35    15    36    1
    36    15    37    1
    37    17    38    1
    38    18    39    1
