@<TRIPOS>MOLECULE
*****
 23 24 0 0 0
SMALL
GASTEIGER

@<TRIPOS>ATOM
      1 O           5.9524    0.6534    0.0404 O.3     1  UNL1       -0.4800
      2 C           5.2355   -0.5238   -0.1237 C.2     1  UNL1        0.3151
      3 O           5.9944   -1.5130    0.1413 O.2     1  UNL1       -0.2501
      4 C           3.8266   -0.8411   -0.5278 C.3     1  UNL1        0.0998
      5 S           3.0093    0.7267   -0.8349 S.3     1  UNL1       -0.0543
      6 C           1.2868    0.5110   -1.3357 C.ar    1  UNL1        0.2782
      7 N           0.6271    0.3511   -2.5081 N.ar    1  UNL1       -0.1005
      8 N          -0.6547    0.2436   -2.2107 N.ar    1  UNL1       -0.1032
      9 C          -0.8124    0.3327   -0.8779 C.ar    1  UNL1        0.2846
     10 O           0.3795    0.4953   -0.3606 O.2     1  UNL1       -0.4083
     11 C          -2.0529    0.2664   -0.1109 C.ar    1  UNL1        0.1981
     12 C          -2.1220    0.3681    1.2631 C.ar    1  UNL1       -0.0039
     13 C          -3.4720    0.2517    1.5366 C.ar    1  UNL1        0.0596
     14 C          -4.1515    0.0879    0.3461 C.ar    1  UNL1        0.4381
     15 O          -3.2686    0.1033   -0.6003 O.2     1  UNL1       -0.3953
     16 N          -5.5606   -0.0662    0.2194 N.pl3   1  UNL1        0.1186
     17 O          -6.2327   -0.2282   -0.9580 O.co2   1  UNL1       -0.5735
     18 O          -6.2942   -0.0613    1.2271 O.2     1  UNL1        0.0446
     19 H           6.3851    0.9145    0.9368 H       1  UNL1        0.2951
     20 H           3.3467   -1.4272    0.3037 H       1  UNL1        0.0495
     21 H           3.7720   -1.4453   -1.4487 H       1  UNL1        0.0495
     22 H          -1.3340    0.5071    2.0005 H       1  UNL1        0.0659
     23 H          -3.8598    0.2935    2.5652 H       1  UNL1        0.0722
@<TRIPOS>UNITY_ATOM_ATTR
16 1
charge 1
17 1
charge -1
@<TRIPOS>BOND
     1     1     2    1
     2     2     3    2
     3     2     4    1
     4     4     5    1
     5     5     6    1
     6     6     7   ar
     7     7     8   ar
     8     8     9   ar
     9     9    10   ar
    10     9    11    1
    11    11    12   ar
    12    12    13   ar
    13    13    14   ar
    14    14    15   ar
    15    14    16    1
    16    16    17    1
    17    16    18    2
    18    10     6   ar
    19    15    11   ar
    20     1    19    1
    21     4    20    1
    22     4    21    1
    23    12    22    1
    24    13    23    1
