
     RDKit          3D

 23 24  0  0  0  0  0  0  0  0999 V2000
    5.9524    0.6534    0.0404 O   0  0  0  0  0  0  0  0  0  0  0  0
    5.2355   -0.5238   -0.1237 C   0  0  0  0  0  0  0  0  0  0  0  0
    5.9944   -1.5130    0.1413 O   0  0  0  0  0  0  0  0  0  0  0  0
    3.8266   -0.8411   -0.5278 C   0  0  0  0  0  0  0  0  0  0  0  0
    3.0093    0.7267   -0.8349 S   0  0  0  0  0  0  0  0  0  0  0  0
    1.2868    0.5110   -1.3357 C   0  0  0  0  0  0  0  0  0  0  0  0
    0.6271    0.3511   -2.5081 N   0  0  0  0  0  0  0  0  0  0  0  0
   -0.6547    0.2436   -2.2107 N   0  0  0  0  0  0  0  0  0  0  0  0
   -0.8124    0.3327   -0.8779 C   0  0  0  0  0  0  0  0  0  0  0  0
    0.3795    0.4953   -0.3606 O   0  0  0  0  0  0  0  0  0  0  0  0
   -2.0529    0.2664   -0.1109 C   0  0  0  0  0  0  0  0  0  0  0  0
   -2.1220    0.3681    1.2631 C   0  0  0  0  0  0  0  0  0  0  0  0
   -3.4720    0.2517    1.5366 C   0  0  0  0  0  0  0  0  0  0  0  0
   -4.1515    0.0879    0.3461 C   0  0  0  0  0  0  0  0  0  0  0  0
   -3.2686    0.1033   -0.6003 O   0  0  0  0  0  0  0  0  0  0  0  0
   -5.5606   -0.0662    0.2194 N   0  0  0  0  0  4  0  0  0  0  0  0
   -6.2327   -0.2282   -0.9580 O   0  0  0  0  0  1  0  0  0  0  0  0
   -6.2942   -0.0613    1.2271 O   0  0  0  0  0  0  0  0  0  0  0  0
    6.3851    0.9145    0.9368 H   0  0  0  0  0  0  0  0  0  0  0  0
    3.3467   -1.4272    0.3037 H   0  0  0  0  0  0  0  0  0  0  0  0
    3.7720   -1.4453   -1.4487 H   0  0  0  0  0  0  0  0  0  0  0  0
   -1.3340    0.5071    2.0005 H   0  0  0  0  0  0  0  0  0  0  0  0
   -3.8598    0.2935    2.5652 H   0  0  0  0  0  0  0  0  0  0  0  0
  1  2  1  0
  2  3  2  0
  2  4  1  0
  4  5  1  0
  5  6  1  0
  6  7  2  0
  7  8  1  0
  8  9  2  0
  9 10  1  0
  9 11  1  0
 11 12  2  0
 12 13  1  0
 13 14  2  0
 14 15  1  0
 14 16  1  0
 16 17  1  0
 16 18  2  0
 10  6  1  0
 15 11  1  0
  1 19  1  0
  4 20  1  0
  4 21  1  0
 12 22  1  0
 13 23  1  0
M  CHG  2  16   1  17  -1
M  END
$$$$
