@<TRIPOS>MOLECULE
*****
 43 45 0 0 0
SMALL
GASTEIGER

@<TRIPOS>ATOM
      1 C           3.7097   -2.3601   -0.0111 C.3     1  UNL1        0.0115
      2 N           3.8472   -0.8841   -0.0000 N.am    1  UNL1       -0.2400
      3 C           2.6571   -0.1131   -0.0095 C.2     1  UNL1        0.4123
      4 O           2.5709    1.1303   -0.0029 O.2     1  UNL1       -0.2254
      5 O           1.3961   -0.7636   -0.0284 O.3     1  UNL1       -0.4112
      6 C           0.2109   -0.0455   -0.0381 C.ar    1  UNL1        0.1335
      7 C          -0.4247    0.3550   -1.1856 C.ar    1  UNL1       -0.0157
      8 C          -1.5982    1.0646   -1.0982 C.ar    1  UNL1       -0.0158
      9 C          -2.1894    1.4066    0.1013 C.ar    1  UNL1        0.1306
     10 O          -3.3741    2.1236    0.1506 O.3     1  UNL1       -0.4380
     11 C          -4.5653    1.4309    0.1601 C.ar    1  UNL1        0.2205
     12 C          -4.5880    0.0651    0.1219 C.ar    1  UNL1        0.0009
     13 C          -5.8023   -0.6086    0.1325 C.ar    1  UNL1       -0.0436
     14 C          -6.9912    0.0876    0.1813 C.ar    1  UNL1        0.0731
     15 C          -8.3032   -0.6209    0.1933 C.3     1  UNL1        0.4188
     16 F          -9.2922    0.1688    0.7648 F       1  UNL1       -0.1658
     17 F          -8.1913   -1.7566    0.9413 F       1  UNL1       -0.1658
     18 F          -8.6895   -0.9249   -1.1176 F       1  UNL1       -0.1658
     19 C          -6.9201    1.4664    0.2187 C.ar    1  UNL1        0.0430
     20 N          -5.7300    2.1069    0.2077 N.ar    1  UNL1       -0.2204
     21 C          -1.5488    1.0030    1.2568 C.ar    1  UNL1       -0.0158
     22 C          -0.3573    0.2823    1.1786 C.ar    1  UNL1       -0.0157
     23 C           5.1671   -0.3707    0.0193 C.ar    1  UNL1        0.0405
     24 C           5.4544    0.9759    0.0369 C.ar    1  UNL1       -0.0401
     25 C           6.7769    1.3823    0.0542 C.ar    1  UNL1       -0.0586
     26 C           7.8181    0.4867    0.0545 C.ar    1  UNL1       -0.0433
     27 C           7.5510   -0.8444    0.0373 C.ar    1  UNL1        0.0427
     28 CL          8.8197   -2.0547    0.0364 Cl      1  UNL1       -0.0835
     29 C           6.2402   -1.2780    0.0198 C.ar    1  UNL1       -0.0218
     30 H           4.2453   -2.7245    0.9122 H       1  UNL1        0.0434
     31 H           4.2000   -2.7786   -0.8881 H       1  UNL1        0.0434
     32 H           2.6594   -2.6028    0.1247 H       1  UNL1        0.0434
     33 H           0.0393    0.0866   -2.1266 H       1  UNL1        0.0655
     34 H          -2.1080    1.3855   -1.9935 H       1  UNL1        0.0655
     35 H          -3.6737   -0.4912    0.0838 H       1  UNL1        0.0671
     36 H          -5.8512   -1.6999    0.1028 H       1  UNL1        0.0625
     37 H          -7.8611    2.0254    0.2576 H       1  UNL1        0.0836
     38 H          -1.9743    1.2480    2.2063 H       1  UNL1        0.0655
     39 H           0.1374   -0.0296    2.0929 H       1  UNL1        0.0655
     40 H           4.6823    1.7215    0.0378 H       1  UNL1        0.0636
     41 H           7.0007    2.4281    0.0679 H       1  UNL1        0.0619
     42 H           8.8223    0.8596    0.0684 H       1  UNL1        0.0632
     43 H           6.0280   -2.3390    0.0058 H       1  UNL1        0.0651
@<TRIPOS>BOND
     1     1     2    1
     2     2     3   am
     3     3     4    2
     4     3     5    1
     5     5     6    1
     6     6     7   ar
     7     7     8   ar
     8     8     9   ar
     9     9    10    1
    10    10    11    1
    11    11    12   ar
    12    12    13   ar
    13    13    14   ar
    14    14    15    1
    15    15    16    1
    16    15    17    1
    17    15    18    1
    18    14    19   ar
    19    19    20   ar
    20     9    21   ar
    21    21    22   ar
    22     2    23    1
    23    23    24   ar
    24    24    25   ar
    25    25    26   ar
    26    26    27   ar
    27    27    28    1
    28    27    29   ar
    29    22     6   ar
    30    29    23   ar
    31    20    11   ar
    32     1    30    1
    33     1    31    1
    34     1    32    1
    35     7    33    1
    36     8    34    1
    37    12    35    1
    38    13    36    1
    39    19    37    1
    40    21    38    1
    41    22    39    1
    42    24    40    1
    43    25    41    1
    44    26    42    1
    45    29    43    1
