@<TRIPOS>MOLECULE
*****
 80 83 0 0 0
SMALL
GASTEIGER

@<TRIPOS>ATOM
      1 C         -10.5990    0.4236   -0.5591 C.3     1  UNL1       -0.0117
      2 N          -9.1892    0.4064   -0.3647 N.3     1  UNL1       -0.2949
      3 C          -8.4297    1.3521   -1.0586 C.3     1  UNL1        0.0199
      4 C          -9.3612    2.1094   -2.0159 C.3     1  UNL1       -0.0467
      5 C          -7.9126    2.4098   -0.0750 C.3     1  UNL1       -0.0467
      6 C          -7.2777    0.8648   -1.8516 C.3     1  UNL1        0.0023
      7 C          -6.5636   -0.3215   -1.2437 C.3     1  UNL1        0.1036
      8 O          -5.8724   -0.0161   -0.0858 O.3     1  UNL1       -0.4872
      9 C          -4.5180   -0.1473    0.1649 C.ar    1  UNL1        0.1390
     10 C          -4.0697    0.2444    1.4359 C.ar    1  UNL1       -0.0162
     11 C          -2.7299    0.1278    1.7205 C.ar    1  UNL1       -0.0277
     12 C          -1.8232   -0.3576    0.8033 C.ar    1  UNL1        0.1259
     13 C          -0.4031   -0.4811    1.1091 C.2     1  UNL1        0.2666
     14 O          -0.0158   -0.1254    2.2480 O.2     1  UNL1       -0.2682
     15 N           0.5467   -0.9774    0.1938 N.am    1  UNL1       -0.2802
     16 C           1.9343   -1.1155    0.4483 C.ar    1  UNL1        0.0338
     17 C           2.3963   -2.2958    0.9834 C.ar    1  UNL1       -0.0387
     18 C           3.7190   -2.5089    1.2564 C.ar    1  UNL1       -0.0387
     19 C           4.6938   -1.5195    1.0016 C.ar    1  UNL1        0.0349
     20 N           6.0367   -1.7887    1.3027 N.am    1  UNL1       -0.2692
     21 C           7.0968   -0.9078    1.0765 C.2     1  UNL1        0.3093
     22 O           6.9452    0.2147    0.5770 O.2     1  UNL1       -0.2521
     23 N           8.4582   -1.2547    1.4157 N.am    1  UNL1       -0.2512
     24 C           9.5225   -0.3600    1.1812 C.ar    1  UNL1        0.1691
     25 C          10.2809   -0.2815    0.0333 C.ar    1  UNL1        0.0230
     26 C          11.2268    0.7353    0.2149 C.ar    1  UNL1        0.1445
     27 C          12.2632    1.1794   -0.7622 C.3     1  UNL1        0.0230
     28 C          12.1188    0.3227   -2.0163 C.3     1  UNL1       -0.0531
     29 C          11.9780    2.6125   -1.2024 C.3     1  UNL1       -0.0531
     30 C          13.6559    1.0145   -0.2491 C.3     1  UNL1       -0.0531
     31 O          11.0009    1.2031    1.4191 O.2     1  UNL1       -0.3573
     32 N          10.0147    0.5823    2.0010 N.ar    1  UNL1       -0.0627
     33 C           4.1880   -0.3592    0.4683 C.ar    1  UNL1       -0.0387
     34 C           2.8469   -0.1436    0.1917 C.ar    1  UNL1       -0.0387
     35 N          -2.3163   -0.7142   -0.3922 N.ar    1  UNL1       -0.2467
     36 C          -3.6074   -0.6324   -0.7499 C.ar    1  UNL1        0.0701
     37 C          -7.6281   -1.3783   -1.0141 C.3     1  UNL1        0.0023
     38 C          -8.6134   -0.8245   -0.0209 C.3     1  UNL1        0.0199
     39 C          -7.9770   -0.7349    1.3497 C.3     1  UNL1       -0.0467
     40 C          -9.7332   -1.8690    0.0944 C.3     1  UNL1       -0.0467
     41 H         -10.9813    1.4560   -0.4303 H       1  UNL1        0.0391
     42 H         -11.0949   -0.1748    0.2517 H       1  UNL1        0.0391
     43 H         -10.9354    0.0148   -1.5303 H       1  UNL1        0.0391
     44 H          -9.9606    2.8612   -1.4972 H       1  UNL1        0.0247
     45 H          -9.9449    1.4077   -2.6442 H       1  UNL1        0.0247
     46 H          -8.7019    2.6675   -2.7318 H       1  UNL1        0.0247
     47 H          -8.5880    2.5382    0.7782 H       1  UNL1        0.0247
     48 H          -6.8583    2.1738    0.2347 H       1  UNL1        0.0247
     49 H          -7.8354    3.3700   -0.6306 H       1  UNL1        0.0247
     50 H          -6.5539    1.7070   -1.9730 H       1  UNL1        0.0319
     51 H          -7.6187    0.5683   -2.8615 H       1  UNL1        0.0319
     52 H          -5.9013   -0.7100   -2.0404 H       1  UNL1        0.0734
     53 H          -4.7569    0.6326    2.1862 H       1  UNL1        0.0655
     54 H          -2.3554    0.4251    2.7013 H       1  UNL1        0.0641
     55 H           0.2033   -1.2682   -0.7510 H       1  UNL1        0.1552
     56 H           1.6994   -3.1129    1.2092 H       1  UNL1        0.0637
     57 H           4.0781   -3.4550    1.6839 H       1  UNL1        0.0637
     58 H           6.2505   -2.7434    1.7383 H       1  UNL1        0.1564
     59 H           8.6570   -2.1766    1.8369 H       1  UNL1        0.1579
     60 H          10.1978   -0.8699   -0.8581 H       1  UNL1        0.0688
     61 H          11.0703    0.4659   -2.4035 H       1  UNL1        0.0239
     62 H          12.7959    0.6687   -2.8016 H       1  UNL1        0.0239
     63 H          12.2029   -0.7595   -1.7858 H       1  UNL1        0.0239
     64 H          10.8654    2.6553   -1.3406 H       1  UNL1        0.0239
     65 H          12.3295    3.3357   -0.4375 H       1  UNL1        0.0239
     66 H          12.4199    2.7902   -2.2061 H       1  UNL1        0.0239
     67 H          14.2037    0.1828   -0.7708 H       1  UNL1        0.0239
     68 H          13.7233    0.8271    0.8232 H       1  UNL1        0.0239
     69 H          14.2169    1.9530   -0.5246 H       1  UNL1        0.0239
     70 H           4.8797    0.4596    0.2420 H       1  UNL1        0.0637
     71 H           2.5494    0.7936   -0.2232 H       1  UNL1        0.0637
     72 H          -3.9422   -0.9444   -1.7518 H       1  UNL1        0.0867
     73 H          -7.1446   -2.2692   -0.5904 H       1  UNL1        0.0319
     74 H          -8.1324   -1.5611   -1.9750 H       1  UNL1        0.0319
     75 H          -7.6849    0.3118    1.6074 H       1  UNL1        0.0247
     76 H          -7.0631   -1.3610    1.4228 H       1  UNL1        0.0247
     77 H          -8.7170   -1.0345    2.1197 H       1  UNL1        0.0247
     78 H         -10.4173   -1.8263   -0.7627 H       1  UNL1        0.0247
     79 H          -9.2153   -2.8612    0.0509 H       1  UNL1        0.0247
     80 H         -10.2223   -1.8257    1.0766 H       1  UNL1        0.0247
@<TRIPOS>BOND
     1     1     2    1
     2     2     3    1
     3     3     4    1
     4     3     5    1
     5     3     6    1
     6     6     7    1
     7     7     8    1
     8     8     9    1
     9     9    10   ar
    10    10    11   ar
    11    11    12   ar
    12    12    13    1
    13    13    14    2
    14    13    15   am
    15    15    16    1
    16    16    17   ar
    17    17    18   ar
    18    18    19   ar
    19    19    20    1
    20    20    21   am
    21    21    22    2
    22    21    23   am
    23    23    24    1
    24    24    25   ar
    25    25    26   ar
    26    26    27    1
    27    27    28    1
    28    27    29    1
    29    27    30    1
    30    26    31   ar
    31    31    32   ar
    32    19    33   ar
    33    33    34   ar
    34    12    35   ar
    35    35    36   ar
    36     7    37    1
    37    37    38    1
    38    38    39    1
    39    38    40    1
    40    38     2    1
    41    36     9   ar
    42    34    16   ar
    43    32    24   ar
    44     1    41    1
    45     1    42    1
    46     1    43    1
    47     4    44    1
    48     4    45    1
    49     4    46    1
    50     5    47    1
    51     5    48    1
    52     5    49    1
    53     6    50    1
    54     6    51    1
    55     7    52    1
    56    10    53    1
    57    11    54    1
    58    15    55    1
    59    17    56    1
    60    18    57    1
    61    20    58    1
    62    23    59    1
    63    25    60    1
    64    28    61    1
    65    28    62    1
    66    28    63    1
    67    29    64    1
    68    29    65    1
    69    29    66    1
    70    30    67    1
    71    30    68    1
    72    30    69    1
    73    33    70    1
    74    34    71    1
    75    36    72    1
    76    37    73    1
    77    37    74    1
    78    39    75    1
    79    39    76    1
    80    39    77    1
    81    40    78    1
    82    40    79    1
    83    40    80    1
