@<TRIPOS>MOLECULE
*****
 41 44 0 0 0
SMALL
GASTEIGER

@<TRIPOS>ATOM
      1 CL          8.2774    1.8168    0.7092 Cl      1  UNL1       -0.0835
      2 C           6.5973    1.4037    0.4334 C.ar    1  UNL1        0.0410
      3 C           5.6714    2.3499    0.8089 C.ar    1  UNL1       -0.0431
      4 C           4.3166    2.0777    0.6118 C.ar    1  UNL1       -0.0557
      5 C           3.8561    0.9139    0.0625 C.ar    1  UNL1       -0.0302
      6 C           2.4625    0.5565   -0.1791 C.3     1  UNL1        0.0370
      7 N           1.8223   -0.1088    0.9331 N.pl3   1  UNL1       -0.3092
      8 C           0.4805   -0.5657    0.7694 C.ar    1  UNL1        0.2203
      9 N           0.5660   -1.8024    0.1921 N.ar    1  UNL1       -0.1938
     10 C          -0.5214   -2.5346   -0.1057 C.ar    1  UNL1        0.1798
     11 C          -0.8220   -3.7524   -0.6604 C.ar    1  UNL1        0.1157
     12 C          -2.1778   -3.9174   -0.6866 C.ar    1  UNL1        0.0695
     13 N          -2.6434   -2.7837   -0.1416 N.ar    1  UNL1       -0.1692
     14 N          -1.6857   -1.9574    0.2071 N.ar    1  UNL1       -0.1818
     15 C          -1.8205   -0.7237    0.7855 C.ar    1  UNL1        0.2255
     16 N          -3.1228   -0.2255    1.0551 N.pl3   1  UNL1       -0.2835
     17 C          -3.9428    0.7025    0.4063 C.ar    1  UNL1        0.0336
     18 C          -3.4748    1.4728   -0.6335 C.ar    1  UNL1       -0.0405
     19 C          -4.3551    2.3785   -1.2386 C.ar    1  UNL1       -0.0600
     20 C          -5.6547    2.4620   -0.7680 C.ar    1  UNL1       -0.0616
     21 C          -6.1036    1.6768    0.2787 C.ar    1  UNL1       -0.0600
     22 C          -5.2427    0.7845    0.8771 C.ar    1  UNL1       -0.0405
     23 N          -0.7061   -0.0241    1.0668 N.ar    1  UNL1       -0.1808
     24 C           0.1659   -4.6786   -1.1316 C.1     1  UNL1        0.1045
     25 N           0.9668   -5.4336   -1.5208 N.1     1  UNL1       -0.1907
     26 C           4.8162   -0.0107   -0.3008 C.ar    1  UNL1       -0.0557
     27 C           6.1863    0.2058   -0.1281 C.ar    1  UNL1       -0.0431
     28 H           5.9827    3.2842    1.2523 H       1  UNL1        0.0632
     29 H           3.5887    2.8235    0.9050 H       1  UNL1        0.0621
     30 H           2.3684   -0.1069   -1.0679 H       1  UNL1        0.0512
     31 H           1.8966    1.5082   -0.3563 H       1  UNL1        0.0512
     32 H           2.3604   -0.2331    1.8149 H       1  UNL1        0.1492
     33 H          -2.7687   -4.7589   -1.0571 H       1  UNL1        0.0862
     34 H          -3.3295   -0.7615    1.9139 H       1  UNL1        0.1550
     35 H          -2.4418    1.3997   -0.9987 H       1  UNL1        0.0636
     36 H          -4.0499    3.0146   -2.0605 H       1  UNL1        0.0618
     37 H          -6.4006    3.1135   -1.1538 H       1  UNL1        0.0618
     38 H          -7.1309    1.7218    0.6704 H       1  UNL1        0.0618
     39 H          -5.6210    0.1677    1.7046 H       1  UNL1        0.0636
     40 H           4.6478   -0.9853   -0.7493 H       1  UNL1        0.0621
     41 H           6.9860   -0.4702   -0.3890 H       1  UNL1        0.0632
@<TRIPOS>BOND
     1     1     2    1
     2     2     3   ar
     3     3     4   ar
     4     4     5   ar
     5     5     6    1
     6     6     7    1
     7     7     8    1
     8     8     9   ar
     9     9    10   ar
    10    10    11   ar
    11    11    12   ar
    12    12    13   ar
    13    13    14   ar
    14    14    15   ar
    15    15    16    1
    16    16    17    1
    17    17    18   ar
    18    18    19   ar
    19    19    20   ar
    20    20    21   ar
    21    21    22   ar
    22    15    23   ar
    23    11    24    1
    24    24    25    3
    25     5    26   ar
    26    26    27   ar
    27    27     2   ar
    28    23     8   ar
    29    14    10   ar
    30    22    17   ar
    31     3    28    1
    32     4    29    1
    33     6    30    1
    34     6    31    1
    35     7    32    1
    36    12    33    1
    37    16    34    1
    38    18    35    1
    39    19    36    1
    40    20    37    1
    41    21    38    1
    42    22    39    1
    43    26    40    1
    44    27    41    1
