
     RDKit          3D

 41 44  0  0  0  0  0  0  0  0999 V2000
    8.2774    1.8168    0.7092 Cl  0  0  0  0  0  0  0  0  0  0  0  0
    6.5973    1.4037    0.4334 C   0  0  0  0  0  0  0  0  0  0  0  0
    5.6714    2.3499    0.8089 C   0  0  0  0  0  0  0  0  0  0  0  0
    4.3166    2.0777    0.6118 C   0  0  0  0  0  0  0  0  0  0  0  0
    3.8561    0.9139    0.0625 C   0  0  0  0  0  0  0  0  0  0  0  0
    2.4625    0.5565   -0.1791 C   0  0  0  0  0  0  0  0  0  0  0  0
    1.8223   -0.1088    0.9331 N   0  0  0  0  0  0  0  0  0  0  0  0
    0.4805   -0.5657    0.7694 C   0  0  0  0  0  0  0  0  0  0  0  0
    0.5660   -1.8024    0.1921 N   0  0  0  0  0  0  0  0  0  0  0  0
   -0.5214   -2.5346   -0.1057 C   0  0  0  0  0  0  0  0  0  0  0  0
   -0.8220   -3.7524   -0.6604 C   0  0  0  0  0  0  0  0  0  0  0  0
   -2.1778   -3.9174   -0.6866 C   0  0  0  0  0  0  0  0  0  0  0  0
   -2.6434   -2.7837   -0.1416 N   0  0  0  0  0  0  0  0  0  0  0  0
   -1.6857   -1.9574    0.2071 N   0  0  0  0  0  0  0  0  0  0  0  0
   -1.8205   -0.7237    0.7855 C   0  0  0  0  0  0  0  0  0  0  0  0
   -3.1228   -0.2255    1.0551 N   0  0  0  0  0  0  0  0  0  0  0  0
   -3.9428    0.7025    0.4063 C   0  0  0  0  0  0  0  0  0  0  0  0
   -3.4748    1.4728   -0.6335 C   0  0  0  0  0  0  0  0  0  0  0  0
   -4.3551    2.3785   -1.2386 C   0  0  0  0  0  0  0  0  0  0  0  0
   -5.6547    2.4620   -0.7680 C   0  0  0  0  0  0  0  0  0  0  0  0
   -6.1036    1.6768    0.2787 C   0  0  0  0  0  0  0  0  0  0  0  0
   -5.2427    0.7845    0.8771 C   0  0  0  0  0  0  0  0  0  0  0  0
   -0.7061   -0.0241    1.0668 N   0  0  0  0  0  0  0  0  0  0  0  0
    0.1659   -4.6786   -1.1316 C   0  0  0  0  0  0  0  0  0  0  0  0
    0.9668   -5.4336   -1.5208 N   0  0  0  0  0  0  0  0  0  0  0  0
    4.8162   -0.0107   -0.3008 C   0  0  0  0  0  0  0  0  0  0  0  0
    6.1863    0.2058   -0.1281 C   0  0  0  0  0  0  0  0  0  0  0  0
    5.9827    3.2842    1.2523 H   0  0  0  0  0  0  0  0  0  0  0  0
    3.5887    2.8235    0.9050 H   0  0  0  0  0  0  0  0  0  0  0  0
    2.3684   -0.1069   -1.0679 H   0  0  0  0  0  0  0  0  0  0  0  0
    1.8966    1.5082   -0.3563 H   0  0  0  0  0  0  0  0  0  0  0  0
    2.3604   -0.2331    1.8149 H   0  0  0  0  0  0  0  0  0  0  0  0
   -2.7687   -4.7589   -1.0571 H   0  0  0  0  0  0  0  0  0  0  0  0
   -3.3295   -0.7615    1.9139 H   0  0  0  0  0  0  0  0  0  0  0  0
   -2.4418    1.3997   -0.9987 H   0  0  0  0  0  0  0  0  0  0  0  0
   -4.0499    3.0146   -2.0605 H   0  0  0  0  0  0  0  0  0  0  0  0
   -6.4006    3.1135   -1.1538 H   0  0  0  0  0  0  0  0  0  0  0  0
   -7.1309    1.7218    0.6704 H   0  0  0  0  0  0  0  0  0  0  0  0
   -5.6210    0.1677    1.7046 H   0  0  0  0  0  0  0  0  0  0  0  0
    4.6478   -0.9853   -0.7493 H   0  0  0  0  0  0  0  0  0  0  0  0
    6.9860   -0.4702   -0.3890 H   0  0  0  0  0  0  0  0  0  0  0  0
  1  2  1  0
  2  3  2  0
  3  4  1  0
  4  5  2  0
  5  6  1  0
  6  7  1  0
  7  8  1  0
  8  9  2  0
  9 10  1  0
 10 11  2  0
 11 12  1  0
 12 13  2  0
 13 14  1  0
 14 15  1  0
 15 16  1  0
 16 17  1  0
 17 18  2  0
 18 19  1  0
 19 20  2  0
 20 21  1  0
 21 22  2  0
 15 23  2  0
 11 24  1  0
 24 25  3  0
  5 26  1  0
 26 27  2  0
 27  2  1  0
 23  8  1  0
 14 10  1  0
 22 17  1  0
  3 28  1  0
  4 29  1  0
  6 30  1  0
  6 31  1  0
  7 32  1  0
 12 33  1  0
 16 34  1  0
 18 35  1  0
 19 36  1  0
 20 37  1  0
 21 38  1  0
 22 39  1  0
 26 40  1  0
 27 41  1  0
M  END
$$$$
