
     RDKit          3D

 48 51  0  0  0  0  0  0  0  0999 V2000
    7.9463   -2.4373    0.6201 C   0  0  0  0  0  0  0  0  0  0  0  0
    7.5295   -1.2950   -0.0766 O   0  0  0  0  0  0  0  0  0  0  0  0
    6.2528   -0.8064   -0.1138 C   0  0  0  0  0  0  0  0  0  0  0  0
    5.9742    0.3395   -0.8512 C   0  0  0  0  0  0  0  0  0  0  0  0
    4.6946    0.8324   -0.9007 C   0  0  0  0  0  0  0  0  0  0  0  0
    3.6233    0.2351   -0.2290 C   0  0  0  0  0  0  0  0  0  0  0  0
    2.2892    0.7636   -0.3401 C   0  0  0  0  0  0  0  0  0  0  0  0
    2.0677    1.6924   -1.1615 O   0  0  0  0  0  0  0  0  0  0  0  0
    1.1948    0.2545    0.4697 C   0  0  0  0  0  0  0  0  0  0  0  0
   -0.0855    0.7674    0.1042 N   0  0  0  0  0  0  0  0  0  0  0  0
   -0.8507    0.0516   -0.7151 N   0  0  0  0  0  0  0  0  0  0  0  0
   -2.0735    0.4793   -1.0733 C   0  0  0  0  0  0  0  0  0  0  0  0
   -2.9682   -0.2822   -1.9017 N   0  0  0  0  0  0  0  0  0  0  0  0
   -4.0019   -1.0431   -1.2965 C   0  0  0  0  0  0  0  0  0  0  0  0
   -3.8985   -1.9427   -0.2707 C   0  0  0  0  0  0  0  0  0  0  0  0
   -5.1651   -2.4059    0.0043 C   0  0  0  0  0  0  0  0  0  0  0  0
   -5.5945   -3.3943    1.0509 C   0  0  0  0  0  0  0  0  0  0  0  0
   -5.9972   -1.7975   -0.8368 N   0  0  0  0  0  0  0  0  0  0  0  0
   -5.2950   -0.9874   -1.6067 N   0  0  0  0  0  0  0  0  0  0  0  0
   -2.5262    1.6907   -0.5694 C   0  0  0  0  0  0  0  0  0  0  0  0
   -3.7533    2.2075   -0.8874 C   0  0  0  0  0  0  0  0  0  0  0  0
   -4.1706    3.4230   -0.3716 C   0  0  0  0  0  0  0  0  0  0  0  0
   -3.3732    4.1533    0.4760 C   0  0  0  0  0  0  0  0  0  0  0  0
   -2.1315    3.6558    0.8130 C   0  0  0  0  0  0  0  0  0  0  0  0
   -1.7302    2.4461    0.2903 C   0  0  0  0  0  0  0  0  0  0  0  0
   -0.4876    1.9313    0.6052 C   0  0  0  0  0  0  0  0  0  0  0  0
    0.2641    2.5645    1.3690 O   0  0  0  0  0  0  0  0  0  0  0  0
    3.9522   -0.9061    0.4980 C   0  0  0  0  0  0  0  0  0  0  0  0
    5.2329   -1.4166    0.5563 C   0  0  0  0  0  0  0  0  0  0  0  0
    8.9599   -2.7419    0.3068 H   0  0  0  0  0  0  0  0  0  0  0  0
    7.2731   -3.3215    0.3895 H   0  0  0  0  0  0  0  0  0  0  0  0
    7.9930   -2.2436    1.7119 H   0  0  0  0  0  0  0  0  0  0  0  0
    6.7473    0.8717   -1.3956 H   0  0  0  0  0  0  0  0  0  0  0  0
    4.4481    1.7212   -1.4700 H   0  0  0  0  0  0  0  0  0  0  0  0
    1.3194    0.4990    1.5576 H   0  0  0  0  0  0  0  0  0  0  0  0
    1.1657   -0.8427    0.4231 H   0  0  0  0  0  0  0  0  0  0  0  0
   -2.8578   -0.2682   -2.9154 H   0  0  0  0  0  0  0  0  0  0  0  0
   -3.0032   -2.2617    0.2484 H   0  0  0  0  0  0  0  0  0  0  0  0
   -4.7735   -4.0236    1.3907 H   0  0  0  0  0  0  0  0  0  0  0  0
   -5.9482   -2.7854    1.9390 H   0  0  0  0  0  0  0  0  0  0  0  0
   -6.4414   -3.9973    0.6871 H   0  0  0  0  0  0  0  0  0  0  0  0
   -5.7192   -0.3726   -2.3677 H   0  0  0  0  0  0  0  0  0  0  0  0
   -4.3911    1.6620   -1.5429 H   0  0  0  0  0  0  0  0  0  0  0  0
   -5.1409    3.7768   -0.6673 H   0  0  0  0  0  0  0  0  0  0  0  0
   -3.6653    5.0974    0.8929 H   0  0  0  0  0  0  0  0  0  0  0  0
   -1.4615    4.1693    1.4696 H   0  0  0  0  0  0  0  0  0  0  0  0
    3.1479   -1.4151    1.0329 H   0  0  0  0  0  0  0  0  0  0  0  0
    5.4290   -2.2971    1.1287 H   0  0  0  0  0  0  0  0  0  0  0  0
  1  2  1  0
  2  3  1  0
  3  4  2  0
  4  5  1  0
  5  6  2  0
  6  7  1  0
  7  8  2  0
  7  9  1  0
  9 10  1  0
 10 11  1  0
 11 12  2  0
 12 13  1  0
 13 14  1  0
 14 15  2  0
 15 16  1  0
 16 17  1  0
 16 18  2  0
 18 19  1  0
 12 20  1  0
 20 21  2  0
 21 22  1  0
 22 23  2  0
 23 24  1  0
 24 25  2  0
 25 26  1  0
 26 27  2  0
  6 28  1  0
 28 29  2  0
 29  3  1  0
 26 10  1  0
 19 14  1  0
 25 20  1  0
  1 30  1  0
  1 31  1  0
  1 32  1  0
  4 33  1  0
  5 34  1  0
  9 35  1  0
  9 36  1  0
 13 37  1  0
 15 38  1  0
 17 39  1  0
 17 40  1  0
 17 41  1  0
 19 42  1  0
 21 43  1  0
 22 44  1  0
 23 45  1  0
 24 46  1  0
 28 47  1  0
 29 48  1  0
M  END
$$$$
