@<TRIPOS>MOLECULE
*****
 48 51 0 0 0
SMALL
GASTEIGER

@<TRIPOS>ATOM
      1 C           7.9463   -2.4373    0.6201 C.3     1  UNL1        0.0788
      2 O           7.5295   -1.2950   -0.0766 O.3     1  UNL1       -0.4951
      3 C           6.2528   -0.8064   -0.1138 C.ar    1  UNL1        0.1201
      4 C           5.9742    0.3395   -0.8512 C.ar    1  UNL1       -0.0193
      5 C           4.6946    0.8324   -0.9007 C.ar    1  UNL1       -0.0478
      6 C           3.6233    0.2351   -0.2290 C.ar    1  UNL1        0.0195
      7 C           2.2892    0.7636   -0.3401 C.2     1  UNL1        0.1844
      8 O           2.0677    1.6924   -1.1615 O.2     1  UNL1       -0.2901
      9 C           1.1948    0.2545    0.4697 C.3     1  UNL1        0.1080
     10 N          -0.0855    0.7674    0.1042 N.ar    1  UNL1       -0.2196
     11 N          -0.8507    0.0516   -0.7151 N.ar    1  UNL1       -0.1519
     12 C          -2.0735    0.4793   -1.0733 C.ar    1  UNL1        0.1525
     13 N          -2.9682   -0.2822   -1.9017 N.pl3   1  UNL1       -0.2829
     14 C          -4.0019   -1.0431   -1.2965 C.ar    1  UNL1        0.1196
     15 C          -3.8985   -1.9427   -0.2707 C.ar    1  UNL1        0.0006
     16 C          -5.1651   -2.4059    0.0043 C.ar    1  UNL1        0.0616
     17 C          -5.5945   -3.3943    1.0509 C.3     1  UNL1       -0.0206
     18 N          -5.9972   -1.7975   -0.8368 N.ar    1  UNL1       -0.1775
     19 N          -5.2950   -0.9874   -1.6067 N.ar    1  UNL1       -0.2637
     20 C          -2.5262    1.6907   -0.5694 C.ar    1  UNL1        0.0291
     21 C          -3.7533    2.2075   -0.8874 C.ar    1  UNL1       -0.0505
     22 C          -4.1706    3.4230   -0.3716 C.ar    1  UNL1       -0.0611
     23 C          -3.3732    4.1533    0.4760 C.ar    1  UNL1       -0.0610
     24 C          -2.1315    3.6558    0.8130 C.ar    1  UNL1       -0.0487
     25 C          -1.7302    2.4461    0.2903 C.ar    1  UNL1        0.0514
     26 C          -0.4876    1.9313    0.6052 C.ar    1  UNL1        0.2755
     27 O           0.2641    2.5645    1.3690 O.2     1  UNL1       -0.2655
     28 C           3.9522   -0.9061    0.4980 C.ar    1  UNL1       -0.0478
     29 C           5.2329   -1.4166    0.5563 C.ar    1  UNL1       -0.0193
     30 H           8.9599   -2.7419    0.3068 H       1  UNL1        0.0660
     31 H           7.2731   -3.3215    0.3895 H       1  UNL1        0.0660
     32 H           7.9930   -2.2436    1.7119 H       1  UNL1        0.0660
     33 H           6.7473    0.8717   -1.3956 H       1  UNL1        0.0654
     34 H           4.4481    1.7212   -1.4700 H       1  UNL1        0.0626
     35 H           1.3194    0.4990    1.5576 H       1  UNL1        0.0593
     36 H           1.1657   -0.8427    0.4231 H       1  UNL1        0.0593
     37 H          -2.8578   -0.2682   -2.9154 H       1  UNL1        0.1550
     38 H          -3.0032   -2.2617    0.2484 H       1  UNL1        0.0670
     39 H          -4.7735   -4.0236    1.3907 H       1  UNL1        0.0293
     40 H          -5.9482   -2.7854    1.9390 H       1  UNL1        0.0293
     41 H          -6.4414   -3.9973    0.6871 H       1  UNL1        0.0293
     42 H          -5.7192   -0.3726   -2.3677 H       1  UNL1        0.1903
     43 H          -4.3911    1.6620   -1.5429 H       1  UNL1        0.0625
     44 H          -5.1409    3.7768   -0.6673 H       1  UNL1        0.0618
     45 H          -3.6653    5.0974    0.8929 H       1  UNL1        0.0618
     46 H          -1.4615    4.1693    1.4696 H       1  UNL1        0.0625
     47 H           3.1479   -1.4151    1.0329 H       1  UNL1        0.0626
     48 H           5.4290   -2.2971    1.1287 H       1  UNL1        0.0654
@<TRIPOS>BOND
     1     1     2    1
     2     2     3    1
     3     3     4   ar
     4     4     5   ar
     5     5     6   ar
     6     6     7    1
     7     7     8    2
     8     7     9    1
     9     9    10    1
    10    10    11   ar
    11    11    12   ar
    12    12    13    1
    13    13    14    1
    14    14    15   ar
    15    15    16   ar
    16    16    17    1
    17    16    18   ar
    18    18    19   ar
    19    12    20   ar
    20    20    21   ar
    21    21    22   ar
    22    22    23   ar
    23    23    24   ar
    24    24    25   ar
    25    25    26   ar
    26    26    27    2
    27     6    28   ar
    28    28    29   ar
    29    29     3   ar
    30    26    10   ar
    31    19    14   ar
    32    25    20   ar
    33     1    30    1
    34     1    31    1
    35     1    32    1
    36     4    33    1
    37     5    34    1
    38     9    35    1
    39     9    36    1
    40    13    37    1
    41    15    38    1
    42    17    39    1
    43    17    40    1
    44    17    41    1
    45    19    42    1
    46    21    43    1
    47    22    44    1
    48    23    45    1
    49    24    46    1
    50    28    47    1
    51    29    48    1
