@<TRIPOS>MOLECULE
*****
 49 49 0 0 0
SMALL
GASTEIGER

@<TRIPOS>ATOM
      1 C           0.8291    1.6813    0.4649 C.3     1  UNL1        0.1135
      2 O           0.9375    1.7576    1.8610 O.3     1  UNL1       -0.3864
      3 C           1.6744    0.5690   -0.0713 C.3     1  UNL1        0.1275
      4 O           2.2205    0.9215   -1.3060 O.3     1  UNL1       -0.2781
      5 P           3.9120    1.0531   -1.2268 P.3     1  UNL1        0.4728
      6 O           4.6960   -0.0639   -2.1955 O.3     1  UNL1       -0.3026
      7 O           4.4174    0.7811    0.3783 O.3     1  UNL1       -0.3026
      8 O           4.3623    2.4407   -1.6480 O.2     1  UNL1       -0.2275
      9 C           1.0018   -0.7680   -0.0939 C.3     1  UNL1        0.1283
     10 O           0.8452   -1.1698    1.2316 O.3     1  UNL1       -0.2780
     11 P           1.6787   -2.5942    1.5713 P.3     1  UNL1        0.4728
     12 O           0.6673   -3.7323    2.2622 O.3     1  UNL1       -0.3026
     13 O           2.2554   -3.2302    0.1113 O.3     1  UNL1       -0.3026
     14 O           2.8244   -2.2038    2.4848 O.2     1  UNL1       -0.2275
     15 C          -0.3812   -0.7601   -0.7116 C.3     1  UNL1        0.1283
     16 O          -0.9235   -2.0143   -0.4345 O.3     1  UNL1       -0.2780
     17 P          -1.4581   -2.8256   -1.7820 P.3     1  UNL1        0.4728
     18 O          -1.7731   -4.4385   -1.3350 O.3     1  UNL1       -0.3026
     19 O          -0.3998   -2.8405   -3.0698 O.3     1  UNL1       -0.3026
     20 O          -2.7499   -2.1889   -2.2421 O.2     1  UNL1       -0.2275
     21 C          -1.1876    0.2299    0.1168 C.3     1  UNL1        0.1283
     22 O          -2.5107    0.2884   -0.2968 O.3     1  UNL1       -0.2780
     23 P          -3.5407   -0.2483    0.9266 P.3     1  UNL1        0.4728
     24 O          -5.1220   -0.1498    0.3403 O.3     1  UNL1       -0.3026
     25 O          -3.1219   -1.8306    1.3152 O.3     1  UNL1       -0.3026
     26 O          -3.4692    0.5727    2.1738 O.2     1  UNL1       -0.2275
     27 C          -0.6134    1.6051    0.0568 C.3     1  UNL1        0.1275
     28 O          -1.3345    2.4065    0.9342 O.3     1  UNL1       -0.2781
     29 P          -2.1253    3.6862    0.1978 P.3     1  UNL1        0.4728
     30 O          -2.1674    5.0473    1.2208 O.3     1  UNL1       -0.3026
     31 O          -1.3349    4.1255   -1.2246 O.3     1  UNL1       -0.3026
     32 O          -3.5668    3.3406   -0.1222 O.2     1  UNL1       -0.2275
     33 H           1.2366    2.6383    0.0730 H       1  UNL1        0.0647
     34 H           1.5706    2.4502    2.1670 H       1  UNL1        0.2100
     35 H           2.5327    0.4724    0.6330 H       1  UNL1        0.0656
     36 H           5.1045    0.3689   -2.9832 H       1  UNL1        0.2220
     37 H           4.2390    1.5822    0.9364 H       1  UNL1        0.2220
     38 H           1.6435   -1.4610   -0.6701 H       1  UNL1        0.0656
     39 H           1.1349   -4.2471    2.9701 H       1  UNL1        0.2220
     40 H           3.2128   -2.9554    0.0148 H       1  UNL1        0.2220
     41 H          -0.3951   -0.5099   -1.7812 H       1  UNL1        0.0656
     42 H          -0.9740   -4.8238   -0.8921 H       1  UNL1        0.2220
     43 H          -0.8997   -3.1855   -3.8539 H       1  UNL1        0.2220
     44 H          -1.1606   -0.1583    1.1529 H       1  UNL1        0.0656
     45 H          -5.2489    0.7451   -0.0564 H       1  UNL1        0.2220
     46 H          -3.4017   -2.0163    2.2521 H       1  UNL1        0.2220
     47 H          -0.7197    1.9953   -0.9651 H       1  UNL1        0.0656
     48 H          -1.7557    4.8310    2.1088 H       1  UNL1        0.2220
     49 H          -0.6613    4.8261   -0.9937 H       1  UNL1        0.2220
@<TRIPOS>BOND
     1     1     2    1
     2     1     3    1
     3     3     4    1
     4     4     5    1
     5     5     6    1
     6     5     7    1
     7     5     8    2
     8     3     9    1
     9     9    10    1
    10    10    11    1
    11    11    12    1
    12    11    13    1
    13    11    14    2
    14     9    15    1
    15    15    16    1
    16    16    17    1
    17    17    18    1
    18    17    19    1
    19    17    20    2
    20    15    21    1
    21    21    22    1
    22    22    23    1
    23    23    24    1
    24    23    25    1
    25    23    26    2
    26    21    27    1
    27    27    28    1
    28    28    29    1
    29    29    30    1
    30    29    31    1
    31    29    32    2
    32    27     1    1
    33     1    33    1
    34     2    34    1
    35     3    35    1
    36     6    36    1
    37     7    37    1
    38     9    38    1
    39    12    39    1
    40    13    40    1
    41    15    41    1
    42    18    42    1
    43    19    43    1
    44    21    44    1
    45    24    45    1
    46    25    46    1
    47    27    47    1
    48    30    48    1
    49    31    49    1
