@<TRIPOS>MOLECULE
*****
 86 91 0 0 0
SMALL
GASTEIGER

@<TRIPOS>ATOM
      1 C          -9.3309    1.9187   -4.7586 C.3     1  UNL1       -0.0397
      2 C          -8.7220    1.5433   -3.4497 C.ar    1  UNL1       -0.0503
      3 C          -8.2029    0.2781   -3.2783 C.ar    1  UNL1       -0.0568
      4 C          -7.6342   -0.0862   -2.0707 C.ar    1  UNL1       -0.0359
      5 C          -7.5597    0.7799   -1.0002 C.ar    1  UNL1        0.0674
      6 N          -6.9582    0.3559    0.2337 N.ar    1  UNL1       -0.2181
      7 N          -7.5520   -0.0417    1.3345 N.ar    1  UNL1       -0.1691
      8 C          -6.6913   -0.3682    2.3053 C.ar    1  UNL1        0.0706
      9 C          -7.0005   -0.8579    3.6841 C.3     1  UNL1        0.0063
     10 C          -5.7302   -1.1148    4.4270 C.3     1  UNL1       -0.0546
     11 C          -7.7559    0.2621    4.3768 C.3     1  UNL1       -0.0546
     12 C          -7.9070   -2.0366    3.5693 C.3     1  UNL1       -0.0546
     13 C          -5.4225   -0.1506    1.7496 C.ar    1  UNL1        0.0021
     14 C          -5.6144    0.2963    0.4699 C.ar    1  UNL1        0.1299
     15 N          -4.6178    0.6483   -0.4755 N.am    1  UNL1       -0.2538
     16 C          -3.2398    0.5846   -0.1753 C.2     1  UNL1        0.3092
     17 O          -2.8011    0.2184    0.9402 O.2     1  UNL1       -0.2521
     18 N          -2.2433    0.9447   -1.1561 N.am    1  UNL1       -0.2686
     19 C          -0.8431    0.8722   -0.8201 C.ar    1  UNL1        0.0427
     20 C          -0.1772    1.9401   -0.2900 C.ar    1  UNL1       -0.0363
     21 C           1.1543    1.8645    0.0231 C.ar    1  UNL1       -0.0169
     22 C           1.8478    0.6851   -0.1992 C.ar    1  UNL1        0.1381
     23 O           3.1870    0.6232    0.1192 O.3     1  UNL1       -0.4373
     24 C           4.2090    0.4609   -0.8007 C.ar    1  UNL1        0.2249
     25 C           4.0027    0.3964   -2.1748 C.ar    1  UNL1        0.0186
     26 C           5.0733    0.2382   -3.0085 C.ar    1  UNL1        0.0362
     27 N           6.3027    0.1475   -2.5007 N.ar    1  UNL1       -0.2225
     28 C           6.5523    0.2069   -1.1444 C.ar    1  UNL1        0.2226
     29 N           7.8940    0.0921   -0.7706 N.pl3   1  UNL1       -0.2833
     30 C           8.3721    0.1559    0.5640 C.ar    1  UNL1        0.0370
     31 C           7.5791    0.4337    1.6496 C.ar    1  UNL1       -0.0402
     32 C           8.1241    0.5088    2.9315 C.ar    1  UNL1       -0.0600
     33 C           9.4639    0.3110    3.1669 C.ar    1  UNL1       -0.0614
     34 C          10.2528    0.0319    2.0686 C.ar    1  UNL1       -0.0566
     35 C           9.7451   -0.0488    0.7962 C.ar    1  UNL1       -0.0236
     36 C          10.6379   -0.3747   -0.3453 C.3     1  UNL1       -0.0198
     37 C          11.0568    0.8296   -1.1206 C.3     1  UNL1       -0.0586
     38 C          11.8678   -1.0788    0.2505 C.3     1  UNL1       -0.0586
     39 N           5.4783    0.3608   -0.3808 N.ar    1  UNL1       -0.1789
     40 C           1.1768   -0.3869   -0.7297 C.ar    1  UNL1        0.0262
     41 C           1.8132   -1.5826   -0.9480 C.ar    1  UNL1       -0.0505
     42 C           1.1126   -2.6480   -1.4673 C.ar    1  UNL1       -0.0611
     43 C          -0.2218   -2.5705   -1.7835 C.ar    1  UNL1       -0.0611
     44 C          -0.8722   -1.3854   -1.5702 C.ar    1  UNL1       -0.0521
     45 C          -0.1848   -0.3138   -1.0519 C.ar    1  UNL1        0.0069
     46 C          -8.0785    2.0460   -1.1698 C.ar    1  UNL1       -0.0359
     47 C          -8.6530    2.4174   -2.3865 C.ar    1  UNL1       -0.0568
     48 H          -8.5552    1.9978   -5.5583 H       1  UNL1        0.0278
     49 H          -9.8355    2.9030   -4.6736 H       1  UNL1        0.0278
     50 H         -10.0791    1.1854   -5.0973 H       1  UNL1        0.0278
     51 H          -8.2638   -0.3963   -4.1200 H       1  UNL1        0.0621
     52 H          -7.2296   -1.0855   -1.9500 H       1  UNL1        0.0639
     53 H          -5.0588   -0.2630    4.3304 H       1  UNL1        0.0239
     54 H          -5.2379   -2.0658    4.1115 H       1  UNL1        0.0239
     55 H          -6.0065   -1.2171    5.5154 H       1  UNL1        0.0239
     56 H          -8.3080   -0.1482    5.2415 H       1  UNL1        0.0239
     57 H          -8.4882    0.7321    3.6895 H       1  UNL1        0.0239
     58 H          -7.0571    1.0496    4.7443 H       1  UNL1        0.0239
     59 H          -8.7064   -2.0362    4.3630 H       1  UNL1        0.0239
     60 H          -7.3576   -2.9954    3.5370 H       1  UNL1        0.0239
     61 H          -8.4850   -1.9496    2.6049 H       1  UNL1        0.0239
     62 H          -4.5173   -0.3312    2.3072 H       1  UNL1        0.0671
     63 H          -4.8979    0.9730   -1.4536 H       1  UNL1        0.1578
     64 H          -2.5627    1.2537   -2.0994 H       1  UNL1        0.1564
     65 H          -0.7516    2.8630   -0.1243 H       1  UNL1        0.0637
     66 H           1.6986    2.6891    0.4403 H       1  UNL1        0.0655
     67 H           3.0028    0.4749   -2.5709 H       1  UNL1        0.0686
     68 H           4.9117    0.1867   -4.0962 H       1  UNL1        0.0832
     69 H           8.6355   -0.0445   -1.5220 H       1  UNL1        0.1550
     70 H           6.5114    0.6024    1.5194 H       1  UNL1        0.0636
     71 H           7.4822    0.7285    3.7711 H       1  UNL1        0.0618
     72 H           9.8890    0.3693    4.1619 H       1  UNL1        0.0618
     73 H          11.3200   -0.1230    2.2684 H       1  UNL1        0.0621
     74 H          10.1772   -1.1128   -0.9973 H       1  UNL1        0.0344
     75 H          10.4355    1.7086   -0.8644 H       1  UNL1        0.0235
     76 H          10.9997    0.6431   -2.2185 H       1  UNL1        0.0235
     77 H          12.1281    1.0433   -0.9034 H       1  UNL1        0.0235
     78 H          12.5529   -0.3259    0.6656 H       1  UNL1        0.0235
     79 H          11.5269   -1.7405    1.0557 H       1  UNL1        0.0235
     80 H          12.4105   -1.6346   -0.5686 H       1  UNL1        0.0235
     81 H           2.8731   -1.6781   -0.6879 H       1  UNL1        0.0625
     82 H           1.6753   -3.5682   -1.6173 H       1  UNL1        0.0618
     83 H          -0.7228   -3.4491   -2.1927 H       1  UNL1        0.0618
     84 H          -1.9156   -1.2593   -1.7961 H       1  UNL1        0.0624
     85 H          -8.0286    2.7349   -0.3442 H       1  UNL1        0.0639
     86 H          -9.0546    3.4109   -2.5044 H       1  UNL1        0.0621
@<TRIPOS>BOND
     1     1     2    1
     2     2     3   ar
     3     3     4   ar
     4     4     5   ar
     5     5     6    1
     6     6     7   ar
     7     7     8   ar
     8     8     9    1
     9     9    10    1
    10     9    11    1
    11     9    12    1
    12     8    13   ar
    13    13    14   ar
    14    14    15    1
    15    15    16   am
    16    16    17    2
    17    16    18   am
    18    18    19    1
    19    19    20   ar
    20    20    21   ar
    21    21    22   ar
    22    22    23    1
    23    23    24    1
    24    24    25   ar
    25    25    26   ar
    26    26    27   ar
    27    27    28   ar
    28    28    29    1
    29    29    30    1
    30    30    31   ar
    31    31    32   ar
    32    32    33   ar
    33    33    34   ar
    34    34    35   ar
    35    35    36    1
    36    36    37    1
    37    36    38    1
    38    28    39   ar
    39    22    40   ar
    40    40    41   ar
    41    41    42   ar
    42    42    43   ar
    43    43    44   ar
    44    44    45   ar
    45     5    46   ar
    46    46    47   ar
    47    47     2   ar
    48    14     6   ar
    49    45    19   ar
    50    39    24   ar
    51    45    40   ar
    52    35    30   ar
    53     1    48    1
    54     1    49    1
    55     1    50    1
    56     3    51    1
    57     4    52    1
    58    10    53    1
    59    10    54    1
    60    10    55    1
    61    11    56    1
    62    11    57    1
    63    11    58    1
    64    12    59    1
    65    12    60    1
    66    12    61    1
    67    13    62    1
    68    15    63    1
    69    18    64    1
    70    20    65    1
    71    21    66    1
    72    25    67    1
    73    26    68    1
    74    29    69    1
    75    31    70    1
    76    32    71    1
    77    33    72    1
    78    34    73    1
    79    36    74    1
    80    37    75    1
    81    37    76    1
    82    37    77    1
    83    38    78    1
    84    38    79    1
    85    38    80    1
    86    41    81    1
    87    42    82    1
    88    43    83    1
    89    44    84    1
    90    46    85    1
    91    47    86    1
