
     RDKit          3D

 70 73  0  0  0  0  0  0  0  0999 V2000
    6.4428   -0.7141   -2.4864 O   0  0  0  0  0  0  0  0  0  0  0  0
    5.5215   -1.2053   -1.5622 C   0  0  2  0  0  0  0  0  0  0  0  0
    4.6862   -0.0430   -1.1163 C   0  0  0  0  0  0  0  0  0  0  0  0
    4.2245    0.0237    0.1323 C   0  0  0  0  0  0  0  0  0  0  0  0
    3.3859    1.0940    0.7477 C   0  0  1  0  0  0  0  0  0  0  0  0
    3.3791    2.3478   -0.0779 C   0  0  0  0  0  0  0  0  0  0  0  0
    2.0734    0.6817    1.2578 C   0  0  1  0  0  0  0  0  0  0  0  0
    1.2303    1.7698    1.8891 C   0  0  0  0  0  0  0  0  0  0  0  0
   -0.2081    1.2397    1.8326 C   0  0  0  0  0  0  0  0  0  0  0  0
   -0.0503   -0.1664    1.3013 C   0  0  1  0  0  0  0  0  0  0  0  0
   -1.2266   -0.6118    0.5248 C   0  0  0  0  0  0  0  0  0  0  0  0
   -0.9627   -1.7553   -0.4322 C   0  0  0  0  0  0  0  0  0  0  0  0
    0.3922   -2.2834   -0.0988 C   0  0  0  0  0  0  0  0  0  0  0  0
    1.4791   -1.2296   -0.2686 C   0  0  0  0  0  0  0  0  0  0  0  0
    1.0888    0.0871    0.2983 C   0  0  2  0  0  0  0  0  0  0  0  0
    0.5291    1.0404   -0.7138 C   0  0  0  0  0  0  0  0  0  0  0  0
   -2.4729   -0.1255    0.5892 C   0  0  0  0  0  0  0  0  0  0  0  0
   -3.4660   -0.7150   -0.2656 C   0  0  0  0  0  0  0  0  0  0  0  0
   -4.7394   -0.3646   -0.3426 C   0  0  0  0  0  0  0  0  0  0  0  0
   -5.7635   -1.0034   -1.2487 C   0  0  0  0  0  0  0  0  0  0  0  0
   -6.9980   -0.1108   -1.1184 C   0  0  1  0  0  0  0  0  0  0  0  0
   -7.9691   -0.4599   -2.0402 O   0  0  0  0  0  0  0  0  0  0  0  0
   -7.4586   -0.2134    0.3111 C   0  0  0  0  0  0  0  0  0  0  0  0
   -6.5491    0.6975    1.1373 C   0  0  2  0  0  0  0  0  0  0  0  0
   -7.0856    1.9777    1.0564 O   0  0  0  0  0  0  0  0  0  0  0  0
   -5.1904    0.7532    0.5188 C   0  0  0  0  0  0  0  0  0  0  0  0
   -4.2984    1.7242    0.6425 C   0  0  0  0  0  0  0  0  0  0  0  0
    6.3463   -1.7406   -0.3865 C   0  0  0  0  0  0  0  0  0  0  0  0
    7.2133   -0.6665    0.2767 C   0  0  0  0  0  0  0  0  0  0  0  0
    7.8029   -1.8703   -0.4625 C   0  0  0  0  0  0  0  0  0  0  0  0
    6.7619    0.1725   -2.1743 H   0  0  0  0  0  0  0  0  0  0  0  0
    4.9481   -2.0205   -2.0050 H   0  0  0  0  0  0  0  0  0  0  0  0
    4.4008    0.7989   -1.7374 H   0  0  0  0  0  0  0  0  0  0  0  0
    4.5159   -0.8229    0.7800 H   0  0  0  0  0  0  0  0  0  0  0  0
    3.9919    1.3867    1.6694 H   0  0  0  0  0  0  0  0  0  0  0  0
    2.8356    2.2854   -1.0296 H   0  0  0  0  0  0  0  0  0  0  0  0
    3.0090    3.1767    0.5589 H   0  0  0  0  0  0  0  0  0  0  0  0
    4.4517    2.5919   -0.3218 H   0  0  0  0  0  0  0  0  0  0  0  0
    2.1660   -0.0961    2.0856 H   0  0  0  0  0  0  0  0  0  0  0  0
    1.2343    2.7214    1.3694 H   0  0  0  0  0  0  0  0  0  0  0  0
    1.4777    1.8861    2.9779 H   0  0  0  0  0  0  0  0  0  0  0  0
   -0.6917    1.2960    2.8111 H   0  0  0  0  0  0  0  0  0  0  0  0
   -0.8099    1.8416    1.1153 H   0  0  0  0  0  0  0  0  0  0  0  0
    0.2369   -0.8614    2.0876 H   0  0  0  0  0  0  0  0  0  0  0  0
   -1.1198   -1.4846   -1.4717 H   0  0  0  0  0  0  0  0  0  0  0  0
   -1.6896   -2.5589   -0.1145 H   0  0  0  0  0  0  0  0  0  0  0  0
    0.6244   -3.0826   -0.8513 H   0  0  0  0  0  0  0  0  0  0  0  0
    0.4019   -2.7762    0.8733 H   0  0  0  0  0  0  0  0  0  0  0  0
    1.5438   -1.0902   -1.3823 H   0  0  0  0  0  0  0  0  0  0  0  0
    2.3946   -1.6461    0.1600 H   0  0  0  0  0  0  0  0  0  0  0  0
    1.0326    0.8795   -1.6974 H   0  0  0  0  0  0  0  0  0  0  0  0
    0.5455    2.0923   -0.4344 H   0  0  0  0  0  0  0  0  0  0  0  0
   -0.5518    0.7774   -0.9379 H   0  0  0  0  0  0  0  0  0  0  0  0
   -2.3993    0.6343    1.3341 H   0  0  0  0  0  0  0  0  0  0  0  0
   -3.2219   -1.5234   -0.9369 H   0  0  0  0  0  0  0  0  0  0  0  0
   -5.4099   -1.1079   -2.2771 H   0  0  0  0  0  0  0  0  0  0  0  0
   -6.0524   -2.0133   -0.8932 H   0  0  0  0  0  0  0  0  0  0  0  0
   -6.6337    0.9448   -1.2668 H   0  0  0  0  0  0  0  0  0  0  0  0
   -7.6890   -0.0737   -2.9046 H   0  0  0  0  0  0  0  0  0  0  0  0
   -8.5126    0.0622    0.4504 H   0  0  0  0  0  0  0  0  0  0  0  0
   -7.2273   -1.2571    0.6662 H   0  0  0  0  0  0  0  0  0  0  0  0
   -6.5283    0.4103    2.2065 H   0  0  0  0  0  0  0  0  0  0  0  0
   -7.8714    2.0578    0.4797 H   0  0  0  0  0  0  0  0  0  0  0  0
   -4.0203    2.7013    1.0685 H   0  0  0  0  0  0  0  0  0  0  0  0
   -4.5428    2.5851    1.2561 H   0  0  0  0  0  0  0  0  0  0  0  0
    5.7738   -2.3741    0.3253 H   0  0  0  0  0  0  0  0  0  0  0  0
    7.3204   -0.6781    1.3857 H   0  0  0  0  0  0  0  0  0  0  0  0
    7.3176    0.3169   -0.2153 H   0  0  0  0  0  0  0  0  0  0  0  0
    8.2585   -2.6525    0.1884 H   0  0  0  0  0  0  0  0  0  0  0  0
    8.3720   -1.6572   -1.3745 H   0  0  0  0  0  0  0  0  0  0  0  0
  1  2  1  0
  2  3  1  0
  3  4  2  0
  4  5  1  0
  5  6  1  0
  5  7  1  0
  7  8  1  0
  8  9  1  0
  9 10  1  0
 10 11  1  0
 11 12  1  0
 12 13  1  0
 13 14  1  0
 14 15  1  0
 15 16  1  6
 11 17  2  0
 17 18  1  0
 18 19  2  0
 19 20  1  0
 20 21  1  0
 21 22  1  0
 21 23  1  0
 23 24  1  0
 24 25  1  0
 24 26  1  0
 26 27  2  0
  2 28  1  0
 28 29  1  0
 29 30  1  0
 15  7  1  0
 26 19  1  0
 30 28  1  0
 15 10  1  0
  1 31  1  0
  2 32  1  6
  3 33  1  0
  4 34  1  0
  5 35  1  1
  6 36  1  0
  6 37  1  0
  6 38  1  0
  7 39  1  1
  8 40  1  0
  8 41  1  0
  9 42  1  0
  9 43  1  0
 10 44  1  1
 12 45  1  0
 12 46  1  0
 13 47  1  0
 13 48  1  0
 14 49  1  0
 14 50  1  0
 16 51  1  0
 16 52  1  0
 16 53  1  0
 17 54  1  0
 18 55  1  0
 20 56  1  0
 20 57  1  0
 21 58  1  6
 22 59  1  0
 23 60  1  0
 23 61  1  0
 24 62  1  1
 25 63  1  0
 27 64  1  0
 27 65  1  0
 28 66  1  0
 29 67  1  0
 29 68  1  0
 30 69  1  0
 30 70  1  0
M  END
$$$$
