@<TRIPOS>MOLECULE
*****
 70 73 0 0 0
SMALL
GASTEIGER

@<TRIPOS>ATOM
      1 O           6.4428   -0.7141   -2.4864 O.3     1  UNL1       -0.3875
      2 C           5.5215   -1.2053   -1.5622 C.3     1  UNL1        0.0762
      3 C           4.6862   -0.0430   -1.1163 C.2     1  UNL1       -0.0593
      4 C           4.2245    0.0237    0.1323 C.2     1  UNL1       -0.0824
      5 C           3.3859    1.0940    0.7477 C.3     1  UNL1       -0.0223
      6 C           3.3791    2.3478   -0.0779 C.3     1  UNL1       -0.0587
      7 C           2.0734    0.6817    1.2578 C.3     1  UNL1       -0.0291
      8 C           1.2303    1.7698    1.8891 C.3     1  UNL1       -0.0486
      9 C          -0.2081    1.2397    1.8326 C.3     1  UNL1       -0.0457
     10 C          -0.0503   -0.1664    1.3013 C.3     1  UNL1       -0.0139
     11 C          -1.2266   -0.6118    0.5248 C.2     1  UNL1       -0.0659
     12 C          -0.9627   -1.7553   -0.4322 C.3     1  UNL1       -0.0312
     13 C           0.3922   -2.2834   -0.0988 C.3     1  UNL1       -0.0488
     14 C           1.4791   -1.2296   -0.2686 C.3     1  UNL1       -0.0465
     15 C           1.0888    0.0871    0.2983 C.3     1  UNL1       -0.0222
     16 C           0.5291    1.0404   -0.7138 C.3     1  UNL1       -0.0587
     17 C          -2.4729   -0.1255    0.5892 C.2     1  UNL1       -0.0620
     18 C          -3.4660   -0.7150   -0.2656 C.2     1  UNL1       -0.0582
     19 C          -4.7394   -0.3646   -0.3426 C.2     1  UNL1       -0.0399
     20 C          -5.7635   -1.0034   -1.2487 C.3     1  UNL1       -0.0011
     21 C          -6.9980   -0.1108   -1.1184 C.3     1  UNL1        0.0619
     22 O          -7.9691   -0.4599   -2.0402 O.3     1  UNL1       -0.3914
     23 C          -7.4586   -0.2134    0.3111 C.3     1  UNL1        0.0037
     24 C          -6.5491    0.6975    1.1373 C.3     1  UNL1        0.0822
     25 O          -7.0856    1.9777    1.0564 O.3     1  UNL1       -0.3871
     26 C          -5.1904    0.7532    0.5188 C.2     1  UNL1       -0.0229
     27 C          -4.2984    1.7242    0.6425 C.2     1  UNL1       -0.0928
     28 C           6.3463   -1.7406   -0.3865 C.3     1  UNL1       -0.0113
     29 C           7.2133   -0.6665    0.2767 C.3     1  UNL1       -0.0472
     30 C           7.8029   -1.8703   -0.4625 C.3     1  UNL1       -0.0472
     31 H           6.7619    0.1725   -2.1743 H       1  UNL1        0.2102
     32 H           4.9481   -2.0205   -2.0050 H       1  UNL1        0.0640
     33 H           4.4008    0.7989   -1.7374 H       1  UNL1        0.0595
     34 H           4.5159   -0.8229    0.7800 H       1  UNL1        0.0573
     35 H           3.9919    1.3867    1.6694 H       1  UNL1        0.0343
     36 H           2.8356    2.2854   -1.0296 H       1  UNL1        0.0235
     37 H           3.0090    3.1767    0.5589 H       1  UNL1        0.0235
     38 H           4.4517    2.5919   -0.3218 H       1  UNL1        0.0235
     39 H           2.1660   -0.0961    2.0856 H       1  UNL1        0.0312
     40 H           1.2343    2.7214    1.3694 H       1  UNL1        0.0268
     41 H           1.4777    1.8861    2.9779 H       1  UNL1        0.0268
     42 H          -0.6917    1.2960    2.8111 H       1  UNL1        0.0271
     43 H          -0.8099    1.8416    1.1153 H       1  UNL1        0.0271
     44 H           0.2369   -0.8614    2.0876 H       1  UNL1        0.0351
     45 H          -1.1198   -1.4846   -1.4717 H       1  UNL1        0.0310
     46 H          -1.6896   -2.5589   -0.1145 H       1  UNL1        0.0310
     47 H           0.6244   -3.0826   -0.8513 H       1  UNL1        0.0268
     48 H           0.4019   -2.7762    0.8733 H       1  UNL1        0.0268
     49 H           1.5438   -1.0902   -1.3823 H       1  UNL1        0.0271
     50 H           2.3946   -1.6461    0.1600 H       1  UNL1        0.0271
     51 H           1.0326    0.8795   -1.6974 H       1  UNL1        0.0235
     52 H           0.5455    2.0923   -0.4344 H       1  UNL1        0.0235
     53 H          -0.5518    0.7774   -0.9379 H       1  UNL1        0.0235
     54 H          -2.3993    0.6343    1.3341 H       1  UNL1        0.0617
     55 H          -3.2219   -1.5234   -0.9369 H       1  UNL1        0.0620
     56 H          -5.4099   -1.1079   -2.2771 H       1  UNL1        0.0338
     57 H          -6.0524   -2.0133   -0.8932 H       1  UNL1        0.0338
     58 H          -6.6337    0.9448   -1.2668 H       1  UNL1        0.0597
     59 H          -7.6890   -0.0737   -2.9046 H       1  UNL1        0.2098
     60 H          -8.5126    0.0622    0.4504 H       1  UNL1        0.0318
     61 H          -7.2273   -1.2571    0.6662 H       1  UNL1        0.0318
     62 H          -6.5283    0.4103    2.2065 H       1  UNL1        0.0644
     63 H          -7.8714    2.0578    0.4797 H       1  UNL1        0.2102
     64 H          -4.0203    2.7013    1.0685 H       1  UNL1        0.0538
     65 H          -4.5428    2.5851    1.2561 H       1  UNL1        0.0538
     66 H           5.7738   -2.3741    0.3253 H       1  UNL1        0.0329
     67 H           7.3204   -0.6781    1.3857 H       1  UNL1        0.0269
     68 H           7.3176    0.3169   -0.2153 H       1  UNL1        0.0269
     69 H           8.2585   -2.6525    0.1884 H       1  UNL1        0.0269
     70 H           8.3720   -1.6572   -1.3745 H       1  UNL1        0.0269
@<TRIPOS>BOND
     1     1     2    1
     2     2     3    1
     3     3     4    2
     4     4     5    1
     5     5     6    1
     6     5     7    1
     7     7     8    1
     8     8     9    1
     9     9    10    1
    10    10    11    1
    11    11    12    1
    12    12    13    1
    13    13    14    1
    14    14    15    1
    15    15    16    1
    16    11    17    2
    17    17    18    1
    18    18    19    2
    19    19    20    1
    20    20    21    1
    21    21    22    1
    22    21    23    1
    23    23    24    1
    24    24    25    1
    25    24    26    1
    26    26    27    2
    27     2    28    1
    28    28    29    1
    29    29    30    1
    30    15     7    1
    31    26    19    1
    32    30    28    1
    33    15    10    1
    34     1    31    1
    35     2    32    1
    36     3    33    1
    37     4    34    1
    38     5    35    1
    39     6    36    1
    40     6    37    1
    41     6    38    1
    42     7    39    1
    43     8    40    1
    44     8    41    1
    45     9    42    1
    46     9    43    1
    47    10    44    1
    48    12    45    1
    49    12    46    1
    50    13    47    1
    51    13    48    1
    52    14    49    1
    53    14    50    1
    54    16    51    1
    55    16    52    1
    56    16    53    1
    57    17    54    1
    58    18    55    1
    59    20    56    1
    60    20    57    1
    61    21    58    1
    62    22    59    1
    63    23    60    1
    64    23    61    1
    65    24    62    1
    66    25    63    1
    67    27    64    1
    68    27    65    1
    69    28    66    1
    70    29    67    1
    71    29    68    1
    72    30    69    1
    73    30    70    1
