@<TRIPOS>MOLECULE
*****
 51 54 0 0 0
SMALL
GASTEIGER

@<TRIPOS>ATOM
      1 C           2.8267    4.4855    1.0695 C.3     1  UNL1       -0.0135
      2 S           3.4204    3.7493   -0.4908 S.3     1  UNL1       -0.1285
      3 C           3.4826    1.9710   -0.2730 C.ar    1  UNL1        0.0094
      4 C           2.4201    1.1285   -0.5548 C.ar    1  UNL1       -0.0258
      5 C           2.4315   -0.2389   -0.4002 C.ar    1  UNL1        0.0489
      6 C           3.6302   -0.7059    0.0743 C.ar    1  UNL1        0.0342
      7 S           3.8973   -2.4398    0.3715 S.3     1  UNL1       -0.0857
      8 C           2.3558   -3.1888   -0.1100 C.ar    1  UNL1        0.0341
      9 C           2.3675   -4.5495    0.0225 C.ar    1  UNL1       -0.0462
     10 C           1.2333   -5.2756   -0.3233 C.ar    1  UNL1       -0.0606
     11 C           0.1271   -4.5596   -0.7950 C.ar    1  UNL1       -0.0599
     12 C           0.2065   -3.1804   -0.8961 C.ar    1  UNL1       -0.0393
     13 C           1.3022   -2.4392   -0.5651 C.ar    1  UNL1        0.0479
     14 N           1.3155   -1.0309   -0.7105 N.pl3   1  UNL1       -0.2982
     15 C           0.1339   -0.4079   -1.1542 C.3     1  UNL1        0.0188
     16 C          -0.9111   -0.4188   -0.0516 C.3     1  UNL1       -0.0212
     17 C          -2.2051    0.2430   -0.5466 C.3     1  UNL1        0.0116
     18 C          -1.9033    1.6434   -0.9331 C.3     1  UNL1       -0.0373
     19 C          -3.1440    2.5059   -0.8919 C.3     1  UNL1       -0.0505
     20 C          -3.6242    2.4823    0.5365 C.3     1  UNL1       -0.0402
     21 C          -3.8273    1.1001    1.0666 C.3     1  UNL1       -0.0011
     22 N          -3.2066    0.0360    0.4065 N.3     1  UNL1       -0.3023
     23 C          -3.9198   -1.1962    0.3473 C.3     1  UNL1       -0.0125
     24 C           4.7295    0.0550    0.3780 C.ar    1  UNL1       -0.0451
     25 C           4.6612    1.4328    0.2019 C.ar    1  UNL1       -0.0472
     26 H           3.5782    4.3244    1.8624 H       1  UNL1        0.0344
     27 H           2.5579    5.5426    0.9269 H       1  UNL1        0.0344
     28 H           1.9232    3.8900    1.3649 H       1  UNL1        0.0344
     29 H           1.5805    1.6725   -0.9083 H       1  UNL1        0.0647
     30 H           3.1846   -5.1497    0.3773 H       1  UNL1        0.0629
     31 H           1.2000   -6.3513   -0.2339 H       1  UNL1        0.0618
     32 H          -0.7351   -5.1743   -1.0520 H       1  UNL1        0.0618
     33 H          -0.6993   -2.7971   -1.2771 H       1  UNL1        0.0636
     34 H           0.1030    0.5782   -1.5513 H       1  UNL1        0.0468
     35 H          -0.2335   -1.0180   -2.0440 H       1  UNL1        0.0468
     36 H          -0.4611    0.2894    0.7250 H       1  UNL1        0.0296
     37 H          -1.0534   -1.3444    0.4753 H       1  UNL1        0.0296
     38 H          -2.4616   -0.3308   -1.4745 H       1  UNL1        0.0463
     39 H          -1.0862    2.0664   -0.3240 H       1  UNL1        0.0280
     40 H          -1.5444    1.7000   -1.9940 H       1  UNL1        0.0280
     41 H          -2.8797    3.5510   -1.1409 H       1  UNL1        0.0266
     42 H          -3.9036    2.0698   -1.5442 H       1  UNL1        0.0266
     43 H          -4.5271    3.1266    0.6020 H       1  UNL1        0.0278
     44 H          -2.8389    3.0194    1.1447 H       1  UNL1        0.0278
     45 H          -3.5613    1.0759    2.1525 H       1  UNL1        0.0426
     46 H          -4.9428    0.9196    1.0449 H       1  UNL1        0.0426
     47 H          -3.1743   -2.0235    0.5334 H       1  UNL1        0.0391
     48 H          -4.3360   -1.3883   -0.6524 H       1  UNL1        0.0391
     49 H          -4.6598   -1.2206    1.1741 H       1  UNL1        0.0391
     50 H           5.6697   -0.3006    0.7487 H       1  UNL1        0.0630
     51 H           5.5018    2.0713    0.4278 H       1  UNL1        0.0629
@<TRIPOS>BOND
     1     1     2    1
     2     2     3    1
     3     3     4   ar
     4     4     5   ar
     5     5     6   ar
     6     6     7    1
     7     7     8    1
     8     8     9   ar
     9     9    10   ar
    10    10    11   ar
    11    11    12   ar
    12    12    13   ar
    13    13    14    1
    14    14    15    1
    15    15    16    1
    16    16    17    1
    17    17    18    1
    18    18    19    1
    19    19    20    1
    20    20    21    1
    21    21    22    1
    22    22    23    1
    23     6    24   ar
    24    24    25   ar
    25    25     3   ar
    26    14     5    1
    27    22    17    1
    28    13     8   ar
    29     1    26    1
    30     1    27    1
    31     1    28    1
    32     4    29    1
    33     9    30    1
    34    10    31    1
    35    11    32    1
    36    12    33    1
    37    15    34    1
    38    15    35    1
    39    16    36    1
    40    16    37    1
    41    17    38    1
    42    18    39    1
    43    18    40    1
    44    19    41    1
    45    19    42    1
    46    20    43    1
    47    20    44    1
    48    21    45    1
    49    21    46    1
    50    23    47    1
    51    23    48    1
    52    23    49    1
    53    24    50    1
    54    25    51    1
