
     RDKit          3D

 48 51  0  0  0  0  0  0  0  0999 V2000
    8.1726    1.2868    1.5146 C   0  0  0  0  0  0  0  0  0  0  0  0
    7.1090    0.8970    0.5279 C   0  0  0  0  0  0  0  0  0  0  0  0
    5.8923    0.4275    0.7500 N   0  0  0  0  0  0  0  0  0  0  0  0
    5.3049    0.2237   -0.4539 C   0  0  0  0  0  0  0  0  0  0  0  0
    3.9571   -0.2878   -0.7002 C   0  0  0  0  0  0  0  0  0  0  0  0
    3.5802   -0.4115   -1.8860 O   0  0  0  0  0  0  0  0  0  0  0  0
    3.0629   -0.6481    0.3380 N   0  0  0  0  0  0  0  0  0  0  0  0
    1.7554   -1.1436    0.0629 C   0  0  0  0  0  0  0  0  0  0  0  0
    1.5181   -2.4924   -0.0946 C   0  0  0  0  0  0  0  0  0  0  0  0
    0.2504   -2.9660   -0.3609 C   0  0  0  0  0  0  0  0  0  0  0  0
   -0.8365   -2.1262   -0.4827 C   0  0  0  0  0  0  0  0  0  0  0  0
   -2.0707   -2.5672   -0.7414 F   0  0  0  0  0  0  0  0  0  0  0  0
   -0.6058   -0.7631   -0.3251 C   0  0  0  0  0  0  0  0  0  0  0  0
   -1.7843    0.1501   -0.4551 C   0  0  0  0  0  0  0  0  0  0  0  0
   -1.2428    1.5841   -0.3627 C   0  0  0  0  0  0  0  0  0  0  0  0
   -2.4032    0.0545   -1.7362 N   0  0  0  0  0  0  0  0  0  0  0  0
   -3.6125   -0.3000   -1.9890 C   0  0  0  0  0  0  0  0  0  0  0  0
   -4.0721   -0.3419   -3.3309 N   0  0  0  0  0  0  0  0  0  0  0  0
   -4.4156   -0.6286   -0.9070 O   0  0  0  0  0  0  0  0  0  0  0  0
   -4.1670    0.0184    0.3136 C   0  0  0  0  0  0  0  0  0  0  0  0
   -5.0678   -0.3850    1.4526 C   0  0  0  0  0  0  0  0  0  0  0  0
   -5.9009    0.8509    1.2003 C   0  0  0  0  0  0  0  0  0  0  0  0
   -4.7936    1.3974    0.3187 C   0  0  0  0  0  0  0  0  0  0  0  0
   -2.7150   -0.0199    0.7090 C   0  0  0  0  0  0  0  0  0  0  0  0
   -2.4078   -1.1917    1.3730 F   0  0  0  0  0  0  0  0  0  0  0  0
   -2.5457    0.9968    1.6592 F   0  0  0  0  0  0  0  0  0  0  0  0
    0.6658   -0.2929   -0.0584 C   0  0  0  0  0  0  0  0  0  0  0  0
    6.2399    0.5979   -1.3957 C   0  0  0  0  0  0  0  0  0  0  0  0
    7.2952    0.9906   -0.7581 O   0  0  0  0  0  0  0  0  0  0  0  0
    7.7226    1.6983    2.4452 H   0  0  0  0  0  0  0  0  0  0  0  0
    8.8785    2.0191    1.0697 H   0  0  0  0  0  0  0  0  0  0  0  0
    8.7675    0.3769    1.7914 H   0  0  0  0  0  0  0  0  0  0  0  0
    3.3810   -0.5438    1.3416 H   0  0  0  0  0  0  0  0  0  0  0  0
    2.3558   -3.1737   -0.0037 H   0  0  0  0  0  0  0  0  0  0  0  0
    0.0701   -4.0416   -0.4849 H   0  0  0  0  0  0  0  0  0  0  0  0
   -2.1314    2.2447   -0.4598 H   0  0  0  0  0  0  0  0  0  0  0  0
   -0.8391    1.7322    0.6522 H   0  0  0  0  0  0  0  0  0  0  0  0
   -0.4655    1.7955   -1.0916 H   0  0  0  0  0  0  0  0  0  0  0  0
   -3.4839   -0.8253   -4.0390 H   0  0  0  0  0  0  0  0  0  0  0  0
   -4.9719    0.0952   -3.6137 H   0  0  0  0  0  0  0  0  0  0  0  0
   -4.6210   -0.3300    2.4650 H   0  0  0  0  0  0  0  0  0  0  0  0
   -5.5626   -1.3444    1.2176 H   0  0  0  0  0  0  0  0  0  0  0  0
   -6.8346    0.6554    0.6437 H   0  0  0  0  0  0  0  0  0  0  0  0
   -6.0923    1.4907    2.0765 H   0  0  0  0  0  0  0  0  0  0  0  0
   -5.1730    1.7548   -0.6505 H   0  0  0  0  0  0  0  0  0  0  0  0
   -4.1564    2.1367    0.8238 H   0  0  0  0  0  0  0  0  0  0  0  0
    0.8516    0.7704    0.0658 H   0  0  0  0  0  0  0  0  0  0  0  0
    6.1418    0.5792   -2.4794 H   0  0  0  0  0  0  0  0  0  0  0  0
  1  2  1  0
  2  3  2  0
  3  4  1  0
  4  5  1  0
  5  6  2  0
  5  7  1  0
  7  8  1  0
  8  9  2  0
  9 10  1  0
 10 11  2  0
 11 12  1  0
 11 13  1  0
 13 14  1  0
 14 15  1  0
 14 16  1  0
 16 17  2  0
 17 18  1  0
 17 19  1  0
 19 20  1  0
 20 21  1  0
 21 22  1  0
 22 23  1  0
 20 24  1  0
 24 25  1  0
 24 26  1  0
 13 27  2  0
  4 28  2  0
 28 29  1  0
 29  2  1  0
 27  8  1  0
 24 14  1  0
 23 20  1  0
  1 30  1  0
  1 31  1  0
  1 32  1  0
  7 33  1  0
  9 34  1  0
 10 35  1  0
 15 36  1  0
 15 37  1  0
 15 38  1  0
 18 39  1  0
 18 40  1  0
 21 41  1  0
 21 42  1  0
 22 43  1  0
 22 44  1  0
 23 45  1  0
 23 46  1  0
 27 47  1  0
 28 48  1  0
M  END
$$$$
