@<TRIPOS>MOLECULE
*****
 48 51 0 0 0
SMALL
GASTEIGER

@<TRIPOS>ATOM
      1 C           8.1726    1.2868    1.5146 C.3     1  UNL1        0.0121
      2 C           7.1090    0.8970    0.5279 C.ar    1  UNL1        0.1929
      3 N           5.8923    0.4275    0.7500 N.ar    1  UNL1       -0.2089
      4 C           5.3049    0.2237   -0.4539 C.ar    1  UNL1        0.1638
      5 C           3.9571   -0.2878   -0.7002 C.2     1  UNL1        0.2697
      6 O           3.5802   -0.4115   -1.8860 O.2     1  UNL1       -0.2681
      7 N           3.0629   -0.6481    0.3380 N.am    1  UNL1       -0.2802
      8 C           1.7554   -1.1436    0.0629 C.ar    1  UNL1        0.0342
      9 C           1.5181   -2.4924   -0.0946 C.ar    1  UNL1       -0.0377
     10 C           0.2504   -2.9660   -0.3609 C.ar    1  UNL1       -0.0243
     11 C          -0.8365   -2.1262   -0.4827 C.ar    1  UNL1        0.1292
     12 F          -2.0707   -2.5672   -0.7414 F       1  UNL1       -0.2051
     13 C          -0.6058   -0.7631   -0.3251 C.ar    1  UNL1        0.0226
     14 C          -1.7843    0.1501   -0.4551 C.3     1  UNL1        0.1580
     15 C          -1.2428    1.5841   -0.3627 C.3     1  UNL1       -0.0295
     16 N          -2.4032    0.0545   -1.7362 N.2     1  UNL1       -0.2196
     17 C          -3.6125   -0.3000   -1.9890 C.2     1  UNL1        0.2768
     18 N          -4.0721   -0.3419   -3.3309 N.pl3   1  UNL1       -0.3133
     19 O          -4.4156   -0.6286   -0.9070 O.2     1  UNL1       -0.4532
     20 C          -4.1670    0.0184    0.3136 C.3     1  UNL1        0.1786
     21 C          -5.0678   -0.3850    1.4526 C.3     1  UNL1       -0.0068
     22 C          -5.9009    0.8509    1.2003 C.3     1  UNL1       -0.0454
     23 C          -4.7936    1.3974    0.3187 C.3     1  UNL1       -0.0068
     24 C          -2.7150   -0.0199    0.7090 C.3     1  UNL1        0.3159
     25 F          -2.4078   -1.1917    1.3730 F       1  UNL1       -0.1983
     26 F          -2.5457    0.9968    1.6592 F       1  UNL1       -0.1983
     27 C           0.6658   -0.2929   -0.0584 C.ar    1  UNL1       -0.0321
     28 C           6.2399    0.5979   -1.3957 C.ar    1  UNL1        0.1245
     29 O           7.2952    0.9906   -0.7581 O.2     1  UNL1       -0.4474
     30 H           7.7226    1.6983    2.4452 H       1  UNL1        0.0324
     31 H           8.8785    2.0191    1.0697 H       1  UNL1        0.0324
     32 H           8.7675    0.3769    1.7914 H       1  UNL1        0.0324
     33 H           3.3810   -0.5438    1.3416 H       1  UNL1        0.1552
     34 H           2.3558   -3.1737   -0.0037 H       1  UNL1        0.0637
     35 H           0.0701   -4.0416   -0.4849 H       1  UNL1        0.0647
     36 H          -2.1314    2.2447   -0.4598 H       1  UNL1        0.0258
     37 H          -0.8391    1.7322    0.6522 H       1  UNL1        0.0258
     38 H          -0.4655    1.7955   -1.0916 H       1  UNL1        0.0258
     39 H          -3.4839   -0.8253   -4.0390 H       1  UNL1        0.1466
     40 H          -4.9719    0.0952   -3.6137 H       1  UNL1        0.1466
     41 H          -4.6210   -0.3300    2.4650 H       1  UNL1        0.0306
     42 H          -5.5626   -1.3444    1.2176 H       1  UNL1        0.0306
     43 H          -6.8346    0.6554    0.6437 H       1  UNL1        0.0268
     44 H          -6.0923    1.4907    2.0765 H       1  UNL1        0.0268
     45 H          -5.1730    1.7548   -0.6505 H       1  UNL1        0.0306
     46 H          -4.1564    2.1367    0.8238 H       1  UNL1        0.0306
     47 H           0.8516    0.7704    0.0658 H       1  UNL1        0.0640
     48 H           6.1418    0.5792   -2.4794 H       1  UNL1        0.1054
@<TRIPOS>BOND
     1     1     2    1
     2     2     3   ar
     3     3     4   ar
     4     4     5    1
     5     5     6    2
     6     5     7   am
     7     7     8    1
     8     8     9   ar
     9     9    10   ar
    10    10    11   ar
    11    11    12    1
    12    11    13   ar
    13    13    14    1
    14    14    15    1
    15    14    16    1
    16    16    17    2
    17    17    18    1
    18    17    19    1
    19    19    20    1
    20    20    21    1
    21    21    22    1
    22    22    23    1
    23    20    24    1
    24    24    25    1
    25    24    26    1
    26    13    27   ar
    27     4    28   ar
    28    28    29   ar
    29    29     2   ar
    30    27     8   ar
    31    24    14    1
    32    23    20    1
    33     1    30    1
    34     1    31    1
    35     1    32    1
    36     7    33    1
    37     9    34    1
    38    10    35    1
    39    15    36    1
    40    15    37    1
    41    15    38    1
    42    18    39    1
    43    18    40    1
    44    21    41    1
    45    21    42    1
    46    22    43    1
    47    22    44    1
    48    23    45    1
    49    23    46    1
    50    27    47    1
    51    28    48    1
