@<TRIPOS>MOLECULE
*****
 46 49 0 0 0
SMALL
GASTEIGER

@<TRIPOS>ATOM
      1 C          -4.3205    2.4961   -1.7653 C.3     1  UNL1        0.0790
      2 O          -4.2845    1.1985   -1.2477 O.3     1  UNL1       -0.4913
      3 C          -3.1199    0.7722   -0.5810 C.ar    1  UNL1        0.1657
      4 C          -2.0331    1.6061   -0.4357 C.ar    1  UNL1       -0.0082
      5 C          -0.8649    1.2547    0.2032 C.ar    1  UNL1       -0.0050
      6 C           0.2856    2.1184    0.3862 C.2     1  UNL1        0.0572
      7 C           1.5490    1.7788    0.2104 C.2     1  UNL1        0.0589
      8 C           1.9719    0.4484   -0.2085 C.ar    1  UNL1        0.0129
      9 C           1.4188   -0.3046   -1.2628 C.ar    1  UNL1        0.0106
     10 N           2.0512   -1.4863   -1.3445 N.ar    1  UNL1       -0.3600
     11 C           3.0072   -1.5791   -0.4000 C.ar    1  UNL1        0.0471
     12 C           3.9141   -2.5761   -0.0676 C.ar    1  UNL1       -0.0378
     13 C           4.7983   -2.4088    0.9763 C.ar    1  UNL1       -0.0598
     14 C           4.7540   -1.2215    1.6795 C.ar    1  UNL1       -0.0611
     15 C           3.8442   -0.2445    1.3314 C.ar    1  UNL1       -0.0520
     16 C           2.9502   -0.3810    0.2955 C.ar    1  UNL1        0.0075
     17 C           2.3816    2.9369    0.4920 C.2     1  UNL1        0.2519
     18 O           3.6362    2.9505    0.4164 O.2     1  UNL1       -0.2697
     19 N           1.5427    4.0427    0.8632 N.am    1  UNL1       -0.2483
     20 C           0.2099    3.5170    0.7946 C.2     1  UNL1        0.2518
     21 O          -0.7913    4.2167    1.0588 O.2     1  UNL1       -0.2697
     22 C          -0.8183   -0.0438    0.7259 C.ar    1  UNL1       -0.0082
     23 C          -1.8786   -0.9089    0.6041 C.ar    1  UNL1        0.1657
     24 O          -1.8374   -2.1750    1.1121 O.3     1  UNL1       -0.4913
     25 C          -0.7154   -2.7138    1.8058 C.3     1  UNL1        0.0790
     26 C          -3.0255   -0.4927   -0.0506 C.ar    1  UNL1        0.2035
     27 O          -4.1228   -1.3331   -0.1976 O.3     1  UNL1       -0.4885
     28 C          -4.2926   -2.2048   -1.2998 C.3     1  UNL1        0.0791
     29 H          -4.2070    3.2460   -0.9338 H       1  UNL1        0.0660
     30 H          -5.2497    2.6834   -2.3521 H       1  UNL1        0.0660
     31 H          -3.4795    2.6389   -2.4615 H       1  UNL1        0.0660
     32 H          -2.0844    2.6183   -0.8483 H       1  UNL1        0.0661
     33 H           0.6047    0.0611   -1.8861 H       1  UNL1        0.0813
     34 H           1.8630   -2.2578   -2.0288 H       1  UNL1        0.1654
     35 H           3.9486   -3.5058   -0.6182 H       1  UNL1        0.0638
     36 H           5.5179   -3.1876    1.2490 H       1  UNL1        0.0618
     37 H           5.4353   -1.0621    2.5036 H       1  UNL1        0.0618
     38 H           3.7989    0.6985    1.8905 H       1  UNL1        0.0624
     39 H           1.8664    5.0010    1.1195 H       1  UNL1        0.1581
     40 H           0.0725   -0.3859    1.2524 H       1  UNL1        0.0661
     41 H          -0.8395   -3.8070    1.9503 H       1  UNL1        0.0660
     42 H           0.1853   -2.5145    1.2142 H       1  UNL1        0.0660
     43 H          -0.6509   -2.2386    2.8288 H       1  UNL1        0.0660
     44 H          -3.5192   -1.9836   -2.0610 H       1  UNL1        0.0660
     45 H          -4.1826   -3.2463   -0.9172 H       1  UNL1        0.0660
     46 H          -5.2900   -2.0213   -1.7425 H       1  UNL1        0.0660
@<TRIPOS>BOND
     1     1     2    1
     2     2     3    1
     3     3     4   ar
     4     4     5   ar
     5     5     6    1
     6     6     7    2
     7     7     8    1
     8     8     9   ar
     9     9    10   ar
    10    10    11   ar
    11    11    12   ar
    12    12    13   ar
    13    13    14   ar
    14    14    15   ar
    15    15    16   ar
    16     7    17    1
    17    17    18    2
    18    17    19   am
    19    19    20   am
    20    20    21    2
    21     5    22   ar
    22    22    23   ar
    23    23    24    1
    24    24    25    1
    25    23    26   ar
    26    26    27    1
    27    27    28    1
    28    26     3   ar
    29    20     6    1
    30    16     8   ar
    31    16    11   ar
    32     1    29    1
    33     1    30    1
    34     1    31    1
    35     4    32    1
    36     9    33    1
    37    10    34    1
    38    12    35    1
    39    13    36    1
    40    14    37    1
    41    15    38    1
    42    19    39    1
    43    22    40    1
    44    25    41    1
    45    25    42    1
    46    25    43    1
    47    28    44    1
    48    28    45    1
    49    28    46    1
