
     RDKit          3D

 46 49  0  0  0  0  0  0  0  0999 V2000
   -4.3205    2.4961   -1.7653 C   0  0  0  0  0  0  0  0  0  0  0  0
   -4.2845    1.1985   -1.2477 O   0  0  0  0  0  0  0  0  0  0  0  0
   -3.1199    0.7722   -0.5810 C   0  0  0  0  0  0  0  0  0  0  0  0
   -2.0331    1.6061   -0.4357 C   0  0  0  0  0  0  0  0  0  0  0  0
   -0.8649    1.2547    0.2032 C   0  0  0  0  0  0  0  0  0  0  0  0
    0.2856    2.1184    0.3862 C   0  0  0  0  0  0  0  0  0  0  0  0
    1.5490    1.7788    0.2104 C   0  0  0  0  0  0  0  0  0  0  0  0
    1.9719    0.4484   -0.2085 C   0  0  0  0  0  0  0  0  0  0  0  0
    1.4188   -0.3046   -1.2628 C   0  0  0  0  0  0  0  0  0  0  0  0
    2.0512   -1.4863   -1.3445 N   0  0  0  0  0  0  0  0  0  0  0  0
    3.0072   -1.5791   -0.4000 C   0  0  0  0  0  0  0  0  0  0  0  0
    3.9141   -2.5761   -0.0676 C   0  0  0  0  0  0  0  0  0  0  0  0
    4.7983   -2.4088    0.9763 C   0  0  0  0  0  0  0  0  0  0  0  0
    4.7540   -1.2215    1.6795 C   0  0  0  0  0  0  0  0  0  0  0  0
    3.8442   -0.2445    1.3314 C   0  0  0  0  0  0  0  0  0  0  0  0
    2.9502   -0.3810    0.2955 C   0  0  0  0  0  0  0  0  0  0  0  0
    2.3816    2.9369    0.4920 C   0  0  0  0  0  0  0  0  0  0  0  0
    3.6362    2.9505    0.4164 O   0  0  0  0  0  0  0  0  0  0  0  0
    1.5427    4.0427    0.8632 N   0  0  0  0  0  0  0  0  0  0  0  0
    0.2099    3.5170    0.7946 C   0  0  0  0  0  0  0  0  0  0  0  0
   -0.7913    4.2167    1.0588 O   0  0  0  0  0  0  0  0  0  0  0  0
   -0.8183   -0.0438    0.7259 C   0  0  0  0  0  0  0  0  0  0  0  0
   -1.8786   -0.9089    0.6041 C   0  0  0  0  0  0  0  0  0  0  0  0
   -1.8374   -2.1750    1.1121 O   0  0  0  0  0  0  0  0  0  0  0  0
   -0.7154   -2.7138    1.8058 C   0  0  0  0  0  0  0  0  0  0  0  0
   -3.0255   -0.4927   -0.0506 C   0  0  0  0  0  0  0  0  0  0  0  0
   -4.1228   -1.3331   -0.1976 O   0  0  0  0  0  0  0  0  0  0  0  0
   -4.2926   -2.2048   -1.2998 C   0  0  0  0  0  0  0  0  0  0  0  0
   -4.2070    3.2460   -0.9338 H   0  0  0  0  0  0  0  0  0  0  0  0
   -5.2497    2.6834   -2.3521 H   0  0  0  0  0  0  0  0  0  0  0  0
   -3.4795    2.6389   -2.4615 H   0  0  0  0  0  0  0  0  0  0  0  0
   -2.0844    2.6183   -0.8483 H   0  0  0  0  0  0  0  0  0  0  0  0
    0.6047    0.0611   -1.8861 H   0  0  0  0  0  0  0  0  0  0  0  0
    1.8630   -2.2578   -2.0288 H   0  0  0  0  0  0  0  0  0  0  0  0
    3.9486   -3.5058   -0.6182 H   0  0  0  0  0  0  0  0  0  0  0  0
    5.5179   -3.1876    1.2490 H   0  0  0  0  0  0  0  0  0  0  0  0
    5.4353   -1.0621    2.5036 H   0  0  0  0  0  0  0  0  0  0  0  0
    3.7989    0.6985    1.8905 H   0  0  0  0  0  0  0  0  0  0  0  0
    1.8664    5.0010    1.1195 H   0  0  0  0  0  0  0  0  0  0  0  0
    0.0725   -0.3859    1.2524 H   0  0  0  0  0  0  0  0  0  0  0  0
   -0.8395   -3.8070    1.9503 H   0  0  0  0  0  0  0  0  0  0  0  0
    0.1853   -2.5145    1.2142 H   0  0  0  0  0  0  0  0  0  0  0  0
   -0.6509   -2.2386    2.8288 H   0  0  0  0  0  0  0  0  0  0  0  0
   -3.5192   -1.9836   -2.0610 H   0  0  0  0  0  0  0  0  0  0  0  0
   -4.1826   -3.2463   -0.9172 H   0  0  0  0  0  0  0  0  0  0  0  0
   -5.2900   -2.0213   -1.7425 H   0  0  0  0  0  0  0  0  0  0  0  0
  1  2  1  0
  2  3  1  0
  3  4  2  0
  4  5  1  0
  5  6  1  0
  6  7  2  0
  7  8  1  0
  8  9  2  0
  9 10  1  0
 10 11  1  0
 11 12  2  0
 12 13  1  0
 13 14  2  0
 14 15  1  0
 15 16  2  0
  7 17  1  0
 17 18  2  0
 17 19  1  0
 19 20  1  0
 20 21  2  0
  5 22  2  0
 22 23  1  0
 23 24  1  0
 24 25  1  0
 23 26  2  0
 26 27  1  0
 27 28  1  0
 26  3  1  0
 20  6  1  0
 16  8  1  0
 16 11  1  0
  1 29  1  0
  1 30  1  0
  1 31  1  0
  4 32  1  0
  9 33  1  0
 10 34  1  0
 12 35  1  0
 13 36  1  0
 14 37  1  0
 15 38  1  0
 19 39  1  0
 22 40  1  0
 25 41  1  0
 25 42  1  0
 25 43  1  0
 28 44  1  0
 28 45  1  0
 28 46  1  0
M  END
$$$$
