@<TRIPOS>MOLECULE
*****
 43 46 0 0 0
SMALL
GASTEIGER

@<TRIPOS>ATOM
      1 C          -4.9783    1.1464    0.3644 C.3     1  UNL1       -0.0126
      2 N          -4.1989    0.1132   -0.2233 N.3     1  UNL1       -0.3013
      3 C          -4.8747   -0.8561   -0.9996 C.3     1  UNL1       -0.0126
      4 C          -3.0963   -0.3633    0.5776 C.3     1  UNL1        0.0589
      5 C          -2.1393    0.7020    0.8852 C.ar    1  UNL1        0.1521
      6 N          -2.4148    1.6201    1.8488 N.ar    1  UNL1       -0.1326
      7 N          -1.4165    2.4500    2.0523 N.ar    1  UNL1       -0.1320
      8 C          -0.3946    2.1337    1.2243 C.ar    1  UNL1        0.1595
      9 C           1.0020    2.7064    1.0290 C.3     1  UNL1        0.1004
     10 N           2.0182    1.6737    1.1380 N.2     1  UNL1       -0.2749
     11 C           2.1331    0.4979    0.5571 C.2     1  UNL1        0.0752
     12 C           3.2503   -0.3613    0.8396 C.ar    1  UNL1        0.0006
     13 C           4.2032    0.3199    1.6007 C.ar    1  UNL1       -0.0526
     14 C           5.3664   -0.2857    2.0829 C.ar    1  UNL1       -0.0611
     15 C           5.6312   -1.6105    1.8238 C.ar    1  UNL1       -0.0617
     16 C           4.7042   -2.3041    1.0754 C.ar    1  UNL1       -0.0611
     17 C           3.5778   -1.6581    0.6283 C.ar    1  UNL1       -0.0526
     18 C           1.1609    0.0732   -0.4489 C.ar    1  UNL1        0.0258
     19 C          -0.2161    0.3231   -0.4535 C.ar    1  UNL1        0.0588
     20 C          -1.0952   -0.0926   -1.4164 C.ar    1  UNL1       -0.0357
     21 C          -0.5188   -0.8241   -2.4518 C.ar    1  UNL1       -0.0414
     22 C           0.8583   -1.0744   -2.4499 C.ar    1  UNL1        0.0417
     23 CL          1.6605   -1.9934   -3.7248 Cl      1  UNL1       -0.0835
     24 C           1.7407   -0.6481   -1.4777 C.ar    1  UNL1       -0.0322
     25 N          -0.9047    1.0687    0.5483 N.ar    1  UNL1       -0.2798
     26 H          -4.9609    2.1041   -0.1787 H       1  UNL1        0.0391
     27 H          -6.0507    0.8043    0.3370 H       1  UNL1        0.0391
     28 H          -4.7258    1.2220    1.4428 H       1  UNL1        0.0391
     29 H          -5.8483   -1.1187   -0.5321 H       1  UNL1        0.0391
     30 H          -5.0596   -0.5712   -2.0520 H       1  UNL1        0.0391
     31 H          -4.2652   -1.8034   -0.9595 H       1  UNL1        0.0391
     32 H          -2.6985   -1.2574    0.0556 H       1  UNL1        0.0507
     33 H          -3.6407   -0.7021    1.5072 H       1  UNL1        0.0507
     34 H           1.0319    3.1687    0.0341 H       1  UNL1        0.0590
     35 H           1.1919    3.4158    1.8267 H       1  UNL1        0.0590
     36 H           4.1683    1.3752    1.9087 H       1  UNL1        0.0624
     37 H           6.1129    0.2168    2.6693 H       1  UNL1        0.0618
     38 H           6.4767   -2.1705    2.1359 H       1  UNL1        0.0618
     39 H           4.7889   -3.3462    0.8006 H       1  UNL1        0.0618
     40 H           2.8111   -2.1928    0.0928 H       1  UNL1        0.0624
     41 H          -2.1160    0.1001   -1.5322 H       1  UNL1        0.0639
     42 H          -1.0668   -1.2352   -3.2970 H       1  UNL1        0.0633
     43 H           2.7921   -0.7659   -1.4476 H       1  UNL1        0.0639
@<TRIPOS>BOND
     1     1     2    1
     2     2     3    1
     3     2     4    1
     4     4     5    1
     5     5     6   ar
     6     6     7   ar
     7     7     8   ar
     8     8     9    1
     9     9    10    1
    10    10    11    2
    11    11    12    1
    12    12    13   ar
    13    13    14   ar
    14    14    15   ar
    15    15    16   ar
    16    16    17   ar
    17    11    18    1
    18    18    19   ar
    19    19    20   ar
    20    20    21   ar
    21    21    22   ar
    22    22    23    1
    23    22    24   ar
    24    19    25    1
    25    25     5   ar
    26    25     8   ar
    27    17    12   ar
    28    24    18   ar
    29     1    26    1
    30     1    27    1
    31     1    28    1
    32     3    29    1
    33     3    30    1
    34     3    31    1
    35     4    32    1
    36     4    33    1
    37     9    34    1
    38     9    35    1
    39    13    36    1
    40    14    37    1
    41    15    38    1
    42    16    39    1
    43    17    40    1
    44    20    41    1
    45    21    42    1
    46    24    43    1
