
     RDKit          3D

 41 45  0  0  0  0  0  0  0  0999 V2000
    1.5108    1.5402    0.8209 C   0  0  2  0  0  0  0  0  0  0  0  0
    2.7235    0.9306    0.3468 O   0  0  0  0  0  0  0  0  0  0  0  0
    2.4078   -0.0220   -0.6081 C   0  0  0  0  0  0  0  0  0  0  0  0
    3.0191   -0.7321   -1.6382 C   0  0  0  0  0  0  0  0  0  0  0  0
    4.3811   -0.4522   -1.8347 O   0  0  0  0  0  0  0  0  0  0  0  0
    2.3210   -1.6471   -2.4070 C   0  0  0  0  0  0  0  0  0  0  0  0
    0.9619   -1.8802   -2.1588 C   0  0  0  0  0  0  0  0  0  0  0  0
    0.3176   -1.2054   -1.1561 C   0  0  0  0  0  0  0  0  0  0  0  0
    1.0717   -0.3178   -0.4392 C   0  0  0  0  0  0  0  0  0  0  0  0
    0.4824    0.4613    0.6601 C   0  0  1  0  0  0  0  0  0  0  0  0
    0.3707   -0.4002    1.8626 C   0  0  0  0  0  0  0  0  0  0  0  0
   -0.8639   -1.1824    2.0369 C   0  0  0  0  0  0  0  0  0  0  0  0
   -2.0032   -0.6895    1.3202 N   0  0  0  0  0  0  0  0  0  0  0  0
   -3.1868   -1.4196    1.4855 C   0  0  0  0  0  0  0  0  0  0  0  0
   -1.6984   -0.2899   -0.0346 C   0  0  2  0  0  0  0  0  0  0  0  0
   -1.1067   -1.3897   -0.8288 C   0  0  0  0  0  0  0  0  0  0  0  0
   -0.8513    0.9329    0.1575 C   0  0  1  0  0  0  0  0  0  0  0  0
   -1.4352    1.7027    1.1637 O   0  0  0  0  0  0  0  0  0  0  0  0
   -0.7172    1.8134   -1.0427 C   0  0  0  0  0  0  0  0  0  0  0  0
   -0.0567    3.0938   -0.5126 C   0  0  0  0  0  0  0  0  0  0  0  0
    1.2701    2.7223   -0.0133 C   0  0  0  0  0  0  0  0  0  0  0  0
    2.2208    3.4503   -0.3187 O   0  0  0  0  0  0  0  0  0  0  0  0
    1.6985    1.8041    1.8635 H   0  0  0  0  0  0  0  0  0  0  0  0
    5.0326   -1.1718   -1.5261 H   0  0  0  0  0  0  0  0  0  0  0  0
    2.8440   -2.1734   -3.1967 H   0  0  0  0  0  0  0  0  0  0  0  0
    0.4142   -2.6021   -2.7665 H   0  0  0  0  0  0  0  0  0  0  0  0
    1.2343   -1.1238    1.8232 H   0  0  0  0  0  0  0  0  0  0  0  0
    0.5913    0.2406    2.7550 H   0  0  0  0  0  0  0  0  0  0  0  0
   -1.1408   -1.1628    3.1228 H   0  0  0  0  0  0  0  0  0  0  0  0
   -0.7631   -2.2748    1.7912 H   0  0  0  0  0  0  0  0  0  0  0  0
   -3.6046   -1.7372    0.4914 H   0  0  0  0  0  0  0  0  0  0  0  0
   -3.9406   -0.7746    1.9833 H   0  0  0  0  0  0  0  0  0  0  0  0
   -3.0685   -2.3183    2.1097 H   0  0  0  0  0  0  0  0  0  0  0  0
   -2.6568    0.0016   -0.5176 H   0  0  0  0  0  0  0  0  0  0  0  0
   -1.6550   -1.6399   -1.7735 H   0  0  0  0  0  0  0  0  0  0  0  0
   -1.1748   -2.3460   -0.2312 H   0  0  0  0  0  0  0  0  0  0  0  0
   -2.3648    1.4747    1.3284 H   0  0  0  0  0  0  0  0  0  0  0  0
   -1.7368    2.1327   -1.3595 H   0  0  0  0  0  0  0  0  0  0  0  0
   -0.1394    1.3964   -1.8655 H   0  0  0  0  0  0  0  0  0  0  0  0
   -0.6921    3.3682    0.3745 H   0  0  0  0  0  0  0  0  0  0  0  0
   -0.0167    3.8874   -1.2678 H   0  0  0  0  0  0  0  0  0  0  0  0
  1  2  1  0
  2  3  1  0
  3  4  2  0
  4  5  1  0
  4  6  1  0
  6  7  2  0
  7  8  1  0
  8  9  2  0
  9 10  1  0
 10 11  1  1
 11 12  1  0
 12 13  1  0
 13 14  1  0
 13 15  1  0
 15 16  1  0
 15 17  1  0
 17 18  1  1
 17 19  1  0
 19 20  1  0
 20 21  1  0
 21 22  2  0
 10  1  1  0
 17 10  1  0
 21  1  1  0
  9  3  1  0
 16  8  1  0
  1 23  1  1
  5 24  1  0
  6 25  1  0
  7 26  1  0
 11 27  1  0
 11 28  1  0
 12 29  1  0
 12 30  1  0
 14 31  1  0
 14 32  1  0
 14 33  1  0
 15 34  1  6
 16 35  1  0
 16 36  1  0
 18 37  1  0
 19 38  1  0
 19 39  1  0
 20 40  1  0
 20 41  1  0
M  END
$$$$
