@<TRIPOS>MOLECULE
*****
 41 45 0 0 0
SMALL
GASTEIGER

@<TRIPOS>ATOM
      1 C           1.5108    1.5402    0.8209 C.3     1  UNL1        0.1701
      2 O           2.7235    0.9306    0.3468 O.3     1  UNL1       -0.4764
      3 C           2.4078   -0.0220   -0.6081 C.ar    1  UNL1        0.1669
      4 C           3.0191   -0.7321   -1.6382 C.ar    1  UNL1        0.1588
      5 O           4.3811   -0.4522   -1.8347 O.3     1  UNL1       -0.5033
      6 C           2.3210   -1.6471   -2.4070 C.ar    1  UNL1       -0.0162
      7 C           0.9619   -1.8802   -2.1588 C.ar    1  UNL1       -0.0546
      8 C           0.3176   -1.2054   -1.1561 C.ar    1  UNL1       -0.0382
      9 C           1.0717   -0.3178   -0.4392 C.ar    1  UNL1        0.0141
     10 C           0.4824    0.4613    0.6601 C.3     1  UNL1        0.0746
     11 C           0.3707   -0.4002    1.8626 C.3     1  UNL1       -0.0238
     12 C          -0.8639   -1.1824    2.0369 C.3     1  UNL1        0.0000
     13 N          -2.0032   -0.6895    1.3202 N.3     1  UNL1       -0.2993
     14 C          -3.1868   -1.4196    1.4855 C.3     1  UNL1       -0.0124
     15 C          -1.6984   -0.2899   -0.0346 C.3     1  UNL1        0.0438
     16 C          -1.1067   -1.3897   -0.8288 C.3     1  UNL1       -0.0089
     17 C          -0.8513    0.9329    0.1575 C.3     1  UNL1        0.0957
     18 O          -1.4352    1.7027    1.1637 O.3     1  UNL1       -0.3860
     19 C          -0.7172    1.8134   -1.0427 C.3     1  UNL1       -0.0147
     20 C          -0.0567    3.0938   -0.5126 C.3     1  UNL1        0.0123
     21 C           1.2701    2.7223   -0.0133 C.2     1  UNL1        0.1745
     22 O           2.2208    3.4503   -0.3187 O.2     1  UNL1       -0.2934
     23 H           1.6985    1.8041    1.8635 H       1  UNL1        0.0824
     24 H           5.0326   -1.1718   -1.5261 H       1  UNL1        0.2923
     25 H           2.8440   -2.1734   -3.1967 H       1  UNL1        0.0655
     26 H           0.4142   -2.6021   -2.7665 H       1  UNL1        0.0622
     27 H           1.2343   -1.1238    1.8232 H       1  UNL1        0.0288
     28 H           0.5913    0.2406    2.7550 H       1  UNL1        0.0288
     29 H          -1.1408   -1.1628    3.1228 H       1  UNL1        0.0427
     30 H          -0.7631   -2.2748    1.7912 H       1  UNL1        0.0427
     31 H          -3.6046   -1.7372    0.4914 H       1  UNL1        0.0391
     32 H          -3.9406   -0.7746    1.9833 H       1  UNL1        0.0391
     33 H          -3.0685   -2.3183    2.1097 H       1  UNL1        0.0391
     34 H          -2.6568    0.0016   -0.5176 H       1  UNL1        0.0494
     35 H          -1.6550   -1.6399   -1.7735 H       1  UNL1        0.0329
     36 H          -1.1748   -2.3460   -0.2312 H       1  UNL1        0.0329
     37 H          -2.3648    1.4747    1.3284 H       1  UNL1        0.2103
     38 H          -1.7368    2.1327   -1.3595 H       1  UNL1        0.0298
     39 H          -0.1394    1.3964   -1.8655 H       1  UNL1        0.0298
     40 H          -0.6921    3.3682    0.3745 H       1  UNL1        0.0344
     41 H          -0.0167    3.8874   -1.2678 H       1  UNL1        0.0344
@<TRIPOS>BOND
     1     1     2    1
     2     2     3    1
     3     3     4   ar
     4     4     5    1
     5     4     6   ar
     6     6     7   ar
     7     7     8   ar
     8     8     9   ar
     9     9    10    1
    10    10    11    1
    11    11    12    1
    12    12    13    1
    13    13    14    1
    14    13    15    1
    15    15    16    1
    16    15    17    1
    17    17    18    1
    18    17    19    1
    19    19    20    1
    20    20    21    1
    21    21    22    2
    22    10     1    1
    23    17    10    1
    24    21     1    1
    25     9     3   ar
    26    16     8    1
    27     1    23    1
    28     5    24    1
    29     6    25    1
    30     7    26    1
    31    11    27    1
    32    11    28    1
    33    12    29    1
    34    12    30    1
    35    14    31    1
    36    14    32    1
    37    14    33    1
    38    15    34    1
    39    16    35    1
    40    16    36    1
    41    18    37    1
    42    19    38    1
    43    19    39    1
    44    20    40    1
    45    20    41    1
