@<TRIPOS>MOLECULE
*****
 44 45 0 0 0
SMALL
GASTEIGER

@<TRIPOS>ATOM
      1 C           4.1842    0.4934    0.2473 C.3     1  UNL1        0.0562
      2 O           5.2255    1.2357   -0.2501 O.3     1  UNL1       -0.3918
      3 C           2.9249    1.3302    0.5145 C.3     1  UNL1       -0.0202
      4 C           1.9318    0.1819    0.6956 C.3     1  UNL1       -0.0150
      5 C           0.6087    0.6133    1.0702 C.2     1  UNL1       -0.0844
      6 C          -0.2158    1.6915    0.9724 C.2     1  UNL1       -0.0877
      7 C          -1.5637    1.7801    1.5001 C.3     1  UNL1       -0.0346
      8 C          -2.7250    2.0927    0.6881 C.3     1  UNL1       -0.0463
      9 C          -3.1720    1.3396   -0.4771 C.3     1  UNL1       -0.0156
     10 C          -3.3693   -0.1416   -0.3292 C.3     1  UNL1        0.1006
     11 C          -4.1607   -0.5688    0.8585 C.3     1  UNL1       -0.0277
     12 O          -2.1902   -0.8477   -0.5577 O.3     1  UNL1       -0.4586
     13 C          -2.1456   -1.7856   -1.5778 C.2     1  UNL1        0.3320
     14 O          -2.9072   -2.2633   -2.4142 O.2     1  UNL1       -0.2456
     15 C          -0.7986   -2.4057   -1.7384 C.2     1  UNL1        0.0210
     16 C           0.2664   -2.0599   -0.9997 C.2     1  UNL1       -0.0489
     17 C           1.6790   -2.0189   -0.4541 C.3     1  UNL1        0.0773
     18 O           2.5034   -2.8639   -1.1588 O.3     1  UNL1       -0.3875
     19 C           2.1628   -0.5719   -0.5500 C.3     1  UNL1       -0.0027
     20 C           3.6628   -0.5576   -0.7207 C.3     1  UNL1       -0.0208
     21 H           4.4041    0.0179    1.2453 H       1  UNL1        0.0593
     22 H           5.8464    1.4358    0.5174 H       1  UNL1        0.2098
     23 H           3.0199    1.9436    1.4198 H       1  UNL1        0.0296
     24 H           2.7350    1.9058   -0.3922 H       1  UNL1        0.0296
     25 H           2.3660   -0.4166    1.5457 H       1  UNL1        0.0347
     26 H           0.0586   -0.1612    1.6486 H       1  UNL1        0.0572
     27 H           0.0800    2.6191    0.4676 H       1  UNL1        0.0569
     28 H          -1.8008    0.8694    2.1723 H       1  UNL1        0.0307
     29 H          -1.5130    2.5896    2.3212 H       1  UNL1        0.0307
     30 H          -3.6130    2.1782    1.4142 H       1  UNL1        0.0269
     31 H          -2.6532    3.2096    0.3804 H       1  UNL1        0.0269
     32 H          -2.5622    1.5301   -1.4100 H       1  UNL1        0.0301
     33 H          -4.1855    1.7473   -0.7782 H       1  UNL1        0.0301
     34 H          -4.0466   -0.4931   -1.2065 H       1  UNL1        0.0731
     35 H          -4.5245   -1.6206    0.6607 H       1  UNL1        0.0265
     36 H          -3.5857   -0.6701    1.8022 H       1  UNL1        0.0265
     37 H          -5.0691    0.0262    0.9630 H       1  UNL1        0.0265
     38 H          -0.5537   -3.1992   -2.4723 H       1  UNL1        0.0686
     39 H          -0.1573   -1.2812   -0.3331 H       1  UNL1        0.0600
     40 H           1.6887   -2.2966    0.6082 H       1  UNL1        0.0641
     41 H           2.4244   -2.7620   -2.1357 H       1  UNL1        0.2102
     42 H           1.6853   -0.1324   -1.4519 H       1  UNL1        0.0335
     43 H           3.9296   -0.1588   -1.7403 H       1  UNL1        0.0294
     44 H           4.1252   -1.5544   -0.5652 H       1  UNL1        0.0294
@<TRIPOS>BOND
     1     1     2    1
     2     1     3    1
     3     3     4    1
     4     4     5    1
     5     5     6    2
     6     6     7    1
     7     7     8    1
     8     8     9    1
     9     9    10    1
    10    10    11    1
    11    10    12    1
    12    12    13    1
    13    13    14    2
    14    13    15    1
    15    15    16    2
    16    16    17    1
    17    17    18    1
    18    17    19    1
    19    19    20    1
    20    20     1    1
    21    19     4    1
    22     1    21    1
    23     2    22    1
    24     3    23    1
    25     3    24    1
    26     4    25    1
    27     5    26    1
    28     6    27    1
    29     7    28    1
    30     7    29    1
    31     8    30    1
    32     8    31    1
    33     9    32    1
    34     9    33    1
    35    10    34    1
    36    11    35    1
    37    11    36    1
    38    11    37    1
    39    15    38    1
    40    16    39    1
    41    17    40    1
    42    18    41    1
    43    19    42    1
    44    20    43    1
    45    20    44    1
