
     RDKit          3D

 55 59  0  0  0  0  0  0  0  0999 V2000
    4.4318   -2.3596    0.3862 O   0  0  0  0  0  0  0  0  0  0  0  0
    3.9026   -2.4676    1.6593 C   0  0  0  0  0  0  0  0  0  0  0  0
    3.1510   -1.1888    1.9597 C   0  0  0  0  0  0  0  0  0  0  0  0
    2.0525   -1.0148    0.9387 C   0  0  0  0  0  0  0  0  0  0  0  0
    1.5013    0.4049    1.1605 C   0  0  0  0  0  0  0  0  0  0  0  0
    2.4762    1.2887    0.5951 N   0  0  0  0  0  0  0  0  0  0  0  0
    2.2725    2.5423    0.0086 C   0  0  0  0  0  0  0  0  0  0  0  0
    3.0018    3.6220    0.4131 C   0  0  0  0  0  0  0  0  0  0  0  0
    2.8555    4.8670   -0.1267 N   0  0  0  0  0  0  0  0  0  0  0  0
    1.9423    5.0274   -1.1043 C   0  0  0  0  0  0  0  0  0  0  0  0
    1.1749    3.9803   -1.5558 C   0  0  0  0  0  0  0  0  0  0  0  0
    1.3299    2.7267   -1.0075 C   0  0  0  0  0  0  0  0  0  0  0  0
    0.6255    1.6051   -1.3762 O   0  0  0  0  0  0  0  0  0  0  0  0
   -0.3180    1.6538   -2.4131 C   0  0  0  0  0  0  0  0  0  0  0  0
   -0.7268    0.3376   -3.0342 C   0  0  0  0  0  0  0  0  0  0  0  0
   -1.7747    0.1882   -2.0646 N   0  0  0  0  0  0  0  0  0  0  0  0
   -2.5732   -0.7854   -1.4415 C   0  0  0  0  0  0  0  0  0  0  0  0
   -2.3699   -2.1479   -1.5389 C   0  0  0  0  0  0  0  0  0  0  0  0
   -3.2086   -3.0474   -0.9094 C   0  0  0  0  0  0  0  0  0  0  0  0
   -4.3021   -2.6241   -0.1449 C   0  0  0  0  0  0  0  0  0  0  0  0
   -5.1496   -3.5302    0.4897 C   0  0  0  0  0  0  0  0  0  0  0  0
   -6.2167   -3.0397    1.2286 C   0  0  0  0  0  0  0  0  0  0  0  0
   -6.3798   -1.6726    1.2957 C   0  0  0  0  0  0  0  0  0  0  0  0
   -5.5567   -0.7698    0.6804 C   0  0  0  0  0  0  0  0  0  0  0  0
   -4.4760   -1.2520   -0.0694 C   0  0  0  0  0  0  0  0  0  0  0  0
   -3.6479   -0.3995   -0.6893 N   0  0  0  0  0  0  0  0  0  0  0  0
   -1.7602    1.6566   -1.8645 C   0  0  0  0  0  0  0  0  0  0  0  0
    3.8704    0.8018    0.6907 C   0  0  0  0  0  0  0  0  0  0  0  0
    4.0200    0.0197    1.9605 C   0  0  0  0  0  0  0  0  0  0  0  0
    5.3651   -2.0488    0.3718 H   0  0  0  0  0  0  0  0  0  0  0  0
    4.7323   -2.5689    2.3910 H   0  0  0  0  0  0  0  0  0  0  0  0
    3.1759   -3.2951    1.7482 H   0  0  0  0  0  0  0  0  0  0  0  0
    2.6526   -1.3627    2.9441 H   0  0  0  0  0  0  0  0  0  0  0  0
    2.4254   -1.1425   -0.0947 H   0  0  0  0  0  0  0  0  0  0  0  0
    1.2651   -1.7571    1.1798 H   0  0  0  0  0  0  0  0  0  0  0  0
    0.5617    0.4674    0.6174 H   0  0  0  0  0  0  0  0  0  0  0  0
    1.4101    0.5181    2.2628 H   0  0  0  0  0  0  0  0  0  0  0  0
    3.7537    3.5655    1.1892 H   0  0  0  0  0  0  0  0  0  0  0  0
    1.7642    6.0012   -1.5766 H   0  0  0  0  0  0  0  0  0  0  0  0
    0.4501    4.1548   -2.3395 H   0  0  0  0  0  0  0  0  0  0  0  0
   -0.2474    2.5018   -3.1310 H   0  0  0  0  0  0  0  0  0  0  0  0
    0.0364   -0.4271   -3.1357 H   0  0  0  0  0  0  0  0  0  0  0  0
   -1.1955    0.5531   -4.0340 H   0  0  0  0  0  0  0  0  0  0  0  0
   -1.5515   -2.5064   -2.1084 H   0  0  0  0  0  0  0  0  0  0  0  0
   -3.0675   -4.1134   -0.9717 H   0  0  0  0  0  0  0  0  0  0  0  0
   -4.9812   -4.5928    0.4072 H   0  0  0  0  0  0  0  0  0  0  0  0
   -6.9154   -3.6771    1.7511 H   0  0  0  0  0  0  0  0  0  0  0  0
   -7.2125   -1.2668    1.8724 H   0  0  0  0  0  0  0  0  0  0  0  0
   -5.6974    0.3116    0.7407 H   0  0  0  0  0  0  0  0  0  0  0  0
   -1.7945    1.9692   -0.8237 H   0  0  0  0  0  0  0  0  0  0  0  0
   -2.4965    2.1156   -2.5347 H   0  0  0  0  0  0  0  0  0  0  0  0
    4.0623    0.1857   -0.1953 H   0  0  0  0  0  0  0  0  0  0  0  0
    4.5675    1.6735    0.6466 H   0  0  0  0  0  0  0  0  0  0  0  0
    5.0815   -0.3261    2.1161 H   0  0  0  0  0  0  0  0  0  0  0  0
    3.7074    0.6442    2.8515 H   0  0  0  0  0  0  0  0  0  0  0  0
  1  2  1  0
  2  3  1  0
  3  4  1  0
  4  5  1  0
  5  6  1  0
  6  7  1  0
  7  8  2  0
  8  9  1  0
  9 10  2  0
 10 11  1  0
 11 12  2  0
 12 13  1  0
 13 14  1  0
 14 15  1  0
 15 16  1  0
 16 17  1  0
 17 18  2  0
 18 19  1  0
 19 20  2  0
 20 21  1  0
 21 22  2  0
 22 23  1  0
 23 24  2  0
 24 25  1  0
 25 26  2  0
 16 27  1  0
  6 28  1  0
 28 29  1  0
 29  3  1  0
 12  7  1  0
 27 14  1  0
 26 17  1  0
 25 20  1  0
  1 30  1  0
  2 31  1  0
  2 32  1  0
  3 33  1  0
  4 34  1  0
  4 35  1  0
  5 36  1  0
  5 37  1  0
  8 38  1  0
 10 39  1  0
 11 40  1  0
 14 41  1  0
 15 42  1  0
 15 43  1  0
 18 44  1  0
 19 45  1  0
 21 46  1  0
 22 47  1  0
 23 48  1  0
 24 49  1  0
 27 50  1  0
 27 51  1  0
 28 52  1  0
 28 53  1  0
 29 54  1  0
 29 55  1  0
M  END
$$$$
