@<TRIPOS>MOLECULE
*****
 55 59 0 0 0
SMALL
GASTEIGER

@<TRIPOS>ATOM
      1 O           4.4318   -2.3596    0.3862 O.3     1  UNL1       -0.3947
      2 C           3.9026   -2.4676    1.6593 C.3     1  UNL1        0.0471
      3 C           3.1510   -1.1888    1.9597 C.3     1  UNL1       -0.0150
      4 C           2.0525   -1.0148    0.9387 C.3     1  UNL1       -0.0323
      5 C           1.5013    0.4049    1.1605 C.3     1  UNL1        0.0127
      6 N           2.4762    1.2887    0.5951 N.pl3   1  UNL1       -0.3259
      7 C           2.2725    2.5423    0.0086 C.ar    1  UNL1        0.0903
      8 C           3.0018    3.6220    0.4131 C.ar    1  UNL1        0.0521
      9 N           2.8555    4.8670   -0.1267 N.ar    1  UNL1       -0.2612
     10 C           1.9423    5.0274   -1.1043 C.ar    1  UNL1        0.0311
     11 C           1.1749    3.9803   -1.5558 C.ar    1  UNL1        0.0001
     12 C           1.3299    2.7267   -1.0075 C.ar    1  UNL1        0.1449
     13 O           0.6255    1.6051   -1.3762 O.3     1  UNL1       -0.4837
     14 C          -0.3180    1.6538   -2.4131 C.3     1  UNL1        0.1314
     15 C          -0.7268    0.3376   -3.0342 C.3     1  UNL1        0.0522
     16 N          -1.7747    0.1882   -2.0646 N.pl3   1  UNL1       -0.3080
     17 C          -2.5732   -0.7854   -1.4415 C.ar    1  UNL1        0.1221
     18 C          -2.3699   -2.1479   -1.5389 C.ar    1  UNL1       -0.0211
     19 C          -3.2086   -3.0474   -0.9094 C.ar    1  UNL1       -0.0493
     20 C          -4.3021   -2.6241   -0.1449 C.ar    1  UNL1        0.0005
     21 C          -5.1496   -3.5302    0.4897 C.ar    1  UNL1       -0.0526
     22 C          -6.2167   -3.0397    1.2286 C.ar    1  UNL1       -0.0611
     23 C          -6.3798   -1.6726    1.2957 C.ar    1  UNL1       -0.0597
     24 C          -5.5567   -0.7698    0.6804 C.ar    1  UNL1       -0.0357
     25 C          -4.4760   -1.2520   -0.0694 C.ar    1  UNL1        0.0731
     26 N          -3.6479   -0.3995   -0.6893 N.ar    1  UNL1       -0.2320
     27 C          -1.7602    1.6566   -1.8645 C.3     1  UNL1        0.0522
     28 C           3.8704    0.8018    0.6907 C.3     1  UNL1        0.0127
     29 C           4.0200    0.0197    1.9605 C.3     1  UNL1       -0.0323
     30 H           5.3651   -2.0488    0.3718 H       1  UNL1        0.2094
     31 H           4.7323   -2.5689    2.3910 H       1  UNL1        0.0560
     32 H           3.1759   -3.2951    1.7482 H       1  UNL1        0.0560
     33 H           2.6526   -1.3627    2.9441 H       1  UNL1        0.0324
     34 H           2.4254   -1.1425   -0.0947 H       1  UNL1        0.0284
     35 H           1.2651   -1.7571    1.1798 H       1  UNL1        0.0284
     36 H           0.5617    0.4674    0.6174 H       1  UNL1        0.0464
     37 H           1.4101    0.5181    2.2628 H       1  UNL1        0.0464
     38 H           3.7537    3.5655    1.1892 H       1  UNL1        0.0849
     39 H           1.7642    6.0012   -1.5766 H       1  UNL1        0.0831
     40 H           0.4501    4.1548   -2.3395 H       1  UNL1        0.0670
     41 H          -0.2474    2.5018   -3.1310 H       1  UNL1        0.0765
     42 H           0.0364   -0.4271   -3.1357 H       1  UNL1        0.0501
     43 H          -1.1955    0.5531   -4.0340 H       1  UNL1        0.0501
     44 H          -1.5515   -2.5064   -2.1084 H       1  UNL1        0.0652
     45 H          -3.0675   -4.1134   -0.9717 H       1  UNL1        0.0625
     46 H          -4.9812   -4.5928    0.4072 H       1  UNL1        0.0624
     47 H          -6.9154   -3.6771    1.7511 H       1  UNL1        0.0618
     48 H          -7.2125   -1.2668    1.8724 H       1  UNL1        0.0618
     49 H          -5.6974    0.3116    0.7407 H       1  UNL1        0.0639
     50 H          -1.7945    1.9692   -0.8237 H       1  UNL1        0.0501
     51 H          -2.4965    2.1156   -2.5347 H       1  UNL1        0.0501
     52 H           4.0623    0.1857   -0.1953 H       1  UNL1        0.0464
     53 H           4.5675    1.6735    0.6466 H       1  UNL1        0.0464
     54 H           5.0815   -0.3261    2.1161 H       1  UNL1        0.0284
     55 H           3.7074    0.6442    2.8515 H       1  UNL1        0.0284
@<TRIPOS>BOND
     1     1     2    1
     2     2     3    1
     3     3     4    1
     4     4     5    1
     5     5     6    1
     6     6     7    1
     7     7     8   ar
     8     8     9   ar
     9     9    10   ar
    10    10    11   ar
    11    11    12   ar
    12    12    13    1
    13    13    14    1
    14    14    15    1
    15    15    16    1
    16    16    17    1
    17    17    18   ar
    18    18    19   ar
    19    19    20   ar
    20    20    21   ar
    21    21    22   ar
    22    22    23   ar
    23    23    24   ar
    24    24    25   ar
    25    25    26   ar
    26    16    27    1
    27     6    28    1
    28    28    29    1
    29    29     3    1
    30    12     7   ar
    31    27    14    1
    32    26    17   ar
    33    25    20   ar
    34     1    30    1
    35     2    31    1
    36     2    32    1
    37     3    33    1
    38     4    34    1
    39     4    35    1
    40     5    36    1
    41     5    37    1
    42     8    38    1
    43    10    39    1
    44    11    40    1
    45    14    41    1
    46    15    42    1
    47    15    43    1
    48    18    44    1
    49    19    45    1
    50    21    46    1
    51    22    47    1
    52    23    48    1
    53    24    49    1
    54    27    50    1
    55    27    51    1
    56    28    52    1
    57    28    53    1
    58    29    54    1
    59    29    55    1
