@<TRIPOS>MOLECULE
*****
 63 66 0 0 0
SMALL
GASTEIGER

@<TRIPOS>ATOM
      1 C          -4.1480    1.5077   -3.4437 C.3     1  UNL1        0.0820
      2 O          -5.1590    1.0494   -2.5651 O.3     1  UNL1       -0.4644
      3 C          -4.9454    0.9827   -1.1933 C.2     1  UNL1        0.3397
      4 O          -3.8243    1.3476   -0.8022 O.2     1  UNL1       -0.2449
      5 C          -5.9624    0.5158   -0.2649 C.ar    1  UNL1        0.0733
      6 C          -7.2536    0.4820   -0.8403 C.ar    1  UNL1       -0.0468
      7 C          -8.3440    0.2501   -0.0582 C.ar    1  UNL1       -0.0575
      8 C          -8.1945    0.0472    1.2969 C.ar    1  UNL1       -0.0194
      9 C          -6.9609    0.0722    1.8704 C.ar    1  UNL1        0.1285
     10 O          -6.8261   -0.1334    3.2342 O.3     1  UNL1       -0.5060
     11 C          -5.8193    0.3083    1.0702 C.ar    1  UNL1        0.0778
     12 C          -4.5493    0.3538    1.7349 C.2     1  UNL1        0.2044
     13 O          -4.5863    0.9360    2.8986 O.2     1  UNL1       -0.2863
     14 C          -3.2625   -0.1310    1.3570 C.ar    1  UNL1        0.1050
     15 C          -2.1043    0.4124    1.9293 C.ar    1  UNL1        0.1320
     16 O          -2.2738    1.5034    2.7811 O.3     1  UNL1       -0.5059
     17 C          -0.8459   -0.0851    1.6816 C.ar    1  UNL1       -0.0053
     18 C          -0.6759   -1.1552    0.8466 C.ar    1  UNL1        0.0659
     19 C           0.6319   -1.7078    0.5598 C.2     1  UNL1        0.3397
     20 O           0.7502   -2.6919   -0.2127 O.2     1  UNL1       -0.2449
     21 O           1.8066   -1.2027    1.1026 O.3     1  UNL1       -0.4576
     22 C           3.0758   -1.7193    0.8401 C.3     1  UNL1        0.1065
     23 C           3.7832   -2.2026    2.1075 C.3     1  UNL1       -0.0154
     24 C           5.2160   -2.2757    1.6952 C.3     1  UNL1       -0.0493
     25 C           5.3672   -1.4162    0.4466 C.3     1  UNL1       -0.0464
     26 C           4.0592   -0.6764    0.3541 C.3     1  UNL1        0.0001
     27 C           3.7588   -0.2321   -1.0614 C.3     1  UNL1       -0.0215
     28 C           4.7842    0.7845   -1.4220 C.ar    1  UNL1       -0.0468
     29 C           5.9572    0.3590   -2.0094 C.ar    1  UNL1       -0.0551
     30 C           6.9395    1.2582   -2.3632 C.ar    1  UNL1       -0.0199
     31 C           6.7244    2.5976   -2.1167 C.ar    1  UNL1        0.1169
     32 O           7.6724    3.5567   -2.4481 O.3     1  UNL1       -0.5068
     33 C           5.5583    3.0734   -1.5270 C.ar    1  UNL1       -0.0199
     34 C           4.5990    2.1432   -1.1872 C.ar    1  UNL1       -0.0551
     35 C          -1.7902   -1.7115    0.2702 C.ar    1  UNL1       -0.0053
     36 C          -3.0725   -1.2108    0.5185 C.ar    1  UNL1        0.1320
     37 O          -4.1560   -1.8230   -0.0917 O.3     1  UNL1       -0.5059
     38 H          -3.1476    1.4888   -2.9667 H       1  UNL1        0.0661
     39 H          -4.1564    0.7948   -4.3108 H       1  UNL1        0.0661
     40 H          -4.3304    2.5365   -3.8073 H       1  UNL1        0.0661
     41 H          -7.3997    0.6381   -1.9061 H       1  UNL1        0.0626
     42 H          -9.3422    0.2267   -0.5202 H       1  UNL1        0.0619
     43 H          -9.0978   -0.1288    1.8625 H       1  UNL1        0.0654
     44 H          -6.1075   -0.7400    3.6008 H       1  UNL1        0.2922
     45 H          -1.7276    2.3324    2.5462 H       1  UNL1        0.2922
     46 H           0.0070    0.4037    2.1737 H       1  UNL1        0.0662
     47 H           3.0746   -2.5836    0.1491 H       1  UNL1        0.0737
     48 H           3.3619   -3.1348    2.4823 H       1  UNL1        0.0301
     49 H           3.6611   -1.3520    2.8396 H       1  UNL1        0.0301
     50 H           5.8916   -1.8212    2.4607 H       1  UNL1        0.0267
     51 H           5.4910   -3.3316    1.5118 H       1  UNL1        0.0267
     52 H           6.2468   -0.7711    0.4923 H       1  UNL1        0.0269
     53 H           5.4241   -2.1518   -0.4081 H       1  UNL1        0.0269
     54 H           4.0842    0.1555    1.0584 H       1  UNL1        0.0340
     55 H           3.7973   -1.0539   -1.7799 H       1  UNL1        0.0317
     56 H           2.7542    0.2326   -1.1167 H       1  UNL1        0.0317
     57 H           6.1012   -0.6962   -2.1919 H       1  UNL1        0.0621
     58 H           7.8609    0.9077   -2.8264 H       1  UNL1        0.0654
     59 H           8.5334    3.6698   -1.9152 H       1  UNL1        0.2921
     60 H           5.4055    4.1286   -1.3404 H       1  UNL1        0.0654
     61 H           3.6704    2.4650   -0.7239 H       1  UNL1        0.0621
     62 H          -1.7255   -2.5571   -0.3978 H       1  UNL1        0.0662
     63 H          -4.2602   -2.8247    0.0455 H       1  UNL1        0.2922
@<TRIPOS>BOND
     1     1     2    1
     2     2     3    1
     3     3     4    2
     4     3     5    1
     5     5     6   ar
     6     6     7   ar
     7     7     8   ar
     8     8     9   ar
     9     9    10    1
    10     9    11   ar
    11    11    12    1
    12    12    13    2
    13    12    14    1
    14    14    15   ar
    15    15    16    1
    16    15    17   ar
    17    17    18   ar
    18    18    19    1
    19    19    20    2
    20    19    21    1
    21    21    22    1
    22    22    23    1
    23    23    24    1
    24    24    25    1
    25    25    26    1
    26    26    27    1
    27    27    28    1
    28    28    29   ar
    29    29    30   ar
    30    30    31   ar
    31    31    32    1
    32    31    33   ar
    33    33    34   ar
    34    18    35   ar
    35    35    36   ar
    36    36    37    1
    37    11     5   ar
    38    36    14   ar
    39    26    22    1
    40    34    28   ar
    41     1    38    1
    42     1    39    1
    43     1    40    1
    44     6    41    1
    45     7    42    1
    46     8    43    1
    47    10    44    1
    48    16    45    1
    49    17    46    1
    50    22    47    1
    51    23    48    1
    52    23    49    1
    53    24    50    1
    54    24    51    1
    55    25    52    1
    56    25    53    1
    57    26    54    1
    58    27    55    1
    59    27    56    1
    60    29    57    1
    61    30    58    1
    62    32    59    1
    63    33    60    1
    64    34    61    1
    65    35    62    1
    66    37    63    1
