@<TRIPOS>MOLECULE
*****
 54 58 0 0 0
SMALL
GASTEIGER

@<TRIPOS>ATOM
      1 C           5.6291    2.7280   -0.4996 C.3     1  UNL1       -0.0172
      2 C           4.5464    2.0202    0.2887 C.3     1  UNL1        0.1931
      3 O           4.7111    0.6463    0.3343 O.3     1  UNL1       -0.4765
      4 C           3.8820   -0.3372   -0.1342 C.ar    1  UNL1        0.1402
      5 C           2.6783   -0.1495   -0.7658 C.ar    1  UNL1       -0.0136
      6 C           1.8751   -1.1864   -1.2221 C.ar    1  UNL1       -0.0241
      7 C           0.5807   -0.9410   -1.9037 C.3     1  UNL1        0.0533
      8 N          -0.5390   -0.8248   -1.0103 N.ar    1  UNL1       -0.2873
      9 C          -0.9787    0.3086   -0.4382 C.ar    1  UNL1        0.3362
     10 O          -0.4418    1.4307   -0.6228 O.2     1  UNL1       -0.2459
     11 N          -2.0494    0.0278    0.3313 N.ar    1  UNL1       -0.2413
     12 C          -2.7825    0.9726    1.0915 C.ar    1  UNL1        0.1922
     13 N          -3.0079    0.9736    2.4125 N.ar    1  UNL1       -0.0587
     14 O          -3.7338    2.0243    2.7315 O.2     1  UNL1       -0.3526
     15 C          -4.0138    2.7425    1.6795 C.ar    1  UNL1        0.1695
     16 C          -4.7229    3.9014    1.4932 C.ar    1  UNL1       -0.0146
     17 C          -4.8149    4.3881    0.2059 C.ar    1  UNL1       -0.0398
     18 C          -4.2420    3.7812   -0.8809 C.ar    1  UNL1        0.0419
     19 CL         -4.3605    4.3985   -2.5045 Cl      1  UNL1       -0.0835
     20 C          -3.5285    2.6116   -0.6808 C.ar    1  UNL1       -0.0290
     21 C          -3.4131    2.0913    0.5950 C.ar    1  UNL1        0.0673
     22 C          -2.3195   -1.3072    0.2661 C.ar    1  UNL1        0.0766
     23 C          -3.2808   -2.0994    0.8446 C.ar    1  UNL1       -0.0351
     24 C          -3.2910   -3.4425    0.5748 C.ar    1  UNL1       -0.0480
     25 C          -2.3435   -3.9901   -0.2701 C.ar    1  UNL1        0.0569
     26 C          -2.3718   -5.4364   -0.5474 C.3     1  UNL1        0.4175
     27 F          -1.0984   -5.9608   -0.5979 F       1  UNL1       -0.1659
     28 F          -3.0759   -5.6771   -1.7139 F       1  UNL1       -0.1659
     29 F          -3.0463   -6.0686    0.4783 F       1  UNL1       -0.1659
     30 C          -1.3900   -3.1717   -0.8370 C.ar    1  UNL1       -0.0244
     31 C          -1.3418   -1.8131   -0.5930 C.ar    1  UNL1        0.0712
     32 C           2.2858   -2.4859   -1.0437 C.ar    1  UNL1       -0.0553
     33 C           3.5056   -2.7131   -0.4047 C.ar    1  UNL1       -0.0395
     34 C           4.2845   -1.6671    0.0391 C.ar    1  UNL1        0.0826
     35 CL          5.8067   -1.9951    0.8350 Cl      1  UNL1       -0.0798
     36 C           4.4653    2.6380    1.6504 C.2     1  UNL1        0.3456
     37 O           4.3167    3.8820    1.7486 O.2     1  UNL1       -0.2468
     38 O           4.5466    1.9002    2.8168 O.3     1  UNL1       -0.4781
     39 H           5.8951    2.1930   -1.4222 H       1  UNL1        0.0271
     40 H           5.3402    3.7650   -0.7458 H       1  UNL1        0.0271
     41 H           6.5463    2.7776    0.1186 H       1  UNL1        0.0271
     42 H           3.5898    2.2698   -0.2073 H       1  UNL1        0.0849
     43 H           2.3300    0.8690   -0.9197 H       1  UNL1        0.0658
     44 H           0.7122   -0.0052   -2.5237 H       1  UNL1        0.0543
     45 H           0.3810   -1.7402   -2.6772 H       1  UNL1        0.0543
     46 H          -5.1721    4.3804    2.3331 H       1  UNL1        0.0656
     47 H          -5.3738    5.3022    0.0567 H       1  UNL1        0.0633
     48 H          -3.0542    2.0867   -1.4964 H       1  UNL1        0.0640
     49 H          -4.0070   -1.6573    1.4967 H       1  UNL1        0.0639
     50 H          -4.0391   -4.1015    1.0162 H       1  UNL1        0.0624
     51 H          -0.6382   -3.5689   -1.5028 H       1  UNL1        0.0644
     52 H           1.7291   -3.3543   -1.3662 H       1  UNL1        0.0621
     53 H           3.8087   -3.7477   -0.2752 H       1  UNL1        0.0633
     54 H           5.0262    2.3312    3.6156 H       1  UNL1        0.2952
@<TRIPOS>BOND
     1     1     2    1
     2     2     3    1
     3     3     4    1
     4     4     5   ar
     5     5     6   ar
     6     6     7    1
     7     7     8    1
     8     8     9   ar
     9     9    10    2
    10     9    11   ar
    11    11    12    1
    12    12    13   ar
    13    13    14   ar
    14    14    15   ar
    15    15    16   ar
    16    16    17   ar
    17    17    18   ar
    18    18    19    1
    19    18    20   ar
    20    20    21   ar
    21    11    22   ar
    22    22    23   ar
    23    23    24   ar
    24    24    25   ar
    25    25    26    1
    26    26    27    1
    27    26    28    1
    28    26    29    1
    29    25    30   ar
    30    30    31   ar
    31     6    32   ar
    32    32    33   ar
    33    33    34   ar
    34    34    35    1
    35     2    36    1
    36    36    37    2
    37    36    38    1
    38    34     4   ar
    39    31     8   ar
    40    21    12   ar
    41    31    22   ar
    42    21    15   ar
    43     1    39    1
    44     1    40    1
    45     1    41    1
    46     2    42    1
    47     5    43    1
    48     7    44    1
    49     7    45    1
    50    16    46    1
    51    17    47    1
    52    20    48    1
    53    23    49    1
    54    24    50    1
    55    30    51    1
    56    32    52    1
    57    33    53    1
    58    38    54    1
