@<TRIPOS>MOLECULE
*****
 55 57 0 0 0
SMALL
GASTEIGER

@<TRIPOS>ATOM
      1 C           8.8579    1.2644   -0.3125 C.3     1  UNL1       -0.0397
      2 C           7.4268    1.0596    0.0702 C.ar    1  UNL1       -0.0502
      3 C           6.5765    2.1427    0.2061 C.ar    1  UNL1       -0.0585
      4 C           5.2564    1.9277    0.5610 C.ar    1  UNL1       -0.0549
      5 C           4.7596    0.6660    0.7842 C.ar    1  UNL1       -0.0075
      6 C           3.3371    0.5011    1.1630 C.3     1  UNL1        0.1149
      7 O           2.6385    0.0354    0.0262 O.3     1  UNL1       -0.4874
      8 C           1.2763   -0.2252    0.0378 C.ar    1  UNL1        0.1211
      9 C           0.4905   -0.0527    1.1534 C.ar    1  UNL1       -0.0181
     10 C          -0.8779   -0.3328    1.1038 C.ar    1  UNL1       -0.0334
     11 C          -1.4796   -0.7844   -0.0457 C.ar    1  UNL1        0.0888
     12 S          -3.2235   -1.1292   -0.0851 S.O2    1  UNL1        0.0031
     13 O          -3.5682   -1.4794    1.3481 O.2     1  UNL1       -0.1690
     14 O          -3.4061   -2.3399   -0.9213 O.2     1  UNL1       -0.1690
     15 C          -4.1223    0.2533   -0.6458 C.3     1  UNL1        0.1234
     16 C          -3.7548    1.4835    0.1751 C.3     1  UNL1       -0.0035
     17 C          -5.0275    2.1708    0.6552 C.3     1  UNL1        0.0497
     18 O          -5.8617    1.3058    1.3215 O.3     1  UNL1       -0.3763
     19 C          -6.3072    0.2302    0.5750 C.3     1  UNL1        0.0869
     20 C          -5.5978    0.0843   -0.7354 C.3     1  UNL1        0.1891
     21 O          -6.0318    1.0939   -1.6505 O.3     1  UNL1       -0.3756
     22 C          -5.9609   -1.1931   -1.3710 C.2     1  UNL1        0.2714
     23 O          -6.2597   -1.2597   -2.6162 O.2     1  UNL1       -0.2704
     24 N          -6.0204   -2.4389   -0.6909 N.am    1  UNL1       -0.1950
     25 O          -6.3627   -3.5959   -1.3367 O.3     1  UNL1       -0.2951
     26 C          -0.6923   -0.9570   -1.1621 C.ar    1  UNL1       -0.0334
     27 C           0.6754   -0.6782   -1.1167 C.ar    1  UNL1       -0.0181
     28 C           5.6048   -0.4060    0.6488 C.ar    1  UNL1       -0.0438
     29 C           5.1204   -1.7936    0.8786 C.3     1  UNL1       -0.0393
     30 C           6.9412   -0.2155    0.2915 C.ar    1  UNL1       -0.0556
     31 H           8.9339    1.2665   -1.4083 H       1  UNL1        0.0278
     32 H           9.1314    2.2831    0.0890 H       1  UNL1        0.0278
     33 H           9.4481    0.5068    0.2024 H       1  UNL1        0.0278
     34 H           6.9452    3.1619    0.0341 H       1  UNL1        0.0620
     35 H           4.5770    2.7795    0.6705 H       1  UNL1        0.0622
     36 H           3.2526   -0.3067    1.9392 H       1  UNL1        0.0748
     37 H           2.9055    1.4000    1.6019 H       1  UNL1        0.0748
     38 H           0.9659    0.3039    2.0592 H       1  UNL1        0.0655
     39 H          -1.4725   -0.1915    1.9973 H       1  UNL1        0.0638
     40 H          -3.7666    0.5022   -1.6902 H       1  UNL1        0.0575
     41 H          -3.1717    2.2202   -0.3912 H       1  UNL1        0.0307
     42 H          -3.1632    1.1780    1.0463 H       1  UNL1        0.0307
     43 H          -5.5075    2.7767   -0.1233 H       1  UNL1        0.0560
     44 H          -4.6710    2.9117    1.4284 H       1  UNL1        0.0560
     45 H          -7.4048    0.2841    0.3503 H       1  UNL1        0.0594
     46 H          -6.1423   -0.6887    1.1734 H       1  UNL1        0.0594
     47 H          -6.4544    0.7229   -2.4376 H       1  UNL1        0.2110
     48 H          -5.8208   -2.5165    0.3169 H       1  UNL1        0.1823
     49 H          -5.7667   -4.2964   -0.9757 H       1  UNL1        0.2414
     50 H          -1.1695   -1.3131   -2.0655 H       1  UNL1        0.0638
     51 H           1.2812   -0.8169   -1.9968 H       1  UNL1        0.0655
     52 H           5.3925   -2.0774    1.9166 H       1  UNL1        0.0278
     53 H           5.6340   -2.4697    0.1558 H       1  UNL1        0.0278
     54 H           4.0317   -1.8901    0.6995 H       1  UNL1        0.0278
     55 H           7.6050   -1.0675    0.1860 H       1  UNL1        0.0623
@<TRIPOS>BOND
     1     1     2    1
     2     2     3   ar
     3     3     4   ar
     4     4     5   ar
     5     5     6    1
     6     6     7    1
     7     7     8    1
     8     8     9   ar
     9     9    10   ar
    10    10    11   ar
    11    11    12    1
    12    12    13    2
    13    12    14    2
    14    12    15    1
    15    15    16    1
    16    16    17    1
    17    17    18    1
    18    18    19    1
    19    19    20    1
    20    20    21    1
    21    20    22    1
    22    22    23    2
    23    22    24   am
    24    24    25    1
    25    11    26   ar
    26    26    27   ar
    27     5    28   ar
    28    28    29    1
    29    28    30   ar
    30    30     2   ar
    31    27     8   ar
    32    20    15    1
    33     1    31    1
    34     1    32    1
    35     1    33    1
    36     3    34    1
    37     4    35    1
    38     6    36    1
    39     6    37    1
    40     9    38    1
    41    10    39    1
    42    15    40    1
    43    16    41    1
    44    16    42    1
    45    17    43    1
    46    17    44    1
    47    19    45    1
    48    19    46    1
    49    21    47    1
    50    24    48    1
    51    25    49    1
    52    26    50    1
    53    27    51    1
    54    29    52    1
    55    29    53    1
    56    29    54    1
    57    30    55    1
