
     RDKit          3D

 55 57  0  0  0  0  0  0  0  0999 V2000
    8.8579    1.2644   -0.3125 C   0  0  0  0  0  0  0  0  0  0  0  0
    7.4268    1.0596    0.0702 C   0  0  0  0  0  0  0  0  0  0  0  0
    6.5765    2.1427    0.2061 C   0  0  0  0  0  0  0  0  0  0  0  0
    5.2564    1.9277    0.5610 C   0  0  0  0  0  0  0  0  0  0  0  0
    4.7596    0.6660    0.7842 C   0  0  0  0  0  0  0  0  0  0  0  0
    3.3371    0.5011    1.1630 C   0  0  0  0  0  0  0  0  0  0  0  0
    2.6385    0.0354    0.0262 O   0  0  0  0  0  0  0  0  0  0  0  0
    1.2763   -0.2252    0.0378 C   0  0  0  0  0  0  0  0  0  0  0  0
    0.4905   -0.0527    1.1534 C   0  0  0  0  0  0  0  0  0  0  0  0
   -0.8779   -0.3328    1.1038 C   0  0  0  0  0  0  0  0  0  0  0  0
   -1.4796   -0.7844   -0.0457 C   0  0  0  0  0  0  0  0  0  0  0  0
   -3.2235   -1.1292   -0.0851 S   0  0  0  0  0  6  0  0  0  0  0  0
   -3.5682   -1.4794    1.3481 O   0  0  0  0  0  0  0  0  0  0  0  0
   -3.4061   -2.3399   -0.9213 O   0  0  0  0  0  0  0  0  0  0  0  0
   -4.1223    0.2533   -0.6458 C   0  0  2  0  0  0  0  0  0  0  0  0
   -3.7548    1.4835    0.1751 C   0  0  0  0  0  0  0  0  0  0  0  0
   -5.0275    2.1708    0.6552 C   0  0  0  0  0  0  0  0  0  0  0  0
   -5.8617    1.3058    1.3215 O   0  0  0  0  0  0  0  0  0  0  0  0
   -6.3072    0.2302    0.5750 C   0  0  0  0  0  0  0  0  0  0  0  0
   -5.5978    0.0843   -0.7354 C   0  0  1  0  0  0  0  0  0  0  0  0
   -6.0318    1.0939   -1.6505 O   0  0  0  0  0  0  0  0  0  0  0  0
   -5.9609   -1.1931   -1.3710 C   0  0  0  0  0  0  0  0  0  0  0  0
   -6.2597   -1.2597   -2.6162 O   0  0  0  0  0  0  0  0  0  0  0  0
   -6.0204   -2.4389   -0.6909 N   0  0  0  0  0  0  0  0  0  0  0  0
   -6.3627   -3.5959   -1.3367 O   0  0  0  0  0  0  0  0  0  0  0  0
   -0.6923   -0.9570   -1.1621 C   0  0  0  0  0  0  0  0  0  0  0  0
    0.6754   -0.6782   -1.1167 C   0  0  0  0  0  0  0  0  0  0  0  0
    5.6048   -0.4060    0.6488 C   0  0  0  0  0  0  0  0  0  0  0  0
    5.1204   -1.7936    0.8786 C   0  0  0  0  0  0  0  0  0  0  0  0
    6.9412   -0.2155    0.2915 C   0  0  0  0  0  0  0  0  0  0  0  0
    8.9339    1.2665   -1.4083 H   0  0  0  0  0  0  0  0  0  0  0  0
    9.1314    2.2831    0.0890 H   0  0  0  0  0  0  0  0  0  0  0  0
    9.4481    0.5068    0.2024 H   0  0  0  0  0  0  0  0  0  0  0  0
    6.9452    3.1619    0.0341 H   0  0  0  0  0  0  0  0  0  0  0  0
    4.5770    2.7795    0.6705 H   0  0  0  0  0  0  0  0  0  0  0  0
    3.2526   -0.3067    1.9392 H   0  0  0  0  0  0  0  0  0  0  0  0
    2.9055    1.4000    1.6019 H   0  0  0  0  0  0  0  0  0  0  0  0
    0.9659    0.3039    2.0592 H   0  0  0  0  0  0  0  0  0  0  0  0
   -1.4725   -0.1915    1.9973 H   0  0  0  0  0  0  0  0  0  0  0  0
   -3.7666    0.5022   -1.6902 H   0  0  0  0  0  0  0  0  0  0  0  0
   -3.1717    2.2202   -0.3912 H   0  0  0  0  0  0  0  0  0  0  0  0
   -3.1632    1.1780    1.0463 H   0  0  0  0  0  0  0  0  0  0  0  0
   -5.5075    2.7767   -0.1233 H   0  0  0  0  0  0  0  0  0  0  0  0
   -4.6710    2.9117    1.4284 H   0  0  0  0  0  0  0  0  0  0  0  0
   -7.4048    0.2841    0.3503 H   0  0  0  0  0  0  0  0  0  0  0  0
   -6.1423   -0.6887    1.1734 H   0  0  0  0  0  0  0  0  0  0  0  0
   -6.4544    0.7229   -2.4376 H   0  0  0  0  0  0  0  0  0  0  0  0
   -5.8208   -2.5165    0.3169 H   0  0  0  0  0  0  0  0  0  0  0  0
   -5.7667   -4.2964   -0.9757 H   0  0  0  0  0  0  0  0  0  0  0  0
   -1.1695   -1.3131   -2.0655 H   0  0  0  0  0  0  0  0  0  0  0  0
    1.2812   -0.8169   -1.9968 H   0  0  0  0  0  0  0  0  0  0  0  0
    5.3925   -2.0774    1.9166 H   0  0  0  0  0  0  0  0  0  0  0  0
    5.6340   -2.4697    0.1558 H   0  0  0  0  0  0  0  0  0  0  0  0
    4.0317   -1.8901    0.6995 H   0  0  0  0  0  0  0  0  0  0  0  0
    7.6050   -1.0675    0.1860 H   0  0  0  0  0  0  0  0  0  0  0  0
  1  2  1  0
  2  3  2  0
  3  4  1  0
  4  5  2  0
  5  6  1  0
  6  7  1  0
  7  8  1  0
  8  9  2  0
  9 10  1  0
 10 11  2  0
 11 12  1  0
 12 13  2  0
 12 14  2  0
 12 15  1  0
 15 16  1  0
 16 17  1  0
 17 18  1  0
 18 19  1  0
 19 20  1  0
 20 21  1  6
 20 22  1  0
 22 23  2  0
 22 24  1  0
 24 25  1  0
 11 26  1  0
 26 27  2  0
  5 28  1  0
 28 29  1  0
 28 30  2  0
 30  2  1  0
 27  8  1  0
 20 15  1  0
  1 31  1  0
  1 32  1  0
  1 33  1  0
  3 34  1  0
  4 35  1  0
  6 36  1  0
  6 37  1  0
  9 38  1  0
 10 39  1  0
 15 40  1  6
 16 41  1  0
 16 42  1  0
 17 43  1  0
 17 44  1  0
 19 45  1  0
 19 46  1  0
 21 47  1  0
 24 48  1  0
 25 49  1  0
 26 50  1  0
 27 51  1  0
 29 52  1  0
 29 53  1  0
 29 54  1  0
 30 55  1  0
M  END
$$$$
