@<TRIPOS>MOLECULE
*****
 41 43 0 0 0
SMALL
GASTEIGER

@<TRIPOS>ATOM
      1 O          -2.3668   -2.0347   -1.0580 O.2     1  UNL1       -0.2524
      2 C          -2.1148   -1.0421   -0.2420 C.2     1  UNL1        0.3050
      3 N          -3.2041   -0.2162   -0.0047 N.am    1  UNL1       -0.2811
      4 C          -4.4812   -0.5475   -0.6954 C.3     1  UNL1        0.0396
      5 C          -5.0990    0.8151   -1.0476 C.3     1  UNL1        0.0635
      6 O          -4.1165    1.7728   -1.2641 O.3     1  UNL1       -0.3767
      7 C          -3.4080    2.1329   -0.1333 C.3     1  UNL1        0.0635
      8 C          -3.3282    0.9543    0.8162 C.3     1  UNL1        0.0396
      9 N          -0.8107   -1.0121    0.2219 N.am    1  UNL1       -0.2825
     10 C           0.1360   -2.0532   -0.2317 C.3     1  UNL1        0.0319
     11 C           1.3500   -1.3513   -0.8449 C.3     1  UNL1        0.0281
     12 N           1.9553   -0.5597    0.2214 N.pl3   1  UNL1       -0.3269
     13 C           3.3031   -0.1036    0.0961 C.ar    1  UNL1        0.0299
     14 C           3.9780   -0.2711   -1.1148 C.ar    1  UNL1       -0.0393
     15 C           5.2824    0.1526   -1.2627 C.ar    1  UNL1       -0.0416
     16 C           5.9312    0.7497   -0.2029 C.ar    1  UNL1        0.0411
     17 CL          7.5673    1.2929   -0.3544 Cl      1  UNL1       -0.0835
     18 C           5.2472    0.9080    0.9910 C.ar    1  UNL1       -0.0416
     19 C           3.9262    0.4860    1.1621 C.ar    1  UNL1       -0.0393
     20 C           1.1990   -0.2457    1.3771 C.3     1  UNL1        0.0281
     21 C          -0.2985   -0.0257    1.1197 C.3     1  UNL1        0.0319
     22 H          -5.0972   -1.0436    0.0605 H       1  UNL1        0.0488
     23 H          -4.3030   -1.1145   -1.6101 H       1  UNL1        0.0488
     24 H          -5.6200    0.6755   -2.0170 H       1  UNL1        0.0575
     25 H          -5.8360    1.1082   -0.2948 H       1  UNL1        0.0575
     26 H          -3.8484    3.0335    0.3476 H       1  UNL1        0.0575
     27 H          -2.3733    2.4002   -0.4283 H       1  UNL1        0.0575
     28 H          -4.3436    0.9135    1.3296 H       1  UNL1        0.0488
     29 H          -2.6049    1.1135    1.5916 H       1  UNL1        0.0488
     30 H          -0.3025   -2.6894   -1.0100 H       1  UNL1        0.0480
     31 H           0.4989   -2.6659    0.5957 H       1  UNL1        0.0480
     32 H           2.0133   -2.1217   -1.2381 H       1  UNL1        0.0479
     33 H           1.0287   -0.6980   -1.6790 H       1  UNL1        0.0479
     34 H           3.4714   -0.7369   -1.9411 H       1  UNL1        0.0636
     35 H           5.8485    0.0456   -2.1801 H       1  UNL1        0.0633
     36 H           5.7193    1.3703    1.8439 H       1  UNL1        0.0633
     37 H           3.4786    0.6479    2.1289 H       1  UNL1        0.0636
     38 H           1.5112    0.6684    1.9299 H       1  UNL1        0.0479
     39 H           1.2678   -1.1100    2.0779 H       1  UNL1        0.0479
     40 H          -0.7434   -0.1131    2.1506 H       1  UNL1        0.0480
     41 H          -0.4133    1.0137    0.7930 H       1  UNL1        0.0480
@<TRIPOS>BOND
     1     1     2    2
     2     2     3   am
     3     3     4    1
     4     4     5    1
     5     5     6    1
     6     6     7    1
     7     7     8    1
     8     2     9   am
     9     9    10    1
    10    10    11    1
    11    11    12    1
    12    12    13    1
    13    13    14   ar
    14    14    15   ar
    15    15    16   ar
    16    16    17    1
    17    16    18   ar
    18    18    19   ar
    19    12    20    1
    20    20    21    1
    21     8     3    1
    22    21     9    1
    23    19    13   ar
    24     4    22    1
    25     4    23    1
    26     5    24    1
    27     5    25    1
    28     7    26    1
    29     7    27    1
    30     8    28    1
    31     8    29    1
    32    10    30    1
    33    10    31    1
    34    11    32    1
    35    11    33    1
    36    14    34    1
    37    15    35    1
    38    18    36    1
    39    19    37    1
    40    20    38    1
    41    20    39    1
    42    21    40    1
    43    21    41    1
