
     RDKit          3D

 41 43  0  0  0  0  0  0  0  0999 V2000
   -2.3668   -2.0347   -1.0580 O   0  0  0  0  0  0  0  0  0  0  0  0
   -2.1148   -1.0421   -0.2420 C   0  0  0  0  0  0  0  0  0  0  0  0
   -3.2041   -0.2162   -0.0047 N   0  0  0  0  0  0  0  0  0  0  0  0
   -4.4812   -0.5475   -0.6954 C   0  0  0  0  0  0  0  0  0  0  0  0
   -5.0990    0.8151   -1.0476 C   0  0  0  0  0  0  0  0  0  0  0  0
   -4.1165    1.7728   -1.2641 O   0  0  0  0  0  0  0  0  0  0  0  0
   -3.4080    2.1329   -0.1333 C   0  0  0  0  0  0  0  0  0  0  0  0
   -3.3282    0.9543    0.8162 C   0  0  0  0  0  0  0  0  0  0  0  0
   -0.8107   -1.0121    0.2219 N   0  0  0  0  0  0  0  0  0  0  0  0
    0.1360   -2.0532   -0.2317 C   0  0  0  0  0  0  0  0  0  0  0  0
    1.3500   -1.3513   -0.8449 C   0  0  0  0  0  0  0  0  0  0  0  0
    1.9553   -0.5597    0.2214 N   0  0  0  0  0  0  0  0  0  0  0  0
    3.3031   -0.1036    0.0961 C   0  0  0  0  0  0  0  0  0  0  0  0
    3.9780   -0.2711   -1.1148 C   0  0  0  0  0  0  0  0  0  0  0  0
    5.2824    0.1526   -1.2627 C   0  0  0  0  0  0  0  0  0  0  0  0
    5.9312    0.7497   -0.2029 C   0  0  0  0  0  0  0  0  0  0  0  0
    7.5673    1.2929   -0.3544 Cl  0  0  0  0  0  0  0  0  0  0  0  0
    5.2472    0.9080    0.9910 C   0  0  0  0  0  0  0  0  0  0  0  0
    3.9262    0.4860    1.1621 C   0  0  0  0  0  0  0  0  0  0  0  0
    1.1990   -0.2457    1.3771 C   0  0  0  0  0  0  0  0  0  0  0  0
   -0.2985   -0.0257    1.1197 C   0  0  0  0  0  0  0  0  0  0  0  0
   -5.0972   -1.0436    0.0605 H   0  0  0  0  0  0  0  0  0  0  0  0
   -4.3030   -1.1145   -1.6101 H   0  0  0  0  0  0  0  0  0  0  0  0
   -5.6200    0.6755   -2.0170 H   0  0  0  0  0  0  0  0  0  0  0  0
   -5.8360    1.1082   -0.2948 H   0  0  0  0  0  0  0  0  0  0  0  0
   -3.8484    3.0335    0.3476 H   0  0  0  0  0  0  0  0  0  0  0  0
   -2.3733    2.4002   -0.4283 H   0  0  0  0  0  0  0  0  0  0  0  0
   -4.3436    0.9135    1.3296 H   0  0  0  0  0  0  0  0  0  0  0  0
   -2.6049    1.1135    1.5916 H   0  0  0  0  0  0  0  0  0  0  0  0
   -0.3025   -2.6894   -1.0100 H   0  0  0  0  0  0  0  0  0  0  0  0
    0.4989   -2.6659    0.5957 H   0  0  0  0  0  0  0  0  0  0  0  0
    2.0133   -2.1217   -1.2381 H   0  0  0  0  0  0  0  0  0  0  0  0
    1.0287   -0.6980   -1.6790 H   0  0  0  0  0  0  0  0  0  0  0  0
    3.4714   -0.7369   -1.9411 H   0  0  0  0  0  0  0  0  0  0  0  0
    5.8485    0.0456   -2.1801 H   0  0  0  0  0  0  0  0  0  0  0  0
    5.7193    1.3703    1.8439 H   0  0  0  0  0  0  0  0  0  0  0  0
    3.4786    0.6479    2.1289 H   0  0  0  0  0  0  0  0  0  0  0  0
    1.5112    0.6684    1.9299 H   0  0  0  0  0  0  0  0  0  0  0  0
    1.2678   -1.1100    2.0779 H   0  0  0  0  0  0  0  0  0  0  0  0
   -0.7434   -0.1131    2.1506 H   0  0  0  0  0  0  0  0  0  0  0  0
   -0.4133    1.0137    0.7930 H   0  0  0  0  0  0  0  0  0  0  0  0
  1  2  2  0
  2  3  1  0
  3  4  1  0
  4  5  1  0
  5  6  1  0
  6  7  1  0
  7  8  1  0
  2  9  1  0
  9 10  1  0
 10 11  1  0
 11 12  1  0
 12 13  1  0
 13 14  2  0
 14 15  1  0
 15 16  2  0
 16 17  1  0
 16 18  1  0
 18 19  2  0
 12 20  1  0
 20 21  1  0
  8  3  1  0
 21  9  1  0
 19 13  1  0
  4 22  1  0
  4 23  1  0
  5 24  1  0
  5 25  1  0
  7 26  1  0
  7 27  1  0
  8 28  1  0
  8 29  1  0
 10 30  1  0
 10 31  1  0
 11 32  1  0
 11 33  1  0
 14 34  1  0
 15 35  1  0
 18 36  1  0
 19 37  1  0
 20 38  1  0
 20 39  1  0
 21 40  1  0
 21 41  1  0
M  END
$$$$
