@<TRIPOS>MOLECULE
*****
 22 21 0 0 0
SMALL
GASTEIGER

@<TRIPOS>ATOM
      1 CD1        -1.6792    1.1552   -0.6516 C.3     1  LEU1       -0.0626
      2 CG         -1.3514   -0.2776   -0.5239 C.3     1  LEU1       -0.0448
      3 CD2        -2.0196   -0.8409    0.7126 C.3     1  LEU1       -0.0626
      4 CB          0.0905   -0.6440   -0.5523 C.3     1  LEU1       -0.0250
      5 CA          0.9601   -0.0630    0.4990 C.3     1  LEU1        0.1035
      6 N           1.0223    1.3717    0.5254 N.3     1  LEU1       -0.3184
      7 C           2.3499   -0.5404    0.1956 C.2     1  LEU1        0.3217
      8 O           3.6024    0.0376   -0.0501 O.3     1  LEU1       -0.4795
      9 OXT         2.5178   -1.7766    0.1266 O.2     1  LEU1       -0.2493
     10 HD11       -2.4212    1.3512   -1.4817 H       1  LEU1        0.0232
     11 HD12       -0.8669    1.8560   -0.8392 H       1  LEU1        0.0232
     12 HD13       -2.2161    1.5365    0.2668 H       1  LEU1        0.0232
     13 HG         -1.8160   -0.8187   -1.3863 H       1  LEU1        0.0296
     14 HD21       -3.0539   -1.1745    0.5159 H       1  LEU1        0.0232
     15 HD22       -1.4243   -1.7189    1.0766 H       1  LEU1        0.0232
     16 HD23       -2.0557   -0.0810    1.5394 H       1  LEU1        0.0232
     17 HB1         0.1441   -1.7540   -0.4219 H       1  LEU1        0.0288
     18 HB2         0.5643   -0.4662   -1.5399 H       1  LEU1        0.0288
     19 HA          0.7416   -0.4554    1.5097 H       1  LEU1        0.0574
     20 H1          1.1027    1.7088    1.5031 H       1  LEU1        0.1190
     21 H2          1.6926    1.7823   -0.1305 H       1  LEU1        0.1190
     22 H           4.1162   -0.1881   -0.8934 H       1  LEU1        0.2951
@<TRIPOS>BOND
     1     1     2    1
     2     2     3    1
     3     2     4    1
     4     4     5    1
     5     5     6    1
     6     5     7    1
     7     7     8    1
     8     7     9    2
     9     1    10    1
    10     1    11    1
    11     1    12    1
    12     2    13    1
    13     3    14    1
    14     3    15    1
    15     3    16    1
    16     4    17    1
    17     4    18    1
    18     5    19    1
    19     6    20    1
    20     6    21    1
    21     8    22    1
