@<TRIPOS>MOLECULE
*****
 378 379 0 0 0
SMALL
GASTEIGER

@<TRIPOS>ATOM
      1 CD1        -6.5421    2.7396    3.9037 C.3     2  LEU2       -0.0626
      2 CG         -5.9871    3.0793    2.5555 C.3     2  LEU2       -0.0446
      3 CD2        -5.9241    4.5950    2.3607 C.3     2  LEU2       -0.0626
      4 CB         -6.7505    2.4271    1.4180 C.3     2  LEU2       -0.0236
      5 CA         -8.1463    2.8341    1.3529 C.3     2  LEU2        0.0996
      6 N          -8.9649    2.5524    2.5063 N.am    2  LEU2       -0.3027
      7 C         -10.0289    3.4758    2.8930 C.2     1  GLU1        0.2305
      8 O         -10.2295    4.4783    2.2175 O.2     1  GLU1       -0.2741
      9 CA        -10.7910    3.1037    4.1011 C.3     1  GLU1        0.0828
     10 N         -10.0048    2.1743    4.8959 N.3     1  GLU1       -0.3199
     11 CB        -11.2430    4.2345    4.9364 C.3     1  GLU1       -0.0192
     12 CG        -12.1973    5.1817    4.2691 C.3     1  GLU1        0.0466
     13 CD        -13.4419    4.4534    3.9327 C.2     1  GLU1        0.3048
     14 OE1       -13.6842    3.3008    4.3180 O.2     1  GLU1       -0.2510
     15 OE2       -14.4233    5.0640    3.1393 O.3     1  GLU1       -0.4806
     16 C          -8.8777    2.3673    0.1139 C.2     2  LEU2        0.2340
     17 O         -10.1131    2.1200    0.2212 O.2     2  LEU2       -0.2738
     18 N          -8.2420    2.2099   -1.1018 N.am    3  GLU3       -0.3025
     19 CA         -8.7611    1.8171   -2.4054 C.3     3  GLU3        0.0999
     20 CB         -7.7706    1.4961   -3.4233 C.3     3  GLU3       -0.0159
     21 CG         -8.3569    1.2595   -4.7841 C.3     3  GLU3        0.0469
     22 CD         -7.2611    0.8287   -5.7316 C.2     3  GLU3        0.3048
     23 OE1        -6.9208   -0.4030   -5.7296 O.2     3  GLU3       -0.2510
     24 OE2        -6.6160    1.6775   -6.5875 O.3     3  GLU3       -0.4806
     25 C          -9.7937    0.7407   -2.2975 C.2     3  GLU3        0.2340
     26 O         -10.7591    1.0242   -1.5188 O.2     3  GLU3       -0.2738
     27 N          -9.8426   -0.5246   -2.9188 N.am    4  VAL4       -0.3022
     28 CA        -10.9950   -1.3871   -2.6294 C.3     4  VAL4        0.1017
     29 C         -10.6288   -2.7710   -2.2948 C.2     4  VAL4        0.2342
     30 O          -9.8368   -3.4130   -2.9850 O.2     4  VAL4       -0.2738
     31 N         -11.2152   -3.3332   -1.1459 N.am    5  GLU5       -0.3025
     32 CA        -10.9957   -4.7038   -0.6499 C.3     5  GLU5        0.0999
     33 CB        -10.1807   -5.5464   -1.5666 C.3     5  GLU5       -0.0159
     34 CG        -10.1273   -6.9863   -1.0949 C.3     5  GLU5        0.0469
     35 CD         -9.2736   -7.8118   -1.9841 C.2     5  GLU5        0.3048
     36 OE1        -9.1172   -9.0201   -1.7248 O.2     5  GLU5       -0.2510
     37 OE2        -8.6881   -7.1905   -3.0682 O.3     5  GLU5       -0.4806
     38 C         -10.3915   -4.4928    0.6926 C.2     5  GLU5        0.2340
     39 O         -11.0456   -3.6284    1.4084 O.2     5  GLU5       -0.2738
     40 N          -9.2413   -5.0870    1.2224 N.am    6  CYS6       -0.3017
     41 CA         -8.7474   -4.7401    2.5737 C.3     6  CYS6        0.1081
     42 CB         -8.6292   -5.9523    3.4381 C.3     6  CYS6        0.0177
     43 SG         -7.4723   -7.1493    2.7150 S.3     6  CYS6       -0.1759
     44 C          -7.4384   -4.0865    2.3405 C.2     6  CYS6        0.2347
     45 O          -6.9370   -4.0434    1.1551 O.2     6  CYS6       -0.2737
     46 N          -6.6366   -3.4650    3.3423 N.am    7  ALA7       -0.3027
     47 CA         -5.3831   -2.8660    2.9474 C.3     7  ALA7        0.0966
     48 CB         -5.8474   -1.4058    2.5460 C.3     7  ALA7       -0.0381
     49 C          -4.4183   -2.6130    4.0159 C.2     7  ALA7        0.2337
     50 O          -4.7153   -2.8010    5.2170 O.2     7  ALA7       -0.2738
     51 N          -3.1215   -2.1425    3.7367 N.am    8  THR8       -0.3004
     52 CA         -2.0739   -1.7960    4.6759 C.3     8  THR8        0.1252
     53 C          -1.9944   -0.3183    4.5698 C.2     8  THR8        0.2365
     54 O          -3.1075    0.2753    4.3399 O.2     8  THR8       -0.2737
     55 N          -0.8575    0.5118    4.6850 N.am    9  GLN9       -0.3024
     56 CA         -1.0248    1.9271    4.5313 C.3     9  GLN9        0.0999
     57 CB         -0.9124    2.6289    5.8445 C.3     9  GLN9       -0.0177
     58 CG         -1.8566    2.2565    6.9199 C.3     9  GLN9        0.0259
     59 CD         -1.7052    0.8968    7.4395 C.2     9  GLN9        0.2106
     60 NE2        -2.7990    0.2142    8.0325 N.am    9  GLN9       -0.3293
     61 OE1        -0.6063    0.3088    7.3764 O.2     9  GLN9       -0.2760
     62 C          -0.0170    2.5648    3.6243 C.2     9  GLN9        0.2340
     63 O           1.0938    2.0812    3.5005 O.2     9  GLN9       -0.2738
     64 N          -0.3707    3.7606    2.9022 N.am   10  LEU10      -0.3025
     65 CA          0.5263    4.4808    2.0454 C.3    10  LEU10       0.0996
     66 CB          1.9546    4.5522    2.5212 C.3    10  LEU10      -0.0236
     67 CG          1.9771    5.2491    3.9058 C.3    10  LEU10      -0.0446
     68 CD1         1.3754    6.6402    3.7281 C.3    10  LEU10      -0.0626
     69 CD2         3.3691    5.4111    4.4131 C.3    10  LEU10      -0.0626
     70 C           0.3726    4.3824    0.6163 C.2    10  LEU10       0.2340
     71 O          -0.8029    4.1756    0.1207 O.2    10  LEU10      -0.2738
     72 N           1.3875    4.4915   -0.3800 N.am   11  ARG11      -0.3025
     73 CA          1.1686    4.4452   -1.7827 C.3    11  ARG11       0.0995
     74 CB          1.7165    5.6887   -2.4795 C.3    11  ARG11      -0.0230
     75 CG          1.0753    6.9519   -1.9660 C.3    11  ARG11      -0.0165
     76 CD         -0.4047    7.0211   -2.1508 C.3    11  ARG11       0.1048
     77 NE         -0.8121    6.9392   -3.5312 N.pl3  11  ARG11      -0.1138
     78 CZ         -1.9885    7.3674   -3.8602 C.cat  11  ARG11       0.3765
     79 NH1        -2.9200    7.9202   -2.9452 N.pl3  11  ARG11      -0.2893
     80 NH2        -2.3975    7.2882   -5.2388 N.pl3  11  ARG11      -0.2893
     81 C           1.6954    3.2797   -2.5035 C.2    11  ARG11       0.2339
     82 O           2.2824    2.3510   -1.8699 O.2    11  ARG11      -0.2738
     83 N           1.5975    3.0926   -3.9329 N.am   12  ARG12      -0.3025
     84 CA          2.1239    1.9507   -4.5897 C.3    12  ARG12       0.0995
     85 CB          0.9604    1.1233   -5.2058 C.3    12  ARG12      -0.0230
     86 CG          1.5858   -0.0565   -5.9069 C.3    12  ARG12      -0.0165
     87 CD          0.4836   -0.8685   -6.5227 C.3    12  ARG12       0.1048
     88 NE          0.9659   -2.0171   -7.2422 N.pl3  12  ARG12      -0.1138
     89 CZ          0.2164   -3.0689   -7.3163 C.cat  12  ARG12       0.3765
     90 NH1         0.6094   -4.2563   -8.0092 N.pl3  12  ARG12      -0.2893
     91 NH2        -1.0775   -3.1011   -6.6882 N.pl3  12  ARG12      -0.2893
     92 C           2.9837    2.2367   -5.7939 C.2    12  ARG12       0.2340
     93 O           2.5441    3.0329   -6.6641 O.2    12  ARG12      -0.2738
     94 N           4.2367    1.6499   -5.9638 N.am   13  PHE13      -0.3022
     95 CA          5.1787    1.7640   -7.0213 C.3    13  PHE13       0.1034
     96 CB          6.1591    2.9109   -6.6750 C.3    13  PHE13      -0.0007
     97 CG          5.3912    4.1525   -6.5888 C.ar   13  PHE13      -0.0451
     98 CD1         5.2151    4.8416   -7.7973 C.ar   13  PHE13      -0.0585
     99 CE1         4.5291    6.0080   -7.8819 C.ar   13  PHE13      -0.0615
    100 CZ          3.9932    6.5226   -6.7326 C.ar   13  PHE13      -0.0617
    101 CE2         4.1401    5.8854   -5.5324 C.ar   13  PHE13      -0.0615
    102 CD2         4.8465    4.6871   -5.4549 C.ar   13  PHE13      -0.0585
    103 C           6.0478    0.5766   -7.1673 C.2    13  PHE13       0.2341
    104 O           5.8755   -0.3593   -6.3523 O.2    13  PHE13      -0.2738
    105 N           7.0430    0.4571   -8.1593 N.am   14  GLY14      -0.3052
    106 CA          7.8750   -0.7223   -8.2143 C.3    14  GLY14       0.0882
    107 C           8.7418   -0.8814   -7.0134 C.2    14  GLY14       0.2308
    108 O           9.4846   -1.9080   -6.9103 O.2    14  GLY14      -0.2741
    109 N           8.7676    0.0849   -5.9749 N.am   15  ASP15      -0.3022
    110 CA          9.5902   -0.0340   -4.7819 C.3    15  ASP15       0.1094
    111 CB         10.5908    1.0685   -4.7075 C.3    15  ASP15       0.0716
    112 CG         11.4518    0.9726   -5.9231 C.2    15  ASP15       0.3070
    113 OD1        12.4012    0.1411   -5.9585 O.2    15  ASP15      -0.2509
    114 OD2        11.2716    1.7627   -7.0479 O.3    15  ASP15      -0.4806
    115 C           8.7574   -0.1618   -3.5584 C.2    15  ASP15       0.2345
    116 O           7.5090   -0.1378   -3.7008 O.2    15  ASP15      -0.2737
    117 N           9.3104   -0.3087   -2.2644 N.am   16  LYS16      -0.3025
    118 CA          8.5343   -0.4450   -1.0770 C.3    16  LYS16       0.0994
    119 CB          8.5601   -1.9280   -0.6877 C.3    16  LYS16      -0.0259
    120 CG         10.0092   -2.3116   -0.5094 C.3    16  LYS16      -0.0498
    121 CD         10.2276   -3.7258   -0.0839 C.3    16  LYS16      -0.0406
    122 CE          9.6934   -4.7360   -1.0528 C.3    16  LYS16      -0.0069
    123 NZ         10.3980   -4.5143   -2.3210 N.3    16  LYS16      -0.3300
    124 C           8.9970    0.4149    0.0452 C.2    16  LYS16       0.2339
    125 O           9.9922    1.1663   -0.0840 O.2    16  LYS16      -0.2738
    126 N           8.3168    0.3853    1.2687 N.am   17  LEU17      -0.3025
    127 CA          8.7713    1.2446    2.4753 C.3    17  LEU17       0.0996
    128 CB          7.4966    1.7604    2.9765 C.3    17  LEU17      -0.0236
    129 CG          7.3549    2.7594    4.0248 C.3    17  LEU17      -0.0446
    130 CD1         7.8834    2.5866    5.3941 C.3    17  LEU17      -0.0626
    131 CD2         5.7922    2.8560    4.2526 C.3    17  LEU17      -0.0626
    132 C           9.3763    0.1775    3.2979 C.2    17  LEU17       0.2340
    133 O          10.0849   -0.6414    2.5263 O.2    17  LEU17      -0.2738
    134 N           9.4100   -0.2179    4.6067 N.am   18  ASN18      -0.3020
    135 CA         10.1380   -1.4773    4.9746 C.3    18  ASN18       0.1076
    136 CB         11.0082   -1.2561    6.1450 C.3    18  ASN18       0.0506
    137 CG         12.0345   -0.2107    5.9545 C.2    18  ASN18       0.2127
    138 ND2        12.8970    0.0826    7.0597 N.am   18  ASN18      -0.3293
    139 OD1        12.2331    0.4536    4.9213 O.2    18  ASN18      -0.2760
    140 C           8.9888   -2.3641    5.4021 C.2    18  ASN18       0.2344
    141 O           8.7727   -2.5806    6.5968 O.2    18  ASN18      -0.2737
    142 N           8.1622   -2.9113    4.3861 N.am   19  PHE19      -0.3022
    143 CA          7.0250   -3.7409    4.5328 C.3    19  PHE19       0.1034
    144 CB          5.7510   -3.0516    4.9967 C.3    19  PHE19      -0.0007
    145 CG          5.8990   -2.4074    6.2978 C.ar   19  PHE19      -0.0451
    146 CD1         5.7524   -3.1546    7.4786 C.ar   19  PHE19      -0.0585
    147 CE1         5.8211   -2.5775    8.7187 C.ar   19  PHE19      -0.0615
    148 CZ          6.0404   -1.2171    8.8500 C.ar   19  PHE19      -0.0617
    149 CE2         6.1884   -0.4548    7.7316 C.ar   19  PHE19      -0.0615
    150 CD2         6.1185   -1.0373    6.4890 C.ar   19  PHE19      -0.0585
    151 C           6.7029   -4.3771    3.1825 C.2    19  PHE19       0.2343
    152 O           7.6741   -4.7789    2.5217 O.2    19  PHE19      -0.2738
    153 N           5.3579   -4.4585    2.7679 N.am   20  ARG20      -0.3025
    154 CA          4.9704   -5.0084    1.5035 C.3    20  ARG20       0.0995
    155 CB          4.4938   -6.3885    1.5787 C.3    20  ARG20      -0.0230
    156 CG          3.3432   -6.7248    2.4690 C.3    20  ARG20      -0.0165
    157 CD          3.0649   -8.2395    2.3816 C.3    20  ARG20       0.1048
    158 NE          1.9872   -8.5929    3.2545 N.pl3  20  ARG20      -0.1138
    159 CZ          2.2203   -9.1447    4.4289 C.cat  20  ARG20       0.3765
    160 NH1         1.1308   -9.4815    5.2677 N.pl3  20  ARG20      -0.2893
    161 NH2         3.5429   -9.3945    4.8599 N.pl3  20  ARG20      -0.2893
    162 C           4.2530   -4.0901    0.6118 C.2    20  ARG20       0.2339
    163 O           4.7084   -2.9045    0.5060 O.2    20  ARG20      -0.2738
    164 N           3.1055   -4.4112   -0.1334 N.am   21  GLN21      -0.3025
    165 CA          2.4182   -3.5267   -1.0595 C.3    21  GLN21       0.0999
    166 CB          1.7200   -4.2854   -2.1271 C.3    21  GLN21      -0.0177
    167 CG          2.7040   -5.1614   -2.9165 C.3    21  GLN21       0.0259
    168 CD          1.9778   -5.9329   -3.9358 C.2    21  GLN21       0.2106
    169 NE2         2.6598   -6.8347   -4.7694 N.am   21  GLN21      -0.3293
    170 OE1         0.7393   -5.7786   -4.0533 O.2    21  GLN21      -0.2760
    171 C           1.5892   -2.4750   -0.4900 C.2    21  GLN21       0.2340
    172 O           1.9082   -1.8887    0.5883 O.2    21  GLN21      -0.2738
    173 N           0.4104   -2.0573   -1.1069 N.am   22  LYS22      -0.3008
    174 CA         -0.5093   -0.9973   -0.7071 C.3    22  LYS22       0.1202
    175 CB         -0.7617   -0.0842   -1.8802 C.3    22  LYS22      -0.0241
    176 CG         -1.7455    0.9949   -1.5870 C.3    22  LYS22      -0.0497
    177 CD         -1.9133    1.9066   -2.8266 C.3    22  LYS22      -0.0406
    178 CE         -2.9434    2.9780   -2.5789 C.3    22  LYS22      -0.0069
    179 NZ         -4.2699    2.4303   -2.2974 N.3    22  LYS22      -0.3300
    180 C          -1.7275   -1.4527   -0.0542 C.2    22  LYS22       0.3253
    181 O          -1.9339   -2.6655    0.1815 O.2    22  LYS22      -0.2489
    182 OXT        -2.7227   -0.5923    0.3417 O.3    22  LYS22      -0.4793
    183 CB         -0.8515   -2.5319    4.2576 C.3     8  THR8        0.0792
    184 CG2        -1.2999   -3.9930    4.0474 C.3     8  THR8       -0.0367
    185 OG1        -0.5007   -2.1118    2.9514 O.3     8  THR8       -0.3897
    186 CB        -11.9613   -1.3527   -3.8139 C.3     4  VAL4       -0.0197
    187 CG1       -11.3633   -1.8357   -5.0907 C.3     4  VAL4       -0.0605
    188 CG2       -12.4840    0.0835   -3.9345 C.3     4  VAL4       -0.0605
    189 HD11       -6.6244    1.6313    3.9845 H       2  LEU2        0.0232
    190 HD12       -5.7988    3.0051    4.7112 H       2  LEU2        0.0232
    191 HD13       -7.4642    3.2800    4.1685 H       2  LEU2        0.0232
    192 HG         -4.9449    2.7116    2.4950 H       2  LEU2        0.0296
    193 HD21       -5.4490    4.9647    3.3167 H       2  LEU2        0.0232
    194 HD22       -6.9099    5.0607    2.2901 H       2  LEU2        0.0232
    195 HD23       -5.3199    4.7885    1.4766 H       2  LEU2        0.0232
    196 HB1        -6.2173    2.6584    0.4640 H       2  LEU2        0.0290
    197 HB2        -6.6042    1.3181    1.5375 H       2  LEU2        0.0290
    198 HA         -8.1838    3.9743    1.1972 H       2  LEU2        0.0594
    199 H          -8.7967    1.6792    3.0561 H       2  LEU2        0.1495
    200 HA        -11.7028    2.5434    3.7109 H       1  GLU1        0.0554
    201 H1        -10.2719    2.2239    5.9259 H       1  GLU1        0.1189
    202 H2        -10.0918    1.1910    4.5785 H       1  GLU1        0.1189
    203 HB1       -10.3673    4.8623    5.2471 H       1  GLU1        0.0290
    204 HB2       -11.7162    3.9061    5.8943 H       1  GLU1        0.0290
    205 HG1       -12.4945    5.9762    5.0044 H       1  GLU1        0.0378
    206 HG2       -11.7419    5.7134    3.3974 H       1  GLU1        0.0378
    207 HE2       -14.7758    4.5546    2.3079 H       1  GLU1        0.2951
    208 H          -7.1788    2.4217   -1.1606 H       3  GLU3        0.1495
    209 HA         -9.3933    2.7179   -2.7272 H       3  GLU3        0.0595
    210 HB1        -7.1731    0.5625   -3.1980 H       3  GLU3        0.0293
    211 HB2        -6.9785    2.2748   -3.5667 H       3  GLU3        0.0293
    212 HG1        -9.2351    0.6886   -4.9154 H       3  GLU3        0.0378
    213 HG2        -8.5988    2.3444   -5.1628 H       3  GLU3        0.0378
    214 HE2        -5.6498    1.5858   -6.8573 H       3  GLU3        0.2951
    215 H          -9.0688   -0.8384   -3.5185 H       4  VAL4        0.1495
    216 HA        -11.5470   -0.9376   -1.7924 H       4  VAL4        0.0597
    217 H         -11.8854   -2.7660   -0.5407 H       5  GLU5        0.1495
    218 HA        -11.9841   -5.1700   -0.5692 H       5  GLU5        0.0595
    219 HB1        -9.1467   -5.1541   -1.7165 H       5  GLU5        0.0293
    220 HB2       -10.6663   -5.5461   -2.5626 H       5  GLU5        0.0293
    221 HG1       -11.1911   -7.4314   -1.3165 H       5  GLU5        0.0378
    222 HG2       -10.0379   -7.1469   -0.0404 H       5  GLU5        0.0378
    223 HE2        -8.0873   -7.6694   -3.7002 H       5  GLU5        0.2951
    224 H          -8.6665   -5.7452    0.7017 H       6  CYS6        0.1495
    225 HA         -9.4792   -4.0424    3.0253 H       6  CYS6        0.0603
    226 HB1        -8.2902   -5.6031    4.4376 H       6  CYS6        0.0397
    227 HB2        -9.6178   -6.3978    3.5853 H       6  CYS6        0.0397
    228 HG         -8.2326   -8.2743    2.3095 H       6  CYS6        0.1017
    229 H          -6.9649   -3.4591    4.3095 H       7  ALA7        0.1495
    230 HA         -5.0379   -3.3265    2.0319 H       7  ALA7        0.0592
    231 HB1        -6.5421   -1.4696    1.7196 H       7  ALA7        0.0252
    232 HB2        -4.9981   -0.7421    2.4813 H       7  ALA7        0.0252
    233 HB3        -6.4181   -1.0890    3.4694 H       7  ALA7        0.0252
    234 H          -2.8768   -2.0538    2.7223 H       8  THR8        0.1496
    235 HA         -2.3583   -2.0462    5.7123 H       8  THR8        0.0621
    236 H           0.0411    0.0540    4.8499 H       9  GLN9        0.1495
    237 HA         -2.0428    2.1617    4.1276 H       9  GLN9        0.0595
    238 HB1         0.1594    2.4985    6.1937 H       9  GLN9        0.0292
    239 HB2        -1.0510    3.7322    5.6120 H       9  GLN9        0.0292
    240 HG1        -2.9142    2.4782    6.6141 H       9  GLN9        0.0359
    241 HG2        -1.6408    2.9464    7.7966 H       9  GLN9        0.0359
    242 HE21       -3.4788    0.6246    8.6875 H       9  GLN9        0.1449
    243 HE22       -2.9726   -0.8149    7.8136 H       9  GLN9        0.1449
    244 H          -1.3697    4.0653    3.0671 H      10  LEU10       0.1495
    245 HA          0.2141    5.6224    2.2583 H      10  LEU10       0.0594
    246 HB1         2.5161    5.2895    1.8778 H      10  LEU10       0.0290
    247 HB2         2.4280    3.5994    2.5011 H      10  LEU10       0.0290
    248 HG          1.3678    4.6994    4.6304 H      10  LEU10       0.0296
    249 HD11        1.5233    7.0565    2.7246 H      10  LEU10       0.0232
    250 HD12        1.9121    7.3192    4.4516 H      10  LEU10       0.0232
    251 HD13        0.3013    6.6643    4.0659 H      10  LEU10       0.0232
    252 HD21        4.1407    5.1623    3.6585 H      10  LEU10       0.0232
    253 HD22        3.5641    6.4873    4.6900 H      10  LEU10       0.0232
    254 HD23        3.5724    4.8343    5.3220 H      10  LEU10       0.0232
    255 H           2.3778    4.6152    0.0183 H      11  ARG11       0.1495
    256 HA          0.0594    4.4428   -1.9584 H      11  ARG11       0.0594
    257 HB1         1.5403    5.6284   -3.5676 H      11  ARG11       0.0289
    258 HB2         2.8164    5.7671   -2.3289 H      11  ARG11       0.0289
    259 HG1         1.2360    6.9177   -0.8412 H      11  ARG11       0.0298
    260 HG2         1.5905    7.8355   -2.3830 H      11  ARG11       0.0298
    261 HD1        -0.7150    8.0601   -1.8100 H      11  ARG11       0.0693
    262 HD2        -0.9782    6.3407   -1.4979 H      11  ARG11       0.0693
    263 HH11       -3.2773    8.8783   -3.1220 H      11  ARG11       0.2546
    264 HH12       -3.2641    7.4125   -2.1058 H      11  ARG11       0.2546
    265 HH21       -2.0134    7.8905   -5.9909 H      11  ARG11       0.2546
    266 HH22       -3.1244    6.5877   -5.4971 H      11  ARG11       0.2546
    267 H           1.1186    3.8478   -4.4604 H      12  ARG12       0.1495
    268 HA          2.6833    1.2770   -3.9403 H      12  ARG12       0.0594
    269 HB1         0.2693    0.8943   -4.4192 H      12  ARG12       0.0289
    270 HB2         0.5531    1.7854   -6.0020 H      12  ARG12       0.0289
    271 HG1         2.3148    0.2436   -6.6718 H      12  ARG12       0.0298
    272 HG2         2.1338   -0.6972   -5.1553 H      12  ARG12       0.0298
    273 HD1        -0.1426   -1.2573   -5.6793 H      12  ARG12       0.0693
    274 HD2        -0.1811   -0.2464   -7.1365 H      12  ARG12       0.0693
    275 HH11        1.3719   -4.2224   -8.7244 H      12  ARG12       0.2546
    276 HH12        0.1570   -5.1688   -7.8304 H      12  ARG12       0.2546
    277 HH21       -1.1257   -3.0808   -5.6378 H      12  ARG12       0.2546
    278 HH22       -1.9583   -3.1478   -7.2361 H      12  ARG12       0.2546
    279 H           4.5297    0.9983   -5.1479 H      13  PHE13       0.1495
    280 HA          4.7468    2.0505   -8.0018 H      13  PHE13       0.0598
    281 HB1         6.5622    2.6839   -5.6708 H      13  PHE13       0.0336
    282 HB2         6.9251    2.9950   -7.4466 H      13  PHE13       0.0336
    283 HD1         5.6386    4.4383   -8.7009 H      13  PHE13       0.0620
    284 HE1         4.4281    6.4898   -8.8497 H      13  PHE13       0.0618
    285 HZ          3.4439    7.4682   -6.8467 H      13  PHE13       0.0618
    286 HE2         3.7135    6.2989   -4.6434 H      13  PHE13       0.0618
    287 HD2         4.9780    4.1593   -4.5179 H      13  PHE13       0.0620
    288 H           7.1369    1.2546   -8.8345 H      14  GLY14       0.1492
    289 HA1         8.5220   -0.6995   -9.1355 H      14  GLY14       0.0558
    290 HA2         7.2451   -1.6327   -8.3292 H      14  GLY14       0.0558
    291 H           8.1783    0.9354   -6.0769 H      15  ASP15       0.1495
    292 HA         10.1545   -0.9989   -4.9116 H      15  ASP15       0.0600
    293 HB1        11.2175    0.9196   -3.8216 H      15  ASP15       0.0401
    294 HB2        10.1239    2.0772   -4.7149 H      15  ASP15       0.0401
    295 HD2        11.8456    1.6603   -7.8933 H      15  ASP15       0.2951
    296 H          10.3575   -0.3127   -2.2129 H      16  LYS16       0.1495
    297 HA          7.4523   -0.2520   -1.3327 H      16  LYS16       0.0594
    298 HB1         8.1584   -2.4947   -1.5470 H      16  LYS16       0.0288
    299 HB2         7.9465   -2.1562    0.1889 H      16  LYS16       0.0288
    300 HG1        10.5401   -2.2229   -1.5204 H      16  LYS16       0.0266
    301 HG2        10.5771   -1.6336    0.1356 H      16  LYS16       0.0266
    302 HD1        11.3404   -3.8713   -0.0300 H      16  LYS16       0.0277
    303 HD2         9.8706   -3.9254    0.9543 H      16  LYS16       0.0277
    304 HE1         9.8914   -5.7885   -0.7079 H      16  LYS16       0.0422
    305 HE2         8.6339   -4.5407   -1.2360 H      16  LYS16       0.0422
    306 HZ1        11.3073   -4.0306   -2.1636 H      16  LYS16       0.1182
    307 HZ2         9.8054   -3.9154   -2.9441 H      16  LYS16       0.1182
    308 H           7.4875   -0.2186    1.3943 H      17  LEU17       0.1495
    309 HA          9.4892    1.9745    2.1156 H      17  LEU17       0.0594
    310 HB1         6.8401    2.1320    2.0947 H      17  LEU17       0.0290
    311 HB2         6.8135    0.8721    3.3131 H      17  LEU17       0.0290
    312 HG          7.6704    3.7983    3.7002 H      17  LEU17       0.0296
    313 HD11        8.9912    2.5619    5.4635 H      17  LEU17       0.0232
    314 HD12        7.3686    1.8284    6.0252 H      17  LEU17       0.0232
    315 HD13        7.6313    3.5616    5.9435 H      17  LEU17       0.0232
    316 HD21        5.2952    3.1009    3.3228 H      17  LEU17       0.0232
    317 HD22        5.5222    1.7933    4.5161 H      17  LEU17       0.0232
    318 HD23        5.5727    3.4455    5.1329 H      17  LEU17       0.0232
    319 H           8.9768    0.2439    5.3743 H      18  ASN18       0.1495
    320 HA         10.6241   -1.9010    4.1388 H      18  ASN18       0.0599
    321 HB1        11.5763   -2.2108    6.3262 H      18  ASN18       0.0381
    322 HB2        10.4331   -1.0928    7.1055 H      18  ASN18       0.0381
    323 HD21       13.9247    0.0362    7.0104 H      18  ASN18       0.1449
    324 HD22       12.4841    0.3657    7.9993 H      18  ASN18       0.1449
    325 H           8.4453   -2.6539    3.3803 H      19  PHE19       0.1495
    326 HA          7.1978   -4.5345    5.2585 H      19  PHE19       0.0598
    327 HB1         5.3439   -2.3815    4.2226 H      19  PHE19       0.0336
    328 HB2         5.0463   -3.9360    5.2020 H      19  PHE19       0.0336
    329 HD1         5.5818   -4.2185    7.3675 H      19  PHE19       0.0620
    330 HE1         5.7082   -3.1450    9.6335 H      19  PHE19       0.0618
    331 HZ          6.0945   -0.7565    9.8502 H      19  PHE19       0.0618
    332 HE2         6.3599    0.6028    7.8614 H      19  PHE19       0.0618
    333 HD2         6.2397   -0.4299    5.6269 H      19  PHE19       0.0620
    334 H           4.6088   -4.0860    3.4219 H      20  ARG20       0.1495
    335 HA          6.0409   -5.1527    0.9846 H      20  ARG20       0.0594
    336 HB1         4.2745   -6.7305    0.5051 H      20  ARG20       0.0289
    337 HB2         5.3334   -7.1132    1.8544 H      20  ARG20       0.0289
    338 HG1         2.4322   -6.2242    2.1196 H      20  ARG20       0.0298
    339 HG2         3.5085   -6.4203    3.5206 H      20  ARG20       0.0298
    340 HD1         2.8869   -8.4808    1.3257 H      20  ARG20       0.0693
    341 HD2         3.9720   -8.8026    2.6902 H      20  ARG20       0.0693
    342 HH11        0.3382   -8.8061    5.3920 H      20  ARG20       0.2546
    343 HH12        1.0757  -10.3822    5.7749 H      20  ARG20       0.2546
    344 HH21        3.9940  -10.2906    4.6365 H      20  ARG20       0.2546
    345 HH22        4.0557   -8.6792    5.4005 H      20  ARG20       0.2546
    346 H           2.7014   -5.3771   -0.0361 H      21  GLN21       0.1495
    347 HA          3.2850   -2.9527   -1.5482 H      21  GLN21       0.0595
    348 HB1         0.8128   -4.8292   -1.8292 H      21  GLN21       0.0292
    349 HB2         1.3897   -3.5411   -2.9177 H      21  GLN21       0.0292
    350 HG1         3.4049   -4.4912   -3.4649 H      21  GLN21       0.0359
    351 HG2         3.3322   -5.7683   -2.2291 H      21  GLN21       0.0359
    352 HE21        3.6695   -7.0475   -4.6128 H      21  GLN21       0.1449
    353 HE22        2.1649   -7.2983   -5.5508 H      21  GLN21       0.1449
    354 H           0.0658   -2.5453   -2.0034 H      22  LYS22       0.1496
    355 HA          0.1320   -0.3846    0.0244 H      22  LYS22       0.0614
    356 HB1        -1.1188   -0.7200   -2.7201 H      22  LYS22       0.0288
    357 HB2         0.2083    0.4197   -2.1559 H      22  LYS22       0.0288
    358 HG1        -2.7617    0.5513   -1.3818 H      22  LYS22       0.0266
    359 HG2        -1.5076    1.6599   -0.7512 H      22  LYS22       0.0266
    360 HD1        -0.9533    2.4198   -2.9822 H      22  LYS22       0.0277
    361 HD2        -2.2068    1.3199   -3.7160 H      22  LYS22       0.0277
    362 HE1        -3.0350    3.6565   -3.4445 H      22  LYS22       0.0422
    363 HE2        -2.6892    3.6132   -1.7099 H      22  LYS22       0.0422
    364 HZ1        -4.2941    1.8676   -1.4113 H      22  LYS22       0.1182
    365 HZ2        -4.9264    3.2206   -2.1215 H      22  LYS22       0.1182
    366 HXT        -3.0678   -0.3846    1.2444 H      22  LYS22       0.2951
    367 HB         -0.0182   -2.5620    4.9455 H       8  THR8        0.0614
    368 HG21       -0.4992   -4.5456    3.5301 H       8  THR8        0.0255
    369 HG22       -2.2221   -4.0214    3.4149 H       8  THR8        0.0255
    370 HG23       -1.5809   -4.4313    5.0261 H       8  THR8        0.0255
    371 HG1         0.4291   -2.4627    2.8105 H       8  THR8        0.2099
    372 HB        -12.8393   -1.9850   -3.5803 H       4  VAL4        0.0318
    373 HG11      -11.9240   -2.7299   -5.5066 H       4  VAL4        0.0233
    374 HG12      -11.4288   -1.0942   -5.9317 H       4  VAL4        0.0233
    375 HG13      -10.3251   -2.2147   -4.9762 H       4  VAL4        0.0233
    376 HG21      -11.6796    0.7991   -4.2049 H       4  VAL4        0.0233
    377 HG22      -13.0621    0.3674   -3.0355 H       4  VAL4        0.0233
    378 HG23      -13.2273    0.1443   -4.7768 H       4  VAL4        0.0233
@<TRIPOS>BOND
     1     1     2    1
     2     2     3    1
     3     2     4    1
     4     4     5    1
     5     5     6    1
     6     6     7   am
     7     7     8    2
     8     7     9    1
     9     9    10    1
    10     9    11    1
    11    11    12    1
    12    12    13    1
    13    13    14    2
    14    13    15    1
    15     5    16    1
    16    16    17    2
    17    16    18   am
    18    18    19    1
    19    19    20    1
    20    20    21    1
    21    21    22    1
    22    22    23    2
    23    22    24    1
    24    19    25    1
    25    25    26    2
    26    25    27   am
    27    27    28    1
    28    28    29    1
    29    29    30    2
    30    29    31   am
    31    31    32    1
    32    32    33    1
    33    33    34    1
    34    34    35    1
    35    35    36    2
    36    35    37    1
    37    32    38    1
    38    38    39    2
    39    38    40   am
    40    40    41    1
    41    41    42    1
    42    42    43    1
    43    41    44    1
    44    44    45    2
    45    44    46   am
    46    46    47    1
    47    47    48    1
    48    47    49    1
    49    49    50    2
    50    49    51   am
    51    51    52    1
    52    52    53    1
    53    53    54    2
    54    53    55   am
    55    55    56    1
    56    56    57    1
    57    57    58    1
    58    58    59    1
    59    59    60   am
    60    59    61    2
    61    56    62    1
    62    62    63    2
    63    62    64   am
    64    64    65    1
    65    65    66    1
    66    66    67    1
    67    67    68    1
    68    67    69    1
    69    65    70    1
    70    70    71    2
    71    70    72   am
    72    72    73    1
    73    73    74    1
    74    74    75    1
    75    75    76    1
    76    76    77    1
    77    77    78    2
    78    78    79    1
    79    78    80    1
    80    73    81    1
    81    81    82    2
    82    81    83   am
    83    83    84    1
    84    84    85    1
    85    85    86    1
    86    86    87    1
    87    87    88    1
    88    88    89    2
    89    89    90    1
    90    89    91    1
    91    84    92    1
    92    92    93    2
    93    92    94   am
    94    94    95    1
    95    95    96    1
    96    96    97    1
    97    97    98   ar
    98    98    99   ar
    99    99   100   ar
   100   100   101   ar
   101   101   102   ar
   102    95   103    1
   103   103   104    2
   104   103   105   am
   105   105   106    1
   106   106   107    1
   107   107   108    2
   108   107   109   am
   109   109   110    1
   110   110   111    1
   111   111   112    1
   112   112   113    2
   113   112   114    1
   114   110   115    1
   115   115   116    2
   116   115   117   am
   117   117   118    1
   118   118   119    1
   119   119   120    1
   120   120   121    1
   121   121   122    1
   122   122   123    1
   123   118   124    1
   124   124   125    2
   125   124   126   am
   126   126   127    1
   127   127   128    1
   128   128   129    1
   129   129   130    1
   130   129   131    1
   131   127   132    1
   132   132   133    2
   133   132   134   am
   134   134   135    1
   135   135   136    1
   136   136   137    1
   137   137   138   am
   138   137   139    2
   139   135   140    1
   140   140   141    2
   141   140   142   am
   142   142   143    1
   143   143   144    1
   144   144   145    1
   145   145   146   ar
   146   146   147   ar
   147   147   148   ar
   148   148   149   ar
   149   149   150   ar
   150   143   151    1
   151   151   152    2
   152   151   153   am
   153   153   154    1
   154   154   155    1
   155   155   156    1
   156   156   157    1
   157   157   158    1
   158   158   159    2
   159   159   160    1
   160   159   161    1
   161   154   162    1
   162   162   163    2
   163   162   164   am
   164   164   165    1
   165   165   166    1
   166   166   167    1
   167   167   168    1
   168   168   169   am
   169   168   170    2
   170   165   171    1
   171   171   172    2
   172   171   173   am
   173   173   174    1
   174   174   175    1
   175   175   176    1
   176   176   177    1
   177   177   178    1
   178   178   179    1
   179   174   180    1
   180   180   181    2
   181   180   182    1
   182    52   183    1
   183   183   184    1
   184   183   185    1
   185    28   186    1
   186   186   187    1
   187   186   188    1
   188   102    97   ar
   189   150   145   ar
   190     1   189    1
   191     1   190    1
   192     1   191    1
   193     2   192    1
   194     3   193    1
   195     3   194    1
   196     3   195    1
   197     4   196    1
   198     4   197    1
   199     5   198    1
   200     6   199    1
   201     9   200    1
   202    10   201    1
   203    10   202    1
   204    11   203    1
   205    11   204    1
   206    12   205    1
   207    12   206    1
   208    15   207    1
   209    18   208    1
   210    19   209    1
   211    20   210    1
   212    20   211    1
   213    21   212    1
   214    21   213    1
   215    24   214    1
   216    27   215    1
   217    28   216    1
   218    31   217    1
   219    32   218    1
   220    33   219    1
   221    33   220    1
   222    34   221    1
   223    34   222    1
   224    37   223    1
   225    40   224    1
   226    41   225    1
   227    42   226    1
   228    42   227    1
   229    43   228    1
   230    46   229    1
   231    47   230    1
   232    48   231    1
   233    48   232    1
   234    48   233    1
   235    51   234    1
   236    52   235    1
   237    55   236    1
   238    56   237    1
   239    57   238    1
   240    57   239    1
   241    58   240    1
   242    58   241    1
   243    60   242    1
   244    60   243    1
   245    64   244    1
   246    65   245    1
   247    66   246    1
   248    66   247    1
   249    67   248    1
   250    68   249    1
   251    68   250    1
   252    68   251    1
   253    69   252    1
   254    69   253    1
   255    69   254    1
   256    72   255    1
   257    73   256    1
   258    74   257    1
   259    74   258    1
   260    75   259    1
   261    75   260    1
   262    76   261    1
   263    76   262    1
   264    79   263    1
   265    79   264    1
   266    80   265    1
   267    80   266    1
   268    83   267    1
   269    84   268    1
   270    85   269    1
   271    85   270    1
   272    86   271    1
   273    86   272    1
   274    87   273    1
   275    87   274    1
   276    90   275    1
   277    90   276    1
   278    91   277    1
   279    91   278    1
   280    94   279    1
   281    95   280    1
   282    96   281    1
   283    96   282    1
   284    98   283    1
   285    99   284    1
   286   100   285    1
   287   101   286    1
   288   102   287    1
   289   105   288    1
   290   106   289    1
   291   106   290    1
   292   109   291    1
   293   110   292    1
   294   111   293    1
   295   111   294    1
   296   114   295    1
   297   117   296    1
   298   118   297    1
   299   119   298    1
   300   119   299    1
   301   120   300    1
   302   120   301    1
   303   121   302    1
   304   121   303    1
   305   122   304    1
   306   122   305    1
   307   123   306    1
   308   123   307    1
   309   126   308    1
   310   127   309    1
   311   128   310    1
   312   128   311    1
   313   129   312    1
   314   130   313    1
   315   130   314    1
   316   130   315    1
   317   131   316    1
   318   131   317    1
   319   131   318    1
   320   134   319    1
   321   135   320    1
   322   136   321    1
   323   136   322    1
   324   138   323    1
   325   138   324    1
   326   142   325    1
   327   143   326    1
   328   144   327    1
   329   144   328    1
   330   146   329    1
   331   147   330    1
   332   148   331    1
   333   149   332    1
   334   150   333    1
   335   153   334    1
   336   154   335    1
   337   155   336    1
   338   155   337    1
   339   156   338    1
   340   156   339    1
   341   157   340    1
   342   157   341    1
   343   160   342    1
   344   160   343    1
   345   161   344    1
   346   161   345    1
   347   164   346    1
   348   165   347    1
   349   166   348    1
   350   166   349    1
   351   167   350    1
   352   167   351    1
   353   169   352    1
   354   169   353    1
   355   173   354    1
   356   174   355    1
   357   175   356    1
   358   175   357    1
   359   176   358    1
   360   176   359    1
   361   177   360    1
   362   177   361    1
   363   178   362    1
   364   178   363    1
   365   179   364    1
   366   179   365    1
   367   182   366    1
   368   183   367    1
   369   184   368    1
   370   184   369    1
   371   184   370    1
   372   185   371    1
   373   186   372    1
   374   187   373    1
   375   187   374    1
   376   187   375    1
   377   188   376    1
   378   188   377    1
   379   188   378    1
