@<TRIPOS>MOLECULE
*****
 58 61 0 0 0
SMALL
GASTEIGER

@<TRIPOS>ATOM
      1 C          -3.7098    2.7373   -0.5253 C.3     1  UNL1       -0.0220
      2 C          -2.3234    3.2355   -0.3615 C.ar    1  UNL1        0.0471
      3 C          -1.2388    2.4042   -0.1814 C.ar    1  UNL1        0.0643
      4 C          -1.0681    1.0090   -0.0993 C.ar    1  UNL1        0.1324
      5 O          -2.2168    0.2726   -0.2213 O.3     1  UNL1       -0.4880
      6 C          -2.2588   -1.1102   -0.1685 C.3     1  UNL1        0.1021
      7 C          -2.8384   -1.5828   -1.5075 C.3     1  UNL1       -0.0275
      8 C          -3.2027   -1.5451    0.9432 C.3     1  UNL1        0.0195
      9 C          -4.5792   -0.9867    0.6274 C.3     1  UNL1        0.0182
     10 N          -5.2850   -2.0934   -0.0235 N.am    1  UNL1       -0.3149
     11 C          -4.7313   -3.2893    0.4799 C.2     1  UNL1        0.2135
     12 O          -5.2945   -4.4144    0.5151 O.2     1  UNL1       -0.2758
     13 C          -3.3553   -3.0308    0.9758 C.3     1  UNL1        0.0315
     14 C           0.1988    0.5098    0.0910 C.ar    1  UNL1       -0.0113
     15 C           1.3173    1.3383    0.2051 C.ar    1  UNL1       -0.0094
     16 C           2.6494    0.7678    0.4073 C.ar    1  UNL1        0.0198
     17 C           3.6830    1.3535    1.1008 C.ar    1  UNL1        0.0571
     18 N           4.7351    0.5229    1.0624 N.ar    1  UNL1       -0.1786
     19 N           4.4363   -0.5674    0.3814 N.ar    1  UNL1       -0.2656
     20 C           5.3196   -1.6841    0.1305 C.3     1  UNL1        0.0553
     21 C           4.5446   -2.9777    0.4114 C.3     1  UNL1       -0.0403
     22 C           6.4898   -1.6730    1.0729 C.3     1  UNL1       -0.0403
     23 C           5.8387   -1.7238   -1.2779 C.3     1  UNL1       -0.0403
     24 C           3.1527   -0.4381   -0.0329 C.ar    1  UNL1        0.0338
     25 C           1.0955    2.6918    0.1180 C.ar    1  UNL1       -0.0259
     26 C          -0.1557    3.2375   -0.0722 C.ar    1  UNL1        0.0971
     27 N          -0.6262    4.5107   -0.1892 N.ar    1  UNL1       -0.1711
     28 N          -1.9292    4.5207   -0.3636 N.ar    1  UNL1       -0.2704
     29 C          -2.8283    5.6530   -0.5316 C.3     1  UNL1        0.0305
     30 H          -4.4283    3.5630   -0.7036 H       1  UNL1        0.0293
     31 H          -4.0579    2.1806    0.3761 H       1  UNL1        0.0293
     32 H          -3.7559    2.0711   -1.4173 H       1  UNL1        0.0293
     33 H          -1.2804   -1.5439   -0.0194 H       1  UNL1        0.0733
     34 H          -3.2866   -2.5784   -1.4200 H       1  UNL1        0.0265
     35 H          -3.6013   -0.8495   -1.7936 H       1  UNL1        0.0265
     36 H          -2.0114   -1.5550   -2.2506 H       1  UNL1        0.0265
     37 H          -2.7993   -1.1711    1.8984 H       1  UNL1        0.0356
     38 H          -5.1104   -0.6528    1.5230 H       1  UNL1        0.0466
     39 H          -4.4728   -0.1372   -0.0884 H       1  UNL1        0.0466
     40 H          -6.0570   -1.9981   -0.7308 H       1  UNL1        0.1487
     41 H          -2.6147   -3.5839    0.3918 H       1  UNL1        0.0363
     42 H          -3.3302   -3.3735    2.0402 H       1  UNL1        0.0363
     43 H           0.3731   -0.5573    0.1595 H       1  UNL1        0.0660
     44 H           3.6860    2.3065    1.5991 H       1  UNL1        0.0854
     45 H           3.9025   -3.2149   -0.4459 H       1  UNL1        0.0253
     46 H           5.3039   -3.7535    0.6199 H       1  UNL1        0.0253
     47 H           3.9499   -2.7478    1.3430 H       1  UNL1        0.0253
     48 H           6.2991   -2.3452    1.9578 H       1  UNL1        0.0253
     49 H           6.5997   -0.6539    1.4936 H       1  UNL1        0.0253
     50 H           7.4442   -1.9261    0.5883 H       1  UNL1        0.0253
     51 H           6.1706   -0.7324   -1.5870 H       1  UNL1        0.0253
     52 H           5.0946   -2.1822   -1.9665 H       1  UNL1        0.0253
     53 H           6.7631   -2.3693   -1.2548 H       1  UNL1        0.0253
     54 H           2.5815   -1.1383   -0.6124 H       1  UNL1        0.0833
     55 H           1.9404    3.3454    0.2030 H       1  UNL1        0.0646
     56 H          -3.8051    5.4141   -0.0848 H       1  UNL1        0.0473
     57 H          -2.4360    6.5286    0.0647 H       1  UNL1        0.0473
     58 H          -2.8806    6.0071   -1.5685 H       1  UNL1        0.0473
@<TRIPOS>BOND
     1     1     2    1
     2     2     3   ar
     3     3     4   ar
     4     4     5    1
     5     5     6    1
     6     6     7    1
     7     6     8    1
     8     8     9    1
     9     9    10    1
    10    10    11   am
    11    11    12    2
    12    11    13    1
    13     4    14   ar
    14    14    15   ar
    15    15    16    1
    16    16    17   ar
    17    17    18   ar
    18    18    19   ar
    19    19    20    1
    20    20    21    1
    21    20    22    1
    22    20    23    1
    23    19    24   ar
    24    15    25   ar
    25    25    26   ar
    26    26    27   ar
    27    27    28   ar
    28    28    29    1
    29    28     2   ar
    30    26     3   ar
    31    13     8    1
    32    24    16   ar
    33     1    30    1
    34     1    31    1
    35     1    32    1
    36     6    33    1
    37     7    34    1
    38     7    35    1
    39     7    36    1
    40     8    37    1
    41     9    38    1
    42     9    39    1
    43    10    40    1
    44    13    41    1
    45    13    42    1
    46    14    43    1
    47    17    44    1
    48    21    45    1
    49    21    46    1
    50    21    47    1
    51    22    48    1
    52    22    49    1
    53    22    50    1
    54    23    51    1
    55    23    52    1
    56    23    53    1
    57    24    54    1
    58    25    55    1
    59    29    56    1
    60    29    57    1
    61    29    58    1
