@<TRIPOS>MOLECULE
*****
 68 71 0 0 0
SMALL
GASTEIGER

@<TRIPOS>ATOM
      1 C          -7.5644    2.7826   -1.2110 C.3     1  UNL1       -0.0652
      2 C          -6.0430    2.7307   -1.3224 C.3     1  UNL1       -0.0545
      3 C          -5.4650    3.0383    0.0430 C.3     1  UNL1       -0.0376
      4 C          -5.9427    2.0186    1.0503 C.3     1  UNL1        0.0118
      5 N          -5.5315    0.6956    0.6595 N.pl3   1  UNL1       -0.3134
      6 C          -4.1344    0.4080    0.5995 C.ar    1  UNL1        0.2169
      7 N          -3.2069    1.3133    0.9160 N.ar    1  UNL1       -0.2221
      8 C          -1.9125    0.9917    0.8424 C.ar    1  UNL1        0.0466
      9 C          -1.5168   -0.2948    0.4336 C.ar    1  UNL1        0.0948
     10 C          -0.0921   -0.5600    0.3817 C.2     1  UNL1        0.2530
     11 O           0.3341   -1.6852    0.0341 O.2     1  UNL1       -0.2697
     12 N           0.9226    0.3796    0.7028 N.am    1  UNL1       -0.2814
     13 C           2.3244    0.0479    0.6292 C.ar    1  UNL1        0.0338
     14 C           2.9878   -0.4707    1.7230 C.ar    1  UNL1       -0.0386
     15 C           4.3264   -0.8007    1.6993 C.ar    1  UNL1       -0.0336
     16 C           5.0243   -0.6006    0.5281 C.ar    1  UNL1        0.1056
     17 S           6.7340   -0.9832    0.3883 S.O2    1  UNL1        0.0610
     18 O           7.0274   -1.2878   -1.0619 O.2     1  UNL1       -0.1528
     19 O           7.1070   -2.1588    1.2056 O.2     1  UNL1       -0.1528
     20 N           7.6043    0.4340    0.8212 N.3     1  UNL1       -0.1722
     21 C           7.3221    1.5416   -0.0564 C.3     1  UNL1        0.0440
     22 C           8.2024    2.7321    0.2050 C.3     1  UNL1        0.0621
     23 O           8.6454    2.7901    1.5210 O.3     1  UNL1       -0.3771
     24 C           7.7369    2.2151    2.4047 C.3     1  UNL1        0.0621
     25 C           7.5662    0.7393    2.2112 C.3     1  UNL1        0.0440
     26 C           4.3802   -0.0835   -0.5766 C.ar    1  UNL1       -0.0336
     27 C           3.0590    0.2322   -0.5219 C.ar    1  UNL1       -0.0386
     28 C          -2.4681   -1.2035    0.1155 C.ar    1  UNL1        0.1363
     29 N          -2.1606   -2.5132   -0.3022 N.pl3   1  UNL1       -0.3242
     30 C          -3.2991   -3.3826   -0.6152 C.3     1  UNL1        0.0356
     31 C          -4.0822   -2.7514   -1.7355 C.3     1  UNL1       -0.0208
     32 C          -4.4799   -3.8767   -2.6343 C.3     1  UNL1       -0.0023
     33 N          -4.0285   -5.1044   -1.9744 N.3     1  UNL1       -0.3142
     34 C          -2.8915   -4.7072   -1.1712 C.3     1  UNL1        0.0143
     35 N          -3.7760   -0.8237    0.2077 N.ar    1  UNL1       -0.1990
     36 H          -7.9428    1.8058   -0.8533 H       1  UNL1        0.0230
     37 H          -7.8229    3.5644   -0.4492 H       1  UNL1        0.0230
     38 H          -7.9658    3.0854   -2.1908 H       1  UNL1        0.0230
     39 H          -5.7137    3.4758   -2.0612 H       1  UNL1        0.0263
     40 H          -5.7372    1.7300   -1.6590 H       1  UNL1        0.0263
     41 H          -5.8178    4.0557    0.3455 H       1  UNL1        0.0280
     42 H          -4.3707    3.1110   -0.0240 H       1  UNL1        0.0280
     43 H          -5.5620    2.2853    2.0748 H       1  UNL1        0.0462
     44 H          -7.0635    2.0357    1.1122 H       1  UNL1        0.0462
     45 H          -6.2423   -0.0469    0.4223 H       1  UNL1        0.1489
     46 H          -1.1604    1.7079    1.0934 H       1  UNL1        0.0839
     47 H           0.7006    1.3189    0.9957 H       1  UNL1        0.1551
     48 H           2.3943   -0.6153    2.6394 H       1  UNL1        0.0637
     49 H           4.8221   -1.2036    2.5638 H       1  UNL1        0.0638
     50 H           7.4768    1.2240   -1.0957 H       1  UNL1        0.0466
     51 H           6.2534    1.7949    0.0693 H       1  UNL1        0.0466
     52 H           9.0694    2.7076   -0.4826 H       1  UNL1        0.0573
     53 H           7.5946    3.6420   -0.0202 H       1  UNL1        0.0573
     54 H           6.7269    2.6905    2.2372 H       1  UNL1        0.0573
     55 H           8.0296    2.4372    3.4341 H       1  UNL1        0.0573
     56 H           8.2701    0.1375    2.8231 H       1  UNL1        0.0466
     57 H           6.5355    0.4738    2.5884 H       1  UNL1        0.0466
     58 H           4.9165    0.0851   -1.5235 H       1  UNL1        0.0638
     59 H           2.5631    0.6336   -1.3829 H       1  UNL1        0.0637
     60 H          -1.2476   -2.9523   -0.4205 H       1  UNL1        0.1478
     61 H          -3.9298   -3.5008    0.2941 H       1  UNL1        0.0511
     62 H          -4.9572   -2.2121   -1.3151 H       1  UNL1        0.0296
     63 H          -3.4096   -2.0362   -2.2822 H       1  UNL1        0.0296
     64 H          -5.5945   -3.9011   -2.7780 H       1  UNL1        0.0425
     65 H          -3.9493   -3.8357   -3.6070 H       1  UNL1        0.0425
     66 H          -4.7968   -5.4166   -1.3708 H       1  UNL1        0.1220
     67 H          -2.7479   -5.4800   -0.3956 H       1  UNL1        0.0442
     68 H          -2.0302   -4.6043   -1.8565 H       1  UNL1        0.0442
@<TRIPOS>BOND
     1     1     2    1
     2     2     3    1
     3     3     4    1
     4     4     5    1
     5     5     6    1
     6     6     7   ar
     7     7     8   ar
     8     8     9   ar
     9     9    10    1
    10    10    11    2
    11    10    12   am
    12    12    13    1
    13    13    14   ar
    14    14    15   ar
    15    15    16   ar
    16    16    17    1
    17    17    18    2
    18    17    19    2
    19    17    20    1
    20    20    21    1
    21    21    22    1
    22    22    23    1
    23    23    24    1
    24    24    25    1
    25    16    26   ar
    26    26    27   ar
    27     9    28   ar
    28    28    29    1
    29    29    30    1
    30    30    31    1
    31    31    32    1
    32    32    33    1
    33    33    34    1
    34    28    35   ar
    35    35     6   ar
    36    27    13   ar
    37    34    30    1
    38    25    20    1
    39     1    36    1
    40     1    37    1
    41     1    38    1
    42     2    39    1
    43     2    40    1
    44     3    41    1
    45     3    42    1
    46     4    43    1
    47     4    44    1
    48     5    45    1
    49     8    46    1
    50    12    47    1
    51    14    48    1
    52    15    49    1
    53    21    50    1
    54    21    51    1
    55    22    52    1
    56    22    53    1
    57    24    54    1
    58    24    55    1
    59    25    56    1
    60    25    57    1
    61    26    58    1
    62    27    59    1
    63    29    60    1
    64    30    61    1
    65    31    62    1
    66    31    63    1
    67    32    64    1
    68    32    65    1
    69    33    66    1
    70    34    67    1
    71    34    68    1
