
     RDKit          3D

 68 71  0  0  0  0  0  0  0  0999 V2000
   -7.5644    2.7826   -1.2110 C   0  0  0  0  0  0  0  0  0  0  0  0
   -6.0430    2.7307   -1.3224 C   0  0  0  0  0  0  0  0  0  0  0  0
   -5.4650    3.0383    0.0430 C   0  0  0  0  0  0  0  0  0  0  0  0
   -5.9427    2.0186    1.0503 C   0  0  0  0  0  0  0  0  0  0  0  0
   -5.5315    0.6956    0.6595 N   0  0  0  0  0  0  0  0  0  0  0  0
   -4.1344    0.4080    0.5995 C   0  0  0  0  0  0  0  0  0  0  0  0
   -3.2069    1.3133    0.9160 N   0  0  0  0  0  0  0  0  0  0  0  0
   -1.9125    0.9917    0.8424 C   0  0  0  0  0  0  0  0  0  0  0  0
   -1.5168   -0.2948    0.4336 C   0  0  0  0  0  0  0  0  0  0  0  0
   -0.0921   -0.5600    0.3817 C   0  0  0  0  0  0  0  0  0  0  0  0
    0.3341   -1.6852    0.0341 O   0  0  0  0  0  0  0  0  0  0  0  0
    0.9226    0.3796    0.7028 N   0  0  0  0  0  0  0  0  0  0  0  0
    2.3244    0.0479    0.6292 C   0  0  0  0  0  0  0  0  0  0  0  0
    2.9878   -0.4707    1.7230 C   0  0  0  0  0  0  0  0  0  0  0  0
    4.3264   -0.8007    1.6993 C   0  0  0  0  0  0  0  0  0  0  0  0
    5.0243   -0.6006    0.5281 C   0  0  0  0  0  0  0  0  0  0  0  0
    6.7340   -0.9832    0.3883 S   0  0  0  0  0  6  0  0  0  0  0  0
    7.0274   -1.2878   -1.0619 O   0  0  0  0  0  0  0  0  0  0  0  0
    7.1070   -2.1588    1.2056 O   0  0  0  0  0  0  0  0  0  0  0  0
    7.6043    0.4340    0.8212 N   0  0  0  0  0  0  0  0  0  0  0  0
    7.3221    1.5416   -0.0564 C   0  0  0  0  0  0  0  0  0  0  0  0
    8.2024    2.7321    0.2050 C   0  0  0  0  0  0  0  0  0  0  0  0
    8.6454    2.7901    1.5210 O   0  0  0  0  0  0  0  0  0  0  0  0
    7.7369    2.2151    2.4047 C   0  0  0  0  0  0  0  0  0  0  0  0
    7.5662    0.7393    2.2112 C   0  0  0  0  0  0  0  0  0  0  0  0
    4.3802   -0.0835   -0.5766 C   0  0  0  0  0  0  0  0  0  0  0  0
    3.0590    0.2322   -0.5219 C   0  0  0  0  0  0  0  0  0  0  0  0
   -2.4681   -1.2035    0.1155 C   0  0  0  0  0  0  0  0  0  0  0  0
   -2.1606   -2.5132   -0.3022 N   0  0  0  0  0  0  0  0  0  0  0  0
   -3.2991   -3.3826   -0.6152 C   0  0  1  0  0  0  0  0  0  0  0  0
   -4.0822   -2.7514   -1.7355 C   0  0  0  0  0  0  0  0  0  0  0  0
   -4.4799   -3.8767   -2.6343 C   0  0  0  0  0  0  0  0  0  0  0  0
   -4.0285   -5.1044   -1.9744 N   0  0  0  0  0  0  0  0  0  0  0  0
   -2.8915   -4.7072   -1.1712 C   0  0  0  0  0  0  0  0  0  0  0  0
   -3.7760   -0.8237    0.2077 N   0  0  0  0  0  0  0  0  0  0  0  0
   -7.9428    1.8058   -0.8533 H   0  0  0  0  0  0  0  0  0  0  0  0
   -7.8229    3.5644   -0.4492 H   0  0  0  0  0  0  0  0  0  0  0  0
   -7.9658    3.0854   -2.1908 H   0  0  0  0  0  0  0  0  0  0  0  0
   -5.7137    3.4758   -2.0612 H   0  0  0  0  0  0  0  0  0  0  0  0
   -5.7372    1.7300   -1.6590 H   0  0  0  0  0  0  0  0  0  0  0  0
   -5.8178    4.0557    0.3455 H   0  0  0  0  0  0  0  0  0  0  0  0
   -4.3707    3.1110   -0.0240 H   0  0  0  0  0  0  0  0  0  0  0  0
   -5.5620    2.2853    2.0748 H   0  0  0  0  0  0  0  0  0  0  0  0
   -7.0635    2.0357    1.1122 H   0  0  0  0  0  0  0  0  0  0  0  0
   -6.2423   -0.0469    0.4223 H   0  0  0  0  0  0  0  0  0  0  0  0
   -1.1604    1.7079    1.0934 H   0  0  0  0  0  0  0  0  0  0  0  0
    0.7006    1.3189    0.9957 H   0  0  0  0  0  0  0  0  0  0  0  0
    2.3943   -0.6153    2.6394 H   0  0  0  0  0  0  0  0  0  0  0  0
    4.8221   -1.2036    2.5638 H   0  0  0  0  0  0  0  0  0  0  0  0
    7.4768    1.2240   -1.0957 H   0  0  0  0  0  0  0  0  0  0  0  0
    6.2534    1.7949    0.0693 H   0  0  0  0  0  0  0  0  0  0  0  0
    9.0694    2.7076   -0.4826 H   0  0  0  0  0  0  0  0  0  0  0  0
    7.5946    3.6420   -0.0202 H   0  0  0  0  0  0  0  0  0  0  0  0
    6.7269    2.6905    2.2372 H   0  0  0  0  0  0  0  0  0  0  0  0
    8.0296    2.4372    3.4341 H   0  0  0  0  0  0  0  0  0  0  0  0
    8.2701    0.1375    2.8231 H   0  0  0  0  0  0  0  0  0  0  0  0
    6.5355    0.4738    2.5884 H   0  0  0  0  0  0  0  0  0  0  0  0
    4.9165    0.0851   -1.5235 H   0  0  0  0  0  0  0  0  0  0  0  0
    2.5631    0.6336   -1.3829 H   0  0  0  0  0  0  0  0  0  0  0  0
   -1.2476   -2.9523   -0.4205 H   0  0  0  0  0  0  0  0  0  0  0  0
   -3.9298   -3.5008    0.2941 H   0  0  0  0  0  0  0  0  0  0  0  0
   -4.9572   -2.2121   -1.3151 H   0  0  0  0  0  0  0  0  0  0  0  0
   -3.4096   -2.0362   -2.2822 H   0  0  0  0  0  0  0  0  0  0  0  0
   -5.5945   -3.9011   -2.7780 H   0  0  0  0  0  0  0  0  0  0  0  0
   -3.9493   -3.8357   -3.6070 H   0  0  0  0  0  0  0  0  0  0  0  0
   -4.7968   -5.4166   -1.3708 H   0  0  0  0  0  0  0  0  0  0  0  0
   -2.7479   -5.4800   -0.3956 H   0  0  0  0  0  0  0  0  0  0  0  0
   -2.0302   -4.6043   -1.8565 H   0  0  0  0  0  0  0  0  0  0  0  0
  1  2  1  0
  2  3  1  0
  3  4  1  0
  4  5  1  0
  5  6  1  0
  6  7  2  0
  7  8  1  0
  8  9  2  0
  9 10  1  0
 10 11  2  0
 10 12  1  0
 12 13  1  0
 13 14  2  0
 14 15  1  0
 15 16  2  0
 16 17  1  0
 17 18  2  0
 17 19  2  0
 17 20  1  0
 20 21  1  0
 21 22  1  0
 22 23  1  0
 23 24  1  0
 24 25  1  0
 16 26  1  0
 26 27  2  0
  9 28  1  0
 28 29  1  0
 29 30  1  0
 30 31  1  0
 31 32  1  0
 32 33  1  0
 33 34  1  0
 28 35  2  0
 35  6  1  0
 27 13  1  0
 34 30  1  0
 25 20  1  0
  1 36  1  0
  1 37  1  0
  1 38  1  0
  2 39  1  0
  2 40  1  0
  3 41  1  0
  3 42  1  0
  4 43  1  0
  4 44  1  0
  5 45  1  0
  8 46  1  0
 12 47  1  0
 14 48  1  0
 15 49  1  0
 21 50  1  0
 21 51  1  0
 22 52  1  0
 22 53  1  0
 24 54  1  0
 24 55  1  0
 25 56  1  0
 25 57  1  0
 26 58  1  0
 27 59  1  0
 29 60  1  0
 30 61  1  1
 31 62  1  0
 31 63  1  0
 32 64  1  0
 32 65  1  0
 33 66  1  0
 34 67  1  0
 34 68  1  0
M  END
$$$$
