@<TRIPOS>MOLECULE
*****
 50 52 0 0 0
SMALL
GASTEIGER

@<TRIPOS>ATOM
      1 C           8.5502    1.5378   -1.7860 C.3     1  UNL1        0.0284
      2 N           7.8119    0.4779   -1.1704 N.2     1  UNL1       -0.2911
      3 C           6.6352    0.6014   -0.6728 C.2     1  UNL1        0.0690
      4 C           5.9749   -0.5419   -0.0701 C.2     1  UNL1        0.2035
      5 O           6.6268   -1.6480   -0.0691 O.2     1  UNL1       -0.2857
      6 C           4.6460   -0.4739    0.5110 C.ar    1  UNL1        0.0232
      7 C           4.0794   -1.5861    1.0632 C.ar    1  UNL1       -0.0506
      8 C           2.8192   -1.5366    1.6182 C.ar    1  UNL1       -0.0562
      9 C           2.0643   -0.3829    1.6504 C.ar    1  UNL1       -0.0276
     10 C           0.7338   -0.2943    2.2383 C.3     1  UNL1        0.0514
     11 N          -0.3791   -0.6788    1.4011 N.ar    1  UNL1       -0.3072
     12 C          -1.0179    0.1777    0.6000 C.ar    1  UNL1        0.0228
     13 C          -0.5797    1.5895    0.5635 C.3     1  UNL1       -0.0240
     14 C          -2.1024   -0.2103   -0.2046 C.ar    1  UNL1        0.0006
     15 C          -2.5717   -1.4947   -0.2151 C.ar    1  UNL1        0.1418
     16 O          -3.6164   -1.9533   -0.9663 O.3     1  UNL1       -0.4859
     17 C          -4.4723   -1.3842   -1.8550 C.3     1  UNL1        0.1173
     18 C          -5.3451   -0.3000   -1.3442 C.ar    1  UNL1        0.0250
     19 C          -5.1993    1.0254   -1.6373 C.ar    1  UNL1       -0.0499
     20 C          -6.0336    2.0158   -1.1714 C.ar    1  UNL1       -0.0259
     21 C          -7.0808    1.6898   -0.3649 C.ar    1  UNL1        0.1261
     22 F          -7.8960    2.6556    0.0906 F       1  UNL1       -0.2054
     23 C          -7.2811    0.3497   -0.0302 C.ar    1  UNL1        0.0092
     24 C          -6.4284   -0.6220   -0.5121 C.ar    1  UNL1        0.1325
     25 F          -6.6842   -1.9007   -0.1459 F       1  UNL1       -0.2050
     26 C          -1.8887   -2.3831    0.6340 C.ar    1  UNL1        0.1238
     27 BR         -2.5032   -4.1897    0.6578 Br      1  UNL1       -0.0409
     28 C          -0.8325   -1.9557    1.4026 C.ar    1  UNL1        0.2694
     29 O          -0.2457   -2.7995    2.1602 O.2     1  UNL1       -0.2663
     30 C           2.6660    0.7201    1.0857 C.ar    1  UNL1       -0.0562
     31 C           3.9396    0.6830    0.5212 C.ar    1  UNL1       -0.0506
     32 H           9.4645    1.7185   -1.1817 H       1  UNL1        0.0472
     33 H           7.9724    2.4865   -1.8154 H       1  UNL1        0.0472
     34 H           8.8826    1.2560   -2.8116 H       1  UNL1        0.0472
     35 H           6.1908    1.5759   -0.7324 H       1  UNL1        0.0864
     36 H           4.6159   -2.5086    1.0673 H       1  UNL1        0.0625
     37 H           2.3814   -2.4355    2.0649 H       1  UNL1        0.0621
     38 H           0.7368   -1.0023    3.1339 H       1  UNL1        0.0542
     39 H           0.5530    0.6991    2.7486 H       1  UNL1        0.0542
     40 H           0.1835    1.7529   -0.2431 H       1  UNL1        0.0292
     41 H          -1.4632    2.1951    0.1987 H       1  UNL1        0.0292
     42 H          -0.3248    2.0289    1.5258 H       1  UNL1        0.0292
     43 H          -2.5607    0.5385   -0.8321 H       1  UNL1        0.0672
     44 H          -5.2008   -2.1972   -2.1764 H       1  UNL1        0.0749
     45 H          -3.9984   -1.0835   -2.8294 H       1  UNL1        0.0749
     46 H          -4.3797    1.3275   -2.2751 H       1  UNL1        0.0623
     47 H          -5.8662    3.0632   -1.4409 H       1  UNL1        0.0646
     48 H          -8.1231    0.1352    0.6116 H       1  UNL1        0.0675
     49 H           2.1859    1.6852    1.0590 H       1  UNL1        0.0621
     50 H           4.3611    1.5764    0.0929 H       1  UNL1        0.0625
@<TRIPOS>BOND
     1     1     2    1
     2     2     3    2
     3     3     4    1
     4     4     5    2
     5     4     6    1
     6     6     7   ar
     7     7     8   ar
     8     8     9   ar
     9     9    10    1
    10    10    11    1
    11    11    12   ar
    12    12    13    1
    13    12    14   ar
    14    14    15   ar
    15    15    16    1
    16    16    17    1
    17    17    18    1
    18    18    19   ar
    19    19    20   ar
    20    20    21   ar
    21    21    22    1
    22    21    23   ar
    23    23    24   ar
    24    24    25    1
    25    15    26   ar
    26    26    27    1
    27    26    28   ar
    28    28    29    2
    29     9    30   ar
    30    30    31   ar
    31    31     6   ar
    32    28    11   ar
    33    24    18   ar
    34     1    32    1
    35     1    33    1
    36     1    34    1
    37     3    35    1
    38     7    36    1
    39     8    37    1
    40    10    38    1
    41    10    39    1
    42    13    40    1
    43    13    41    1
    44    13    42    1
    45    14    43    1
    46    17    44    1
    47    17    45    1
    48    19    46    1
    49    20    47    1
    50    23    48    1
    51    30    49    1
    52    31    50    1
