
     RDKit          3D

 50 52  0  0  0  0  0  0  0  0999 V2000
    8.5502    1.5378   -1.7860 C   0  0  0  0  0  0  0  0  0  0  0  0
    7.8119    0.4779   -1.1704 N   0  0  0  0  0  0  0  0  0  0  0  0
    6.6352    0.6014   -0.6728 C   0  0  0  0  0  0  0  0  0  0  0  0
    5.9749   -0.5419   -0.0701 C   0  0  0  0  0  0  0  0  0  0  0  0
    6.6268   -1.6480   -0.0691 O   0  0  0  0  0  0  0  0  0  0  0  0
    4.6460   -0.4739    0.5110 C   0  0  0  0  0  0  0  0  0  0  0  0
    4.0794   -1.5861    1.0632 C   0  0  0  0  0  0  0  0  0  0  0  0
    2.8192   -1.5366    1.6182 C   0  0  0  0  0  0  0  0  0  0  0  0
    2.0643   -0.3829    1.6504 C   0  0  0  0  0  0  0  0  0  0  0  0
    0.7338   -0.2943    2.2383 C   0  0  0  0  0  0  0  0  0  0  0  0
   -0.3791   -0.6788    1.4011 N   0  0  0  0  0  0  0  0  0  0  0  0
   -1.0179    0.1777    0.6000 C   0  0  0  0  0  0  0  0  0  0  0  0
   -0.5797    1.5895    0.5635 C   0  0  0  0  0  0  0  0  0  0  0  0
   -2.1024   -0.2103   -0.2046 C   0  0  0  0  0  0  0  0  0  0  0  0
   -2.5717   -1.4947   -0.2151 C   0  0  0  0  0  0  0  0  0  0  0  0
   -3.6164   -1.9533   -0.9663 O   0  0  0  0  0  0  0  0  0  0  0  0
   -4.4723   -1.3842   -1.8550 C   0  0  0  0  0  0  0  0  0  0  0  0
   -5.3451   -0.3000   -1.3442 C   0  0  0  0  0  0  0  0  0  0  0  0
   -5.1993    1.0254   -1.6373 C   0  0  0  0  0  0  0  0  0  0  0  0
   -6.0336    2.0158   -1.1714 C   0  0  0  0  0  0  0  0  0  0  0  0
   -7.0808    1.6898   -0.3649 C   0  0  0  0  0  0  0  0  0  0  0  0
   -7.8960    2.6556    0.0906 F   0  0  0  0  0  0  0  0  0  0  0  0
   -7.2811    0.3497   -0.0302 C   0  0  0  0  0  0  0  0  0  0  0  0
   -6.4284   -0.6220   -0.5121 C   0  0  0  0  0  0  0  0  0  0  0  0
   -6.6842   -1.9007   -0.1459 F   0  0  0  0  0  0  0  0  0  0  0  0
   -1.8887   -2.3831    0.6340 C   0  0  0  0  0  0  0  0  0  0  0  0
   -2.5032   -4.1897    0.6578 Br  0  0  0  0  0  0  0  0  0  0  0  0
   -0.8325   -1.9557    1.4026 C   0  0  0  0  0  0  0  0  0  0  0  0
   -0.2457   -2.7995    2.1602 O   0  0  0  0  0  0  0  0  0  0  0  0
    2.6660    0.7201    1.0857 C   0  0  0  0  0  0  0  0  0  0  0  0
    3.9396    0.6830    0.5212 C   0  0  0  0  0  0  0  0  0  0  0  0
    9.4645    1.7185   -1.1817 H   0  0  0  0  0  0  0  0  0  0  0  0
    7.9724    2.4865   -1.8154 H   0  0  0  0  0  0  0  0  0  0  0  0
    8.8826    1.2560   -2.8116 H   0  0  0  0  0  0  0  0  0  0  0  0
    6.1908    1.5759   -0.7324 H   0  0  0  0  0  0  0  0  0  0  0  0
    4.6159   -2.5086    1.0673 H   0  0  0  0  0  0  0  0  0  0  0  0
    2.3814   -2.4355    2.0649 H   0  0  0  0  0  0  0  0  0  0  0  0
    0.7368   -1.0023    3.1339 H   0  0  0  0  0  0  0  0  0  0  0  0
    0.5530    0.6991    2.7486 H   0  0  0  0  0  0  0  0  0  0  0  0
    0.1835    1.7529   -0.2431 H   0  0  0  0  0  0  0  0  0  0  0  0
   -1.4632    2.1951    0.1987 H   0  0  0  0  0  0  0  0  0  0  0  0
   -0.3248    2.0289    1.5258 H   0  0  0  0  0  0  0  0  0  0  0  0
   -2.5607    0.5385   -0.8321 H   0  0  0  0  0  0  0  0  0  0  0  0
   -5.2008   -2.1972   -2.1764 H   0  0  0  0  0  0  0  0  0  0  0  0
   -3.9984   -1.0835   -2.8294 H   0  0  0  0  0  0  0  0  0  0  0  0
   -4.3797    1.3275   -2.2751 H   0  0  0  0  0  0  0  0  0  0  0  0
   -5.8662    3.0632   -1.4409 H   0  0  0  0  0  0  0  0  0  0  0  0
   -8.1231    0.1352    0.6116 H   0  0  0  0  0  0  0  0  0  0  0  0
    2.1859    1.6852    1.0590 H   0  0  0  0  0  0  0  0  0  0  0  0
    4.3611    1.5764    0.0929 H   0  0  0  0  0  0  0  0  0  0  0  0
  1  2  1  0
  2  3  2  3
  3  4  1  0
  4  5  2  0
  4  6  1  0
  6  7  2  0
  7  8  1  0
  8  9  2  0
  9 10  1  0
 10 11  1  0
 11 12  1  0
 12 13  1  0
 12 14  2  0
 14 15  1  0
 15 16  1  0
 16 17  1  0
 17 18  1  0
 18 19  2  0
 19 20  1  0
 20 21  2  0
 21 22  1  0
 21 23  1  0
 23 24  2  0
 24 25  1  0
 15 26  2  0
 26 27  1  0
 26 28  1  0
 28 29  2  0
  9 30  1  0
 30 31  2  0
 31  6  1  0
 28 11  1  0
 24 18  1  0
  1 32  1  0
  1 33  1  0
  1 34  1  0
  3 35  1  0
  7 36  1  0
  8 37  1  0
 10 38  1  0
 10 39  1  0
 13 40  1  0
 13 41  1  0
 13 42  1  0
 14 43  1  0
 17 44  1  0
 17 45  1  0
 19 46  1  0
 20 47  1  0
 23 48  1  0
 30 49  1  0
 31 50  1  0
M  END
$$$$
