
     RDKit          3D

 50 52  0  0  0  0  0  0  0  0999 V2000
    4.2157   -0.1922    2.7765 C   0  0  0  0  0  0  0  0  0  0  0  0
    4.5332   -0.6215    1.3824 C   0  0  0  0  0  0  0  0  0  0  0  0
    3.9142   -1.6053    0.6275 C   0  0  0  0  0  0  0  0  0  0  0  0
    2.5536   -2.5759    1.2401 S   0  0  0  0  0  0  0  0  0  0  0  0
    1.0280   -1.7362    0.8455 C   0  0  0  0  0  0  0  0  0  0  0  0
   -0.1717   -2.3203    1.2360 C   0  0  0  0  0  0  0  0  0  0  0  0
   -1.3862   -1.6881    0.9422 C   0  0  0  0  0  0  0  0  0  0  0  0
   -1.3822   -0.4944    0.2696 C   0  0  0  0  0  0  0  0  0  0  0  0
   -2.6236    0.1820   -0.0468 C   0  0  0  0  0  0  0  0  0  0  0  0
   -2.6131    1.2895   -0.6959 O   0  0  0  0  0  0  0  0  0  0  0  0
   -3.8788   -0.3514    0.3463 N   0  0  0  0  0  0  0  0  0  0  0  0
   -5.0955    0.4072   -0.0210 C   0  0  1  0  0  0  0  0  0  0  0  0
   -5.9091   -0.4885   -0.9031 C   0  0  0  0  0  0  0  0  0  0  0  0
   -7.1896    0.0745   -1.3978 C   0  0  0  0  0  0  0  0  0  0  0  0
   -7.0087    1.2869   -2.2175 C   0  0  0  0  0  0  0  0  0  0  0  0
   -8.0729    1.8717   -2.6182 O   0  0  0  0  0  0  0  0  0  0  0  0
   -5.8089    1.8441   -2.5898 O   0  0  0  0  0  0  0  0  0  0  0  0
   -5.8220    0.7696    1.2217 C   0  0  0  0  0  0  0  0  0  0  0  0
   -6.8879    1.4191    1.2504 O   0  0  0  0  0  0  0  0  0  0  0  0
   -5.2974    0.3693    2.4392 O   0  0  0  0  0  0  0  0  0  0  0  0
   -0.1963    0.0851   -0.1178 C   0  0  0  0  0  0  0  0  0  0  0  0
    1.0023   -0.5451    0.1758 C   0  0  0  0  0  0  0  0  0  0  0  0
    4.4964   -1.6675   -0.5449 O   0  0  0  0  0  0  0  0  0  0  0  0
    5.4719   -0.7981   -0.6533 C   0  0  0  0  0  0  0  0  0  0  0  0
    6.3502   -0.4785   -1.6337 N   0  0  0  0  0  0  0  0  0  0  0  0
    7.2770    0.4817   -1.4813 C   0  0  0  0  0  0  0  0  0  0  0  0
    8.2013    0.8054   -2.5361 N   0  0  0  0  0  0  0  0  0  0  0  0
    7.3197    1.1375   -0.3086 N   0  0  0  0  0  0  0  0  0  0  0  0
    6.4700    0.8592    0.6990 C   0  0  0  0  0  0  0  0  0  0  0  0
    6.4938    1.5383    1.9494 N   0  0  0  0  0  0  0  0  0  0  0  0
    5.5152   -0.1258    0.5498 C   0  0  0  0  0  0  0  0  0  0  0  0
    5.0231   -0.4880    3.4932 H   0  0  0  0  0  0  0  0  0  0  0  0
    4.0660    0.8820    2.8666 H   0  0  0  0  0  0  0  0  0  0  0  0
    3.3131   -0.7821    3.1035 H   0  0  0  0  0  0  0  0  0  0  0  0
   -0.1785   -3.2452    1.7574 H   0  0  0  0  0  0  0  0  0  0  0  0
   -2.2697   -2.2001    1.2753 H   0  0  0  0  0  0  0  0  0  0  0  0
   -3.9508   -1.2317    0.8673 H   0  0  0  0  0  0  0  0  0  0  0  0
   -4.8113    1.3132   -0.5895 H   0  0  0  0  0  0  0  0  0  0  0  0
   -5.3236   -0.8361   -1.7893 H   0  0  0  0  0  0  0  0  0  0  0  0
   -6.1669   -1.4463   -0.3623 H   0  0  0  0  0  0  0  0  0  0  0  0
   -7.8765    0.3574   -0.5677 H   0  0  0  0  0  0  0  0  0  0  0  0
   -7.6588   -0.7166   -2.0454 H   0  0  0  0  0  0  0  0  0  0  0  0
   -5.7139    2.8550   -2.6237 H   0  0  0  0  0  0  0  0  0  0  0  0
   -5.8299    0.3549    3.3098 H   0  0  0  0  0  0  0  0  0  0  0  0
   -0.1714    1.0334   -0.6527 H   0  0  0  0  0  0  0  0  0  0  0  0
    1.9254   -0.0626   -0.1434 H   0  0  0  0  0  0  0  0  0  0  0  0
    7.9253    1.1137   -3.4717 H   0  0  0  0  0  0  0  0  0  0  0  0
    9.2172    0.7145   -2.3156 H   0  0  0  0  0  0  0  0  0  0  0  0
    6.2325    2.5486    1.9490 H   0  0  0  0  0  0  0  0  0  0  0  0
    6.7499    1.1039    2.8504 H   0  0  0  0  0  0  0  0  0  0  0  0
  1  2  1  0
  2  3  2  0
  3  4  1  0
  4  5  1  0
  5  6  2  0
  6  7  1  0
  7  8  2  0
  8  9  1  0
  9 10  2  0
  9 11  1  0
 11 12  1  0
 12 13  1  0
 13 14  1  0
 14 15  1  0
 15 16  2  0
 15 17  1  0
 12 18  1  0
 18 19  2  0
 18 20  1  0
  8 21  1  0
 21 22  2  0
  3 23  1  0
 23 24  1  0
 24 25  2  0
 25 26  1  0
 26 27  1  0
 26 28  2  0
 28 29  1  0
 29 30  1  0
 29 31  2  0
 31  2  1  0
 22  5  1  0
 31 24  1  0
  1 32  1  0
  1 33  1  0
  1 34  1  0
  6 35  1  0
  7 36  1  0
 11 37  1  0
 12 38  1  6
 13 39  1  0
 13 40  1  0
 14 41  1  0
 14 42  1  0
 17 43  1  0
 20 44  1  0
 21 45  1  0
 22 46  1  0
 27 47  1  0
 27 48  1  0
 30 49  1  0
 30 50  1  0
M  END
$$$$
