@<TRIPOS>MOLECULE
*****
 50 52 0 0 0
SMALL
GASTEIGER

@<TRIPOS>ATOM
      1 C           4.2157   -0.1922    2.7765 C.3     0  UNK0       -0.0349
      2 C           4.5332   -0.6215    1.3824 C.ar    0  UNK0        0.0144
      3 C           3.9142   -1.6053    0.6275 C.ar    0  UNK0        0.1722
      4 S           2.5536   -2.5759    1.2401 S.3     0  UNK0       -0.0517
      5 C           1.0280   -1.7362    0.8455 C.ar    0  UNK0        0.0156
      6 C          -0.1717   -2.3203    1.2360 C.ar    0  UNK0       -0.0472
      7 C          -1.3862   -1.6881    0.9422 C.ar    0  UNK0       -0.0486
      8 C          -1.3822   -0.4944    0.2696 C.ar    0  UNK0        0.0368
      9 C          -2.6236    0.1820   -0.0468 C.2     0  UNK0        0.2447
     10 O          -2.6131    1.2895   -0.6959 O.2     0  UNK0       -0.2702
     11 N          -3.8788   -0.3514    0.3463 N.am    1  GLU1       -0.2983
     12 CA         -5.0955    0.4072   -0.0210 C.3     1  GLU1        0.1209
     13 CB         -5.9091   -0.4885   -0.9031 C.3     1  GLU1       -0.0140
     14 CG         -7.1896    0.0745   -1.3978 C.3     1  GLU1        0.0470
     15 CD         -7.0087    1.2869   -2.2175 C.2     1  GLU1        0.3048
     16 OE1        -8.0729    1.8717   -2.6182 O.2     1  GLU1       -0.2510
     17 OE2        -5.8089    1.8441   -2.5898 O.3     1  GLU1       -0.4806
     18 C          -5.8220    0.7696    1.2217 C.2     1  GLU1        0.3253
     19 O          -6.8879    1.4191    1.2504 O.2     1  GLU1       -0.2489
     20 OXT        -5.2974    0.3693    2.4392 O.3     1  GLU1       -0.4793
     21 C          -0.1963    0.0851   -0.1178 C.ar    0  UNK0       -0.0486
     22 C           1.0023   -0.5451    0.1758 C.ar    0  UNK0       -0.0472
     23 O           4.4964   -1.6675   -0.5449 O.2     0  UNK0       -0.4299
     24 C           5.4719   -0.7981   -0.6533 C.ar    0  UNK0        0.2350
     25 N           6.3502   -0.4785   -1.6337 N.ar    0  UNK0       -0.1787
     26 C           7.2770    0.4817   -1.4813 C.ar    0  UNK0        0.2174
     27 N           8.2013    0.8054   -2.5361 N.pl3   0  UNK0       -0.3273
     28 N           7.3197    1.1375   -0.3086 N.ar    0  UNK0       -0.1993
     29 C           6.4700    0.8592    0.6990 C.ar    0  UNK0        0.1325
     30 N           6.4938    1.5383    1.9494 N.pl3   0  UNK0       -0.3424
     31 C           5.5152   -0.1258    0.5498 C.ar    0  UNK0        0.0834
     32 H           5.0231   -0.4880    3.4932 H       0  UNK0        0.0279
     33 H           4.0660    0.8820    2.8666 H       0  UNK0        0.0279
     34 H           3.3131   -0.7821    3.1035 H       0  UNK0        0.0279
     35 H          -0.1785   -3.2452    1.7574 H       0  UNK0        0.0629
     36 H          -2.2697   -2.2001    1.2753 H       0  UNK0        0.0625
     37 H          -3.9508   -1.2317    0.8673 H       1  GLU1        0.1498
     38 HA         -4.8113    1.3132   -0.5895 H       1  GLU1        0.0614
     39 HB1        -5.3236   -0.8361   -1.7893 H       1  GLU1        0.0294
     40 HB2        -6.1669   -1.4463   -0.3623 H       1  GLU1        0.0294
     41 HG1        -7.8765    0.3574   -0.5677 H       1  GLU1        0.0378
     42 HG2        -7.6588   -0.7166   -2.0454 H       1  GLU1        0.0378
     43 HE2        -5.7139    2.8550   -2.6237 H       1  GLU1        0.2951
     44 HXT        -5.8299    0.3549    3.3098 H       1  GLU1        0.2951
     45 H          -0.1714    1.0334   -0.6527 H       0  UNK0        0.0625
     46 H           1.9254   -0.0626   -0.1434 H       0  UNK0        0.0629
     47 H           7.9253    1.1137   -3.4717 H       0  UNK0        0.1452
     48 H           9.2172    0.7145   -2.3156 H       0  UNK0        0.1452
     49 H           6.2325    2.5486    1.9490 H       0  UNK0        0.1437
     50 H           6.7499    1.1039    2.8504 H       0  UNK0        0.1437
@<TRIPOS>BOND
     1     1     2    1
     2     2     3   ar
     3     3     4    1
     4     4     5    1
     5     5     6   ar
     6     6     7   ar
     7     7     8   ar
     8     8     9    1
     9     9    10    2
    10     9    11   am
    11    11    12    1
    12    12    13    1
    13    13    14    1
    14    14    15    1
    15    15    16    2
    16    15    17    1
    17    12    18    1
    18    18    19    2
    19    18    20    1
    20     8    21   ar
    21    21    22   ar
    22     3    23   ar
    23    23    24   ar
    24    24    25   ar
    25    25    26   ar
    26    26    27    1
    27    26    28   ar
    28    28    29   ar
    29    29    30    1
    30    29    31   ar
    31    31     2   ar
    32    22     5   ar
    33    31    24   ar
    34     1    32    1
    35     1    33    1
    36     1    34    1
    37     6    35    1
    38     7    36    1
    39    11    37    1
    40    12    38    1
    41    13    39    1
    42    13    40    1
    43    14    41    1
    44    14    42    1
    45    17    43    1
    46    20    44    1
    47    21    45    1
    48    22    46    1
    49    27    47    1
    50    27    48    1
    51    30    49    1
    52    30    50    1
