
     RDKit          3D

 30 31  0  0  0  0  0  0  0  0999 V2000
   -0.4486    2.7639   -0.5704 C   0  0  0  0  0  0  0  0  0  0  0  0
   -0.8252    1.7188    0.3944 C   0  0  0  0  0  0  0  0  0  0  0  0
   -0.4920    0.3095    0.0890 C   0  0  0  0  0  0  0  0  0  0  0  0
   -1.0420   -0.4693    1.2687 C   0  0  0  0  0  0  0  0  0  0  0  0
   -0.3906   -0.1278    2.3143 O   0  0  0  0  0  0  0  0  0  0  0  0
   -2.0999   -1.4182    1.2281 N   0  0  0  0  0  0  0  0  0  0  0  0
   -2.9389   -1.2411    0.0690 C   0  0  0  0  0  0  0  0  0  0  0  0
   -2.1744   -1.1944   -1.1628 N   0  0  0  0  0  0  0  0  0  0  0  0
   -1.1213   -0.2221   -1.1324 C   0  0  0  0  0  0  0  0  0  0  0  0
   -0.6317    0.2746   -2.2015 O   0  0  0  0  0  0  0  0  0  0  0  0
    0.9509   -0.0053    0.0347 C   0  0  0  0  0  0  0  0  0  0  0  0
    2.0880    0.7556   -0.1018 C   0  0  0  0  0  0  0  0  0  0  0  0
    3.3523    0.2181   -0.1381 C   0  0  0  0  0  0  0  0  0  0  0  0
    3.5362   -1.1433   -0.0361 C   0  0  0  0  0  0  0  0  0  0  0  0
    2.4337   -1.9537    0.1025 C   0  0  0  0  0  0  0  0  0  0  0  0
    1.1834   -1.3861    0.1353 C   0  0  0  0  0  0  0  0  0  0  0  0
   -1.3575    3.3748   -0.8588 H   0  0  0  0  0  0  0  0  0  0  0  0
    0.0298    2.4407   -1.5127 H   0  0  0  0  0  0  0  0  0  0  0  0
    0.2230    3.5059   -0.0958 H   0  0  0  0  0  0  0  0  0  0  0  0
   -0.3388    1.9471    1.3941 H   0  0  0  0  0  0  0  0  0  0  0  0
   -1.9247    1.8216    0.6297 H   0  0  0  0  0  0  0  0  0  0  0  0
   -2.0962   -2.0788    2.0329 H   0  0  0  0  0  0  0  0  0  0  0  0
   -3.7712   -1.9843    0.0152 H   0  0  0  0  0  0  0  0  0  0  0  0
   -3.4441   -0.2388    0.1913 H   0  0  0  0  0  0  0  0  0  0  0  0
   -2.2959   -1.7579   -2.0248 H   0  0  0  0  0  0  0  0  0  0  0  0
    1.8667    1.8076   -0.1711 H   0  0  0  0  0  0  0  0  0  0  0  0
    4.1470    0.9597   -0.2511 H   0  0  0  0  0  0  0  0  0  0  0  0
    4.5557   -1.5162   -0.0704 H   0  0  0  0  0  0  0  0  0  0  0  0
    2.6293   -3.0117    0.1785 H   0  0  0  0  0  0  0  0  0  0  0  0
    0.3970   -2.1491    0.2497 H   0  0  0  0  0  0  0  0  0  0  0  0
  1  2  1  0
  2  3  1  0
  3  4  1  0
  4  5  2  0
  4  6  1  0
  6  7  1  0
  7  8  1  0
  8  9  1  0
  9 10  2  0
  3 11  1  0
 11 12  2  0
 12 13  1  0
 13 14  2  0
 14 15  1  0
 15 16  2  0
  9  3  1  0
 16 11  1  0
  1 17  1  0
  1 18  1  0
  1 19  1  0
  2 20  1  0
  2 21  1  0
  6 22  1  0
  7 23  1  0
  7 24  1  0
  8 25  1  0
 12 26  1  0
 13 27  1  0
 14 28  1  0
 15 29  1  0
 16 30  1  0
M  END
$$$$
