@<TRIPOS>MOLECULE
*****
 46 48 0 0 0
SMALL
GASTEIGER

@<TRIPOS>ATOM
      1 C           5.6335    0.3439   -0.2955 C.3     1  UNL1       -0.0397
      2 C           4.3275    0.8212    0.2721 C.ar    1  UNL1       -0.0502
      3 C           4.1980    1.1103    1.6093 C.ar    1  UNL1       -0.0586
      4 C           2.9629    1.5387    2.0326 C.ar    1  UNL1       -0.0583
      5 C           1.8473    1.6952    1.1963 C.ar    1  UNL1       -0.0469
      6 C           0.6114    2.1705    1.8254 C.3     1  UNL1       -0.0394
      7 C           1.9848    1.3993   -0.1603 C.ar    1  UNL1       -0.0383
      8 C           0.8047    1.5838   -0.9935 C.3     1  UNL1        0.0176
      9 C          -0.2576    0.5633   -0.8423 C.ar    1  UNL1        0.0799
     10 N          -1.3629    0.8225   -0.0807 N.ar    1  UNL1       -0.1728
     11 N          -2.1786   -0.2072   -0.0558 N.ar    1  UNL1       -0.2406
     12 C          -1.6873   -1.2206   -0.7898 C.ar    1  UNL1        0.1640
     13 C          -0.4959   -0.7215   -1.2688 C.ar    1  UNL1        0.0815
     14 C           0.3235   -1.4690   -2.0848 C.ar    1  UNL1        0.1305
     15 N           1.5481   -0.9772   -2.6015 N.pl3   1  UNL1       -0.3425
     16 N          -0.0779   -2.7220   -2.4059 N.ar    1  UNL1       -0.2204
     17 C          -1.2461   -3.2235   -1.9407 C.ar    1  UNL1        0.1204
     18 N          -2.0396   -2.4852   -1.1449 N.ar    1  UNL1       -0.2161
     19 C          -3.4512   -0.2946    0.6520 C.3     1  UNL1        0.0575
     20 C          -3.5466    0.7834    1.7312 C.3     1  UNL1       -0.0402
     21 C          -4.6167   -0.0329   -0.2995 C.3     1  UNL1       -0.0402
     22 C          -3.6579   -1.6480    1.2451 C.3     1  UNL1       -0.0402
     23 C           3.2363    0.9740   -0.5477 C.ar    1  UNL1       -0.0550
     24 H           6.0377    1.1632   -0.9167 H       1  UNL1        0.0278
     25 H           6.3398    0.0742    0.5035 H       1  UNL1        0.0278
     26 H           5.4514   -0.5235   -0.9916 H       1  UNL1        0.0278
     27 H           5.0232    1.0069    2.2942 H       1  UNL1        0.0620
     28 H           2.8684    1.7680    3.1056 H       1  UNL1        0.0620
     29 H           0.9122    2.8169    2.7035 H       1  UNL1        0.0278
     30 H          -0.0007    1.3740    2.2915 H       1  UNL1        0.0278
     31 H           0.0261    2.8648    1.1911 H       1  UNL1        0.0278
     32 H           1.1469    1.5444   -2.0743 H       1  UNL1        0.0377
     33 H           0.3604    2.6060   -0.9192 H       1  UNL1        0.0377
     34 H           1.8850   -0.4144   -3.3906 H       1  UNL1        0.1437
     35 H           1.8781   -0.4035   -3.4083 H       1  UNL1        0.1437
     36 H          -1.5007   -4.2310   -2.2386 H       1  UNL1        0.1048
     37 H          -3.5762    1.7876    1.2839 H       1  UNL1        0.0253
     38 H          -4.5116    0.6192    2.2399 H       1  UNL1        0.0253
     39 H          -2.7565    0.6894    2.4802 H       1  UNL1        0.0253
     40 H          -4.1752    0.6441   -1.0841 H       1  UNL1        0.0253
     41 H          -5.4585    0.4283    0.2154 H       1  UNL1        0.0253
     42 H          -4.8590   -0.9813   -0.8296 H       1  UNL1        0.0253
     43 H          -4.6465   -1.6059    1.7806 H       1  UNL1        0.0253
     44 H          -3.8448   -2.3590    0.4017 H       1  UNL1        0.0253
     45 H          -2.8529   -1.9962    1.8997 H       1  UNL1        0.0253
     46 H           3.3940    0.7462   -1.5903 H       1  UNL1        0.0623
@<TRIPOS>BOND
     1     1     2    1
     2     2     3   ar
     3     3     4   ar
     4     4     5   ar
     5     5     6    1
     6     5     7   ar
     7     7     8    1
     8     8     9    1
     9     9    10   ar
    10    10    11   ar
    11    11    12   ar
    12    12    13   ar
    13    13    14   ar
    14    14    15    1
    15    14    16   ar
    16    16    17   ar
    17    17    18   ar
    18    11    19    1
    19    19    20    1
    20    19    21    1
    21    19    22    1
    22     7    23   ar
    23    23     2   ar
    24    13     9   ar
    25    18    12   ar
    26     1    24    1
    27     1    25    1
    28     1    26    1
    29     3    27    1
    30     4    28    1
    31     6    29    1
    32     6    30    1
    33     6    31    1
    34     8    32    1
    35     8    33    1
    36    15    34    1
    37    15    35    1
    38    17    36    1
    39    20    37    1
    40    20    38    1
    41    20    39    1
    42    21    40    1
    43    21    41    1
    44    21    42    1
    45    22    43    1
    46    22    44    1
    47    22    45    1
    48    23    46    1
