
     RDKit          3D

 46 48  0  0  0  0  0  0  0  0999 V2000
    5.6335    0.3439   -0.2955 C   0  0  0  0  0  0  0  0  0  0  0  0
    4.3275    0.8212    0.2721 C   0  0  0  0  0  0  0  0  0  0  0  0
    4.1980    1.1103    1.6093 C   0  0  0  0  0  0  0  0  0  0  0  0
    2.9629    1.5387    2.0326 C   0  0  0  0  0  0  0  0  0  0  0  0
    1.8473    1.6952    1.1963 C   0  0  0  0  0  0  0  0  0  0  0  0
    0.6114    2.1705    1.8254 C   0  0  0  0  0  0  0  0  0  0  0  0
    1.9848    1.3993   -0.1603 C   0  0  0  0  0  0  0  0  0  0  0  0
    0.8047    1.5838   -0.9935 C   0  0  0  0  0  0  0  0  0  0  0  0
   -0.2576    0.5633   -0.8423 C   0  0  0  0  0  0  0  0  0  0  0  0
   -1.3629    0.8225   -0.0807 N   0  0  0  0  0  0  0  0  0  0  0  0
   -2.1786   -0.2072   -0.0558 N   0  0  0  0  0  0  0  0  0  0  0  0
   -1.6873   -1.2206   -0.7898 C   0  0  0  0  0  0  0  0  0  0  0  0
   -0.4959   -0.7215   -1.2688 C   0  0  0  0  0  0  0  0  0  0  0  0
    0.3235   -1.4690   -2.0848 C   0  0  0  0  0  0  0  0  0  0  0  0
    1.5481   -0.9772   -2.6015 N   0  0  0  0  0  0  0  0  0  0  0  0
   -0.0779   -2.7220   -2.4059 N   0  0  0  0  0  0  0  0  0  0  0  0
   -1.2461   -3.2235   -1.9407 C   0  0  0  0  0  0  0  0  0  0  0  0
   -2.0396   -2.4852   -1.1449 N   0  0  0  0  0  0  0  0  0  0  0  0
   -3.4512   -0.2946    0.6520 C   0  0  0  0  0  0  0  0  0  0  0  0
   -3.5466    0.7834    1.7312 C   0  0  0  0  0  0  0  0  0  0  0  0
   -4.6167   -0.0329   -0.2995 C   0  0  0  0  0  0  0  0  0  0  0  0
   -3.6579   -1.6480    1.2451 C   0  0  0  0  0  0  0  0  0  0  0  0
    3.2363    0.9740   -0.5477 C   0  0  0  0  0  0  0  0  0  0  0  0
    6.0377    1.1632   -0.9167 H   0  0  0  0  0  0  0  0  0  0  0  0
    6.3398    0.0742    0.5035 H   0  0  0  0  0  0  0  0  0  0  0  0
    5.4514   -0.5235   -0.9916 H   0  0  0  0  0  0  0  0  0  0  0  0
    5.0232    1.0069    2.2942 H   0  0  0  0  0  0  0  0  0  0  0  0
    2.8684    1.7680    3.1056 H   0  0  0  0  0  0  0  0  0  0  0  0
    0.9122    2.8169    2.7035 H   0  0  0  0  0  0  0  0  0  0  0  0
   -0.0007    1.3740    2.2915 H   0  0  0  0  0  0  0  0  0  0  0  0
    0.0261    2.8648    1.1911 H   0  0  0  0  0  0  0  0  0  0  0  0
    1.1469    1.5444   -2.0743 H   0  0  0  0  0  0  0  0  0  0  0  0
    0.3604    2.6060   -0.9192 H   0  0  0  0  0  0  0  0  0  0  0  0
    1.8850   -0.4144   -3.3906 H   0  0  0  0  0  0  0  0  0  0  0  0
    1.8781   -0.4035   -3.4083 H   0  0  0  0  0  0  0  0  0  0  0  0
   -1.5007   -4.2310   -2.2386 H   0  0  0  0  0  0  0  0  0  0  0  0
   -3.5762    1.7876    1.2839 H   0  0  0  0  0  0  0  0  0  0  0  0
   -4.5116    0.6192    2.2399 H   0  0  0  0  0  0  0  0  0  0  0  0
   -2.7565    0.6894    2.4802 H   0  0  0  0  0  0  0  0  0  0  0  0
   -4.1752    0.6441   -1.0841 H   0  0  0  0  0  0  0  0  0  0  0  0
   -5.4585    0.4283    0.2154 H   0  0  0  0  0  0  0  0  0  0  0  0
   -4.8590   -0.9813   -0.8296 H   0  0  0  0  0  0  0  0  0  0  0  0
   -4.6465   -1.6059    1.7806 H   0  0  0  0  0  0  0  0  0  0  0  0
   -3.8448   -2.3590    0.4017 H   0  0  0  0  0  0  0  0  0  0  0  0
   -2.8529   -1.9962    1.8997 H   0  0  0  0  0  0  0  0  0  0  0  0
    3.3940    0.7462   -1.5903 H   0  0  0  0  0  0  0  0  0  0  0  0
  1  2  1  0
  2  3  2  0
  3  4  1  0
  4  5  2  0
  5  6  1  0
  5  7  1  0
  7  8  1  0
  8  9  1  0
  9 10  2  0
 10 11  1  0
 11 12  1  0
 12 13  2  0
 13 14  1  0
 14 15  1  0
 14 16  2  0
 16 17  1  0
 17 18  2  0
 11 19  1  0
 19 20  1  0
 19 21  1  0
 19 22  1  0
  7 23  2  0
 23  2  1  0
 13  9  1  0
 18 12  1  0
  1 24  1  0
  1 25  1  0
  1 26  1  0
  3 27  1  0
  4 28  1  0
  6 29  1  0
  6 30  1  0
  6 31  1  0
  8 32  1  0
  8 33  1  0
 15 34  1  0
 15 35  1  0
 17 36  1  0
 20 37  1  0
 20 38  1  0
 20 39  1  0
 21 40  1  0
 21 41  1  0
 21 42  1  0
 22 43  1  0
 22 44  1  0
 22 45  1  0
 23 46  1  0
M  END
$$$$
