@<TRIPOS>MOLECULE
*****
 60 63 0 0 0
SMALL
GASTEIGER

@<TRIPOS>ATOM
      1 C          -4.7999    3.7506    0.2452 C.3     1  UNL1       -0.0256
      2 C          -5.0949    2.2730    0.5183 C.3     1  UNL1        0.1602
      3 C          -5.3580    2.1838    2.0301 C.3     1  UNL1       -0.0256
      4 O          -4.0219    1.4764    0.2248 O.3     1  UNL1       -0.3566
      5 C          -3.6078    1.5444   -1.0850 C.3     1  UNL1        0.0928
      6 C          -2.4402    0.6643   -1.3580 C.ar    1  UNL1        0.0892
      7 C          -1.1305    1.0607   -1.2273 C.ar    1  UNL1       -0.0108
      8 C          -0.3335   -0.0276   -1.5678 C.ar    1  UNL1        0.0697
      9 C           1.1387    0.0638   -1.4972 C.ar    1  UNL1        0.0035
     10 C           1.9351   -0.2716   -2.5576 C.ar    1  UNL1       -0.0524
     11 C           3.3214   -0.1797   -2.3912 C.ar    1  UNL1       -0.0577
     12 C           3.8907    0.2334   -1.2083 C.ar    1  UNL1       -0.0199
     13 C           3.0972    0.5743   -0.1347 C.ar    1  UNL1        0.1211
     14 O           3.6770    0.9901    1.0540 O.3     1  UNL1       -0.4915
     15 C           5.0613    1.0862    1.2315 C.3     1  UNL1        0.0966
     16 C           5.4523    1.5565    2.5975 C.3     1  UNL1        0.0399
     17 C           6.9406    1.6588    2.7856 C.3     1  UNL1        0.0557
     18 O           6.8436    1.1098    4.0652 O.3     1  UNL1       -0.3788
     19 C           5.6678    0.4684    3.6216 C.3     1  UNL1        0.0557
     20 C           1.7394    0.4821   -0.3026 C.ar    1  UNL1       -0.0108
     21 N          -1.1314   -1.0442   -1.8923 N.ar    1  UNL1       -0.2590
     22 C          -0.7348   -2.3381   -2.3119 C.3     1  UNL1        0.0685
     23 C          -0.5223   -3.3753   -1.3142 C.ar    1  UNL1       -0.0078
     24 C          -0.1178   -4.6218   -1.8377 C.ar    1  UNL1       -0.0554
     25 C           0.1215   -5.6977   -1.0173 C.ar    1  UNL1       -0.0614
     26 C          -0.0416   -5.5381    0.3391 C.ar    1  UNL1       -0.0604
     27 C          -0.4365   -4.3253    0.8647 C.ar    1  UNL1       -0.0431
     28 C          -0.6800   -3.2329    0.0373 C.ar    1  UNL1        0.0459
     29 CL         -1.1753   -1.7336    0.7660 Cl      1  UNL1       -0.0832
     30 N          -2.3932   -0.5973   -1.7561 N.ar    1  UNL1       -0.1730
     31 C          -6.3569    1.9245   -0.1335 C.2     1  UNL1        0.3365
     32 O          -7.3517    2.6790    0.1421 O.2     1  UNL1       -0.2478
     33 O          -6.5996    0.8943   -0.9972 O.3     1  UNL1       -0.4786
     34 H          -4.8276    3.8786   -0.8595 H       1  UNL1        0.0263
     35 H          -3.8154    3.9488    0.6829 H       1  UNL1        0.0263
     36 H          -5.6271    4.3269    0.6860 H       1  UNL1        0.0263
     37 H          -6.0941    1.3990    2.1991 H       1  UNL1        0.0263
     38 H          -5.7354    3.1332    2.4229 H       1  UNL1        0.0263
     39 H          -4.3865    1.9658    2.5187 H       1  UNL1        0.0263
     40 H          -3.2942    2.5926   -1.2787 H       1  UNL1        0.0626
     41 H          -4.4364    1.2605   -1.7664 H       1  UNL1        0.0626
     42 H          -0.7785    2.0234   -0.9216 H       1  UNL1        0.0658
     43 H           1.5530   -0.5835   -3.5170 H       1  UNL1        0.0624
     44 H           3.9488   -0.4478   -3.2359 H       1  UNL1        0.0619
     45 H           4.9815    0.2816   -1.1489 H       1  UNL1        0.0654
     46 H           5.5408    1.7281    0.4392 H       1  UNL1        0.0701
     47 H           5.4905    0.0653    1.0513 H       1  UNL1        0.0701
     48 H           4.8459    2.3803    3.0020 H       1  UNL1        0.0378
     49 H           7.4492    0.9168    2.1195 H       1  UNL1        0.0564
     50 H           7.3640    2.6708    2.7363 H       1  UNL1        0.0564
     51 H           4.9396    0.4886    4.4669 H       1  UNL1        0.0564
     52 H           5.8315   -0.5213    3.1623 H       1  UNL1        0.0564
     53 H           1.1059    0.7466    0.5317 H       1  UNL1        0.0661
     54 H           0.1449   -2.2779   -2.9914 H       1  UNL1        0.0559
     55 H          -1.6051   -2.7283   -2.9588 H       1  UNL1        0.0559
     56 H           0.0164   -4.7661   -2.9095 H       1  UNL1        0.0621
     57 H           0.4340   -6.6513   -1.4532 H       1  UNL1        0.0618
     58 H           0.1521   -6.4010    0.9759 H       1  UNL1        0.0618
     59 H          -0.5704   -4.1775    1.9229 H       1  UNL1        0.0632
     60 H          -7.1865    1.0569   -1.8097 H       1  UNL1        0.2951
@<TRIPOS>BOND
     1     1     2    1
     2     2     3    1
     3     2     4    1
     4     4     5    1
     5     5     6    1
     6     6     7   ar
     7     7     8   ar
     8     8     9    1
     9     9    10   ar
    10    10    11   ar
    11    11    12   ar
    12    12    13   ar
    13    13    14    1
    14    14    15    1
    15    15    16    1
    16    16    17    1
    17    17    18    1
    18    18    19    1
    19    13    20   ar
    20     8    21   ar
    21    21    22    1
    22    22    23    1
    23    23    24   ar
    24    24    25   ar
    25    25    26   ar
    26    26    27   ar
    27    27    28   ar
    28    28    29    1
    29    21    30   ar
    30     2    31    1
    31    31    32    2
    32    31    33    1
    33    30     6   ar
    34    20     9   ar
    35    28    23   ar
    36    19    16    1
    37     1    34    1
    38     1    35    1
    39     1    36    1
    40     3    37    1
    41     3    38    1
    42     3    39    1
    43     5    40    1
    44     5    41    1
    45     7    42    1
    46    10    43    1
    47    11    44    1
    48    12    45    1
    49    15    46    1
    50    15    47    1
    51    16    48    1
    52    17    49    1
    53    17    50    1
    54    19    51    1
    55    19    52    1
    56    20    53    1
    57    22    54    1
    58    22    55    1
    59    24    56    1
    60    25    57    1
    61    26    58    1
    62    27    59    1
    63    33    60    1
