@<TRIPOS>MOLECULE
*****
 53 56 0 0 0
SMALL
GASTEIGER

@<TRIPOS>ATOM
      1 C          -5.0359   -1.6673    0.7897 C.3     1  UNL1       -0.0375
      2 C          -5.8026   -0.7671   -0.0719 C.ar    1  UNL1       -0.0186
      3 C          -7.1449   -1.0960   -0.3629 C.ar    1  UNL1       -0.0368
      4 C          -7.8931   -0.3091   -1.2011 C.ar    1  UNL1        0.0593
      5 CL         -9.5618   -0.7226   -1.5595 Cl      1  UNL1       -0.0820
      6 C          -7.3249    0.8145   -1.7639 C.ar    1  UNL1        0.0467
      7 N          -6.0700    1.0971   -1.4734 N.ar    1  UNL1       -0.2486
      8 C          -5.2669    0.3433   -0.6356 C.ar    1  UNL1        0.1286
      9 C          -3.9390    0.8285   -0.3730 C.2     1  UNL1        0.2668
     10 O          -3.4430    1.6106   -1.2773 O.2     1  UNL1       -0.2682
     11 N          -3.0866    0.6008    0.7064 N.am    1  UNL1       -0.2802
     12 C          -1.7755    1.1574    0.8131 C.ar    1  UNL1        0.0343
     13 C          -1.6467    2.3795    1.4285 C.ar    1  UNL1       -0.0377
     14 C          -0.4024    2.9976    1.5762 C.ar    1  UNL1       -0.0243
     15 C           0.7157    2.3235    1.0718 C.ar    1  UNL1        0.1311
     16 F           1.9028    2.9266    1.2197 F       1  UNL1       -0.2050
     17 C           0.6100    1.0984    0.4517 C.ar    1  UNL1        0.0420
     18 C           1.8441    0.4581   -0.0544 C.3     1  UNL1        0.1959
     19 C           2.4393    1.4109   -1.0998 C.3     1  UNL1       -0.0112
     20 C           1.5748   -0.8430   -0.7781 C.3     1  UNL1        0.1183
     21 S           3.0952   -1.6945   -1.0273 S.O2    1  UNL1       -0.0095
     22 O           2.9967   -3.1365   -0.5402 O.2     1  UNL1       -0.1731
     23 O           3.4390   -1.8135   -2.4917 O.2     1  UNL1       -0.1731
     24 C           4.3687   -0.9362   -0.0983 C.3     1  UNL1        0.1886
     25 C           5.5080   -1.8732    0.2502 C.3     1  UNL1       -0.0164
     26 C           6.4070   -1.0637   -0.6261 C.3     1  UNL1       -0.0479
     27 C           5.3146   -0.0549   -0.8841 C.3     1  UNL1       -0.0164
     28 C           3.8190   -0.3250    1.1243 C.2     1  UNL1        0.3072
     29 N           4.5664   -0.4185    2.3644 N.pl3   1  UNL1       -0.2488
     30 N           2.7041    0.2747    1.0797 N.2     1  UNL1       -0.0727
     31 C          -0.6383    0.5474    0.3393 C.ar    1  UNL1       -0.0301
     32 H          -5.1340   -1.4136    1.8462 H       1  UNL1        0.0278
     33 H          -4.0303   -1.8489    0.3965 H       1  UNL1        0.0278
     34 H          -5.5725   -2.6843    0.7259 H       1  UNL1        0.0278
     35 H          -7.5775   -1.9739    0.0813 H       1  UNL1        0.0636
     36 H          -7.9085    1.4593   -2.4396 H       1  UNL1        0.0844
     37 H          -3.4100    0.0229    1.4962 H       1  UNL1        0.1552
     38 H          -2.4931    2.9323    1.8324 H       1  UNL1        0.0637
     39 H          -0.2822    3.9520    2.0541 H       1  UNL1        0.0647
     40 H           2.7982    0.8486   -1.9843 H       1  UNL1        0.0279
     41 H           3.2815    1.9900   -0.7050 H       1  UNL1        0.0279
     42 H           1.6241    2.0736   -1.5033 H       1  UNL1        0.0279
     43 H           1.1334   -0.5867   -1.7598 H       1  UNL1        0.0550
     44 H           0.9202   -1.5181   -0.1891 H       1  UNL1        0.0550
     45 H           5.2689   -2.8959   -0.0704 H       1  UNL1        0.0292
     46 H           5.7773   -1.8831    1.3293 H       1  UNL1        0.0292
     47 H           6.7649   -1.6004   -1.5331 H       1  UNL1        0.0267
     48 H           7.2122   -0.5854   -0.0293 H       1  UNL1        0.0267
     49 H           5.4673    0.9431   -0.4195 H       1  UNL1        0.0292
     50 H           5.0350   -0.0109   -1.9684 H       1  UNL1        0.0292
     51 H           4.3836   -1.2864    2.9139 H       1  UNL1        0.2881
     52 H           5.2187    0.3110    2.6703 H       1  UNL1        0.2881
     53 H          -0.7509   -0.3928   -0.1343 H       1  UNL1        0.0641
@<TRIPOS>BOND
     1     1     2    1
     2     2     3   ar
     3     3     4   ar
     4     4     5    1
     5     4     6   ar
     6     6     7   ar
     7     7     8   ar
     8     8     9    1
     9     9    10    2
    10     9    11   am
    11    11    12    1
    12    12    13   ar
    13    13    14   ar
    14    14    15   ar
    15    15    16    1
    16    15    17   ar
    17    17    18    1
    18    18    19    1
    19    18    20    1
    20    20    21    1
    21    21    22    2
    22    21    23    2
    23    21    24    1
    24    24    25    1
    25    25    26    1
    26    26    27    1
    27    24    28    1
    28    28    29    1
    29    28    30    2
    30    17    31   ar
    31     8     2   ar
    32    31    12   ar
    33    30    18    1
    34    27    24    1
    35     1    32    1
    36     1    33    1
    37     1    34    1
    38     3    35    1
    39     6    36    1
    40    11    37    1
    41    13    38    1
    42    14    39    1
    43    19    40    1
    44    19    41    1
    45    19    42    1
    46    20    43    1
    47    20    44    1
    48    25    45    1
    49    25    46    1
    50    26    47    1
    51    26    48    1
    52    27    49    1
    53    27    50    1
    54    29    51    1
    55    29    52    1
    56    31    53    1
