
     RDKit          3D

 53 56  0  0  0  0  0  0  0  0999 V2000
   -5.0359   -1.6673    0.7897 C   0  0  0  0  0  0  0  0  0  0  0  0
   -5.8026   -0.7671   -0.0719 C   0  0  0  0  0  0  0  0  0  0  0  0
   -7.1449   -1.0960   -0.3629 C   0  0  0  0  0  0  0  0  0  0  0  0
   -7.8931   -0.3091   -1.2011 C   0  0  0  0  0  0  0  0  0  0  0  0
   -9.5618   -0.7226   -1.5595 Cl  0  0  0  0  0  0  0  0  0  0  0  0
   -7.3249    0.8145   -1.7639 C   0  0  0  0  0  0  0  0  0  0  0  0
   -6.0700    1.0971   -1.4734 N   0  0  0  0  0  0  0  0  0  0  0  0
   -5.2669    0.3433   -0.6356 C   0  0  0  0  0  0  0  0  0  0  0  0
   -3.9390    0.8285   -0.3730 C   0  0  0  0  0  0  0  0  0  0  0  0
   -3.4430    1.6106   -1.2773 O   0  0  0  0  0  0  0  0  0  0  0  0
   -3.0866    0.6008    0.7064 N   0  0  0  0  0  0  0  0  0  0  0  0
   -1.7755    1.1574    0.8131 C   0  0  0  0  0  0  0  0  0  0  0  0
   -1.6467    2.3795    1.4285 C   0  0  0  0  0  0  0  0  0  0  0  0
   -0.4024    2.9976    1.5762 C   0  0  0  0  0  0  0  0  0  0  0  0
    0.7157    2.3235    1.0718 C   0  0  0  0  0  0  0  0  0  0  0  0
    1.9028    2.9266    1.2197 F   0  0  0  0  0  0  0  0  0  0  0  0
    0.6100    1.0984    0.4517 C   0  0  0  0  0  0  0  0  0  0  0  0
    1.8441    0.4581   -0.0544 C   0  0  2  0  0  0  0  0  0  0  0  0
    2.4393    1.4109   -1.0998 C   0  0  0  0  0  0  0  0  0  0  0  0
    1.5748   -0.8430   -0.7781 C   0  0  0  0  0  0  0  0  0  0  0  0
    3.0952   -1.6945   -1.0273 S   0  0  0  0  0  6  0  0  0  0  0  0
    2.9967   -3.1365   -0.5402 O   0  0  0  0  0  0  0  0  0  0  0  0
    3.4390   -1.8135   -2.4917 O   0  0  0  0  0  0  0  0  0  0  0  0
    4.3687   -0.9362   -0.0983 C   0  0  0  0  0  0  0  0  0  0  0  0
    5.5080   -1.8732    0.2502 C   0  0  0  0  0  0  0  0  0  0  0  0
    6.4070   -1.0637   -0.6261 C   0  0  0  0  0  0  0  0  0  0  0  0
    5.3146   -0.0549   -0.8841 C   0  0  0  0  0  0  0  0  0  0  0  0
    3.8190   -0.3250    1.1243 C   0  0  0  0  0  0  0  0  0  0  0  0
    4.5664   -0.4185    2.3644 N   0  0  0  0  0  0  0  0  0  0  0  0
    2.7041    0.2747    1.0797 N   0  0  0  0  0  0  0  0  0  0  0  0
   -0.6383    0.5474    0.3393 C   0  0  0  0  0  0  0  0  0  0  0  0
   -5.1340   -1.4136    1.8462 H   0  0  0  0  0  0  0  0  0  0  0  0
   -4.0303   -1.8489    0.3965 H   0  0  0  0  0  0  0  0  0  0  0  0
   -5.5725   -2.6843    0.7259 H   0  0  0  0  0  0  0  0  0  0  0  0
   -7.5775   -1.9739    0.0813 H   0  0  0  0  0  0  0  0  0  0  0  0
   -7.9085    1.4593   -2.4396 H   0  0  0  0  0  0  0  0  0  0  0  0
   -3.4100    0.0229    1.4962 H   0  0  0  0  0  0  0  0  0  0  0  0
   -2.4931    2.9323    1.8324 H   0  0  0  0  0  0  0  0  0  0  0  0
   -0.2822    3.9520    2.0541 H   0  0  0  0  0  0  0  0  0  0  0  0
    2.7982    0.8486   -1.9843 H   0  0  0  0  0  0  0  0  0  0  0  0
    3.2815    1.9900   -0.7050 H   0  0  0  0  0  0  0  0  0  0  0  0
    1.6241    2.0736   -1.5033 H   0  0  0  0  0  0  0  0  0  0  0  0
    1.1334   -0.5867   -1.7598 H   0  0  0  0  0  0  0  0  0  0  0  0
    0.9202   -1.5181   -0.1891 H   0  0  0  0  0  0  0  0  0  0  0  0
    5.2689   -2.8959   -0.0704 H   0  0  0  0  0  0  0  0  0  0  0  0
    5.7773   -1.8831    1.3293 H   0  0  0  0  0  0  0  0  0  0  0  0
    6.7649   -1.6004   -1.5331 H   0  0  0  0  0  0  0  0  0  0  0  0
    7.2122   -0.5854   -0.0293 H   0  0  0  0  0  0  0  0  0  0  0  0
    5.4673    0.9431   -0.4195 H   0  0  0  0  0  0  0  0  0  0  0  0
    5.0350   -0.0109   -1.9684 H   0  0  0  0  0  0  0  0  0  0  0  0
    4.3836   -1.2864    2.9139 H   0  0  0  0  0  0  0  0  0  0  0  0
    5.2187    0.3110    2.6703 H   0  0  0  0  0  0  0  0  0  0  0  0
   -0.7509   -0.3928   -0.1343 H   0  0  0  0  0  0  0  0  0  0  0  0
  1  2  1  0
  2  3  2  0
  3  4  1  0
  4  5  1  0
  4  6  2  0
  6  7  1  0
  7  8  2  0
  8  9  1  0
  9 10  2  0
  9 11  1  0
 11 12  1  0
 12 13  2  0
 13 14  1  0
 14 15  2  0
 15 16  1  0
 15 17  1  0
 17 18  1  0
 18 19  1  6
 18 20  1  0
 20 21  1  0
 21 22  2  0
 21 23  2  0
 21 24  1  0
 24 25  1  0
 25 26  1  0
 26 27  1  0
 24 28  1  0
 28 29  1  0
 28 30  2  0
 17 31  2  0
  8  2  1  0
 31 12  1  0
 30 18  1  0
 27 24  1  0
  1 32  1  0
  1 33  1  0
  1 34  1  0
  3 35  1  0
  6 36  1  0
 11 37  1  0
 13 38  1  0
 14 39  1  0
 19 40  1  0
 19 41  1  0
 19 42  1  0
 20 43  1  0
 20 44  1  0
 25 45  1  0
 25 46  1  0
 26 47  1  0
 26 48  1  0
 27 49  1  0
 27 50  1  0
 29 51  1  0
 29 52  1  0
 31 53  1  0
M  END
$$$$
