@<TRIPOS>MOLECULE
*****
 63 66 0 0 0
SMALL
GASTEIGER

@<TRIPOS>ATOM
      1 C           0.1532    1.3938   -2.5267 C.3     1  UNL1       -0.0421
      2 C           0.4027    0.0207   -1.9331 C.3     1  UNL1        0.0515
      3 C           1.6903   -0.0203   -1.2472 C.ar    1  UNL1       -0.0271
      4 C           2.0646   -1.0742   -0.4487 C.ar    1  UNL1       -0.0562
      5 C           3.2974   -1.0983    0.1998 C.ar    1  UNL1       -0.0537
      6 C           4.1664   -0.0672    0.0545 C.ar    1  UNL1       -0.0165
      7 C           5.4870   -0.0392    0.7186 C.ar    1  UNL1       -0.0015
      8 C           5.6906   -0.6273    1.9405 C.ar    1  UNL1       -0.0475
      9 C           6.9354   -0.5891    2.5450 C.ar    1  UNL1        0.0036
     10 C           7.9974    0.0410    1.9318 C.ar    1  UNL1        0.2511
     11 O           9.1467    0.0877    2.4687 O.2     1  UNL1       -0.2677
     12 N           7.7732    0.6102    0.7346 N.ar    1  UNL1       -0.3177
     13 C           8.8784    1.2918    0.0473 C.3     1  UNL1        0.0147
     14 C           6.5670    0.5836    0.1290 C.ar    1  UNL1        0.0153
     15 C           3.8223    1.0072   -0.7403 C.ar    1  UNL1       -0.0537
     16 C           2.5795    1.0209   -1.3880 C.ar    1  UNL1       -0.0562
     17 N          -0.7215   -0.3643   -1.1339 N.am    1  UNL1       -0.2605
     18 C          -1.0690    0.3292    0.0824 C.3     1  UNL1        0.0224
     19 C          -2.2652   -0.2035    0.7961 C.3     1  UNL1        0.0075
     20 C          -3.3342   -0.6162   -0.1641 C.3     1  UNL1        0.1415
     21 C          -3.6481    0.4347   -1.1442 C.3     1  UNL1       -0.0064
     22 C          -4.1025    1.7120   -0.5622 C.3     1  UNL1       -0.0258
     23 C          -5.3636    1.7366    0.2178 C.3     1  UNL1        0.0443
     24 O          -6.4580    1.3405   -0.5556 O.3     1  UNL1       -0.3950
     25 C          -4.5175   -1.2089    0.4589 C.ar    1  UNL1       -0.0040
     26 C          -4.6647   -1.3621    1.8295 C.ar    1  UNL1       -0.0521
     27 C          -5.7917   -1.9611    2.3455 C.ar    1  UNL1       -0.0261
     28 C          -6.7973   -2.4214    1.5148 C.ar    1  UNL1        0.1234
     29 F          -7.9177   -3.0167    2.0296 F       1  UNL1       -0.2055
     30 C          -6.6818   -2.2850    0.1559 C.ar    1  UNL1       -0.0261
     31 C          -5.5349   -1.6770   -0.3418 C.ar    1  UNL1       -0.0521
     32 O          -2.7271   -1.7706   -0.8571 O.3     1  UNL1       -0.4388
     33 C          -1.5456   -1.4597   -1.5150 C.2     1  UNL1        0.4042
     34 O          -1.1633   -2.1555   -2.4895 O.2     1  UNL1       -0.2262
     35 H           0.8923    1.5687   -3.3600 H       1  UNL1        0.0251
     36 H          -0.8356    1.3387   -3.0356 H       1  UNL1        0.0251
     37 H           0.2155    2.1690   -1.7590 H       1  UNL1        0.0251
     38 H           0.4703   -0.6678   -2.8238 H       1  UNL1        0.0549
     39 H           1.3936   -1.9064   -0.3157 H       1  UNL1        0.0621
     40 H           3.5625   -1.9404    0.8204 H       1  UNL1        0.0624
     41 H           4.8489   -1.1156    2.4054 H       1  UNL1        0.0626
     42 H           7.0919   -1.0518    3.5039 H       1  UNL1        0.0672
     43 H           8.6864    2.3808    0.0727 H       1  UNL1        0.0457
     44 H           8.8576    0.9058   -1.0021 H       1  UNL1        0.0457
     45 H           9.8321    0.9944    0.4850 H       1  UNL1        0.0457
     46 H           6.4252    1.0529   -0.8345 H       1  UNL1        0.0816
     47 H           4.5303    1.8184   -0.8417 H       1  UNL1        0.0624
     48 H           2.3905    1.8988   -1.9902 H       1  UNL1        0.0621
     49 H          -1.1039    1.4305   -0.0577 H       1  UNL1        0.0467
     50 H          -0.1958    0.1677    0.7964 H       1  UNL1        0.0467
     51 H          -1.9618   -1.0745    1.4226 H       1  UNL1        0.0322
     52 H          -2.6313    0.5754    1.4963 H       1  UNL1        0.0322
     53 H          -2.8084    0.6100   -1.8803 H       1  UNL1        0.0308
     54 H          -4.4980    0.0711   -1.8115 H       1  UNL1        0.0308
     55 H          -3.3223    2.1949    0.1019 H       1  UNL1        0.0289
     56 H          -4.2082    2.4732   -1.3980 H       1  UNL1        0.0289
     57 H          -5.5565    2.8358    0.4579 H       1  UNL1        0.0557
     58 H          -5.3199    1.2638    1.2083 H       1  UNL1        0.0557
     59 H          -6.3408    1.7451   -1.4455 H       1  UNL1        0.2094
     60 H          -3.8630   -0.9930    2.4553 H       1  UNL1        0.0622
     61 H          -5.9212   -2.0876    3.4112 H       1  UNL1        0.0646
     62 H          -7.4641   -2.6411   -0.5300 H       1  UNL1        0.0646
     63 H          -5.5147   -1.6090   -1.4401 H       1  UNL1        0.0622
@<TRIPOS>BOND
     1     1     2    1
     2     2     3    1
     3     3     4   ar
     4     4     5   ar
     5     5     6   ar
     6     6     7    1
     7     7     8   ar
     8     8     9   ar
     9     9    10   ar
    10    10    11    2
    11    10    12   ar
    12    12    13    1
    13    12    14   ar
    14     6    15   ar
    15    15    16   ar
    16     2    17    1
    17    17    18    1
    18    18    19    1
    19    19    20    1
    20    20    21    1
    21    21    22    1
    22    22    23    1
    23    23    24    1
    24    20    25    1
    25    25    26   ar
    26    26    27   ar
    27    27    28   ar
    28    28    29    1
    29    28    30   ar
    30    30    31   ar
    31    20    32    1
    32    32    33    1
    33    33    34    2
    34    16     3   ar
    35    33    17   am
    36    14     7   ar
    37    31    25   ar
    38     1    35    1
    39     1    36    1
    40     1    37    1
    41     2    38    1
    42     4    39    1
    43     5    40    1
    44     8    41    1
    45     9    42    1
    46    13    43    1
    47    13    44    1
    48    13    45    1
    49    14    46    1
    50    15    47    1
    51    16    48    1
    52    18    49    1
    53    18    50    1
    54    19    51    1
    55    19    52    1
    56    21    53    1
    57    21    54    1
    58    22    55    1
    59    22    56    1
    60    23    57    1
    61    23    58    1
    62    24    59    1
    63    26    60    1
    64    27    61    1
    65    30    62    1
    66    31    63    1
