
     RDKit          3D

 63 66  0  0  0  0  0  0  0  0999 V2000
    0.1532    1.3938   -2.5267 C   0  0  0  0  0  0  0  0  0  0  0  0
    0.4027    0.0207   -1.9331 C   0  0  1  0  0  0  0  0  0  0  0  0
    1.6903   -0.0203   -1.2472 C   0  0  0  0  0  0  0  0  0  0  0  0
    2.0646   -1.0742   -0.4487 C   0  0  0  0  0  0  0  0  0  0  0  0
    3.2974   -1.0983    0.1998 C   0  0  0  0  0  0  0  0  0  0  0  0
    4.1664   -0.0672    0.0545 C   0  0  0  0  0  0  0  0  0  0  0  0
    5.4870   -0.0392    0.7186 C   0  0  0  0  0  0  0  0  0  0  0  0
    5.6906   -0.6273    1.9405 C   0  0  0  0  0  0  0  0  0  0  0  0
    6.9354   -0.5891    2.5450 C   0  0  0  0  0  0  0  0  0  0  0  0
    7.9974    0.0410    1.9318 C   0  0  0  0  0  0  0  0  0  0  0  0
    9.1467    0.0877    2.4687 O   0  0  0  0  0  0  0  0  0  0  0  0
    7.7732    0.6102    0.7346 N   0  0  0  0  0  0  0  0  0  0  0  0
    8.8784    1.2918    0.0473 C   0  0  0  0  0  0  0  0  0  0  0  0
    6.5670    0.5836    0.1290 C   0  0  0  0  0  0  0  0  0  0  0  0
    3.8223    1.0072   -0.7403 C   0  0  0  0  0  0  0  0  0  0  0  0
    2.5795    1.0209   -1.3880 C   0  0  0  0  0  0  0  0  0  0  0  0
   -0.7215   -0.3643   -1.1339 N   0  0  0  0  0  0  0  0  0  0  0  0
   -1.0690    0.3292    0.0824 C   0  0  0  0  0  0  0  0  0  0  0  0
   -2.2652   -0.2035    0.7961 C   0  0  0  0  0  0  0  0  0  0  0  0
   -3.3342   -0.6162   -0.1641 C   0  0  2  0  0  0  0  0  0  0  0  0
   -3.6481    0.4347   -1.1442 C   0  0  0  0  0  0  0  0  0  0  0  0
   -4.1025    1.7120   -0.5622 C   0  0  0  0  0  0  0  0  0  0  0  0
   -5.3636    1.7366    0.2178 C   0  0  0  0  0  0  0  0  0  0  0  0
   -6.4580    1.3405   -0.5556 O   0  0  0  0  0  0  0  0  0  0  0  0
   -4.5175   -1.2089    0.4589 C   0  0  0  0  0  0  0  0  0  0  0  0
   -4.6647   -1.3621    1.8295 C   0  0  0  0  0  0  0  0  0  0  0  0
   -5.7917   -1.9611    2.3455 C   0  0  0  0  0  0  0  0  0  0  0  0
   -6.7973   -2.4214    1.5148 C   0  0  0  0  0  0  0  0  0  0  0  0
   -7.9177   -3.0167    2.0296 F   0  0  0  0  0  0  0  0  0  0  0  0
   -6.6818   -2.2850    0.1559 C   0  0  0  0  0  0  0  0  0  0  0  0
   -5.5349   -1.6770   -0.3418 C   0  0  0  0  0  0  0  0  0  0  0  0
   -2.7271   -1.7706   -0.8571 O   0  0  0  0  0  0  0  0  0  0  0  0
   -1.5456   -1.4597   -1.5150 C   0  0  0  0  0  0  0  0  0  0  0  0
   -1.1633   -2.1555   -2.4895 O   0  0  0  0  0  0  0  0  0  0  0  0
    0.8923    1.5687   -3.3600 H   0  0  0  0  0  0  0  0  0  0  0  0
   -0.8356    1.3387   -3.0356 H   0  0  0  0  0  0  0  0  0  0  0  0
    0.2155    2.1690   -1.7590 H   0  0  0  0  0  0  0  0  0  0  0  0
    0.4703   -0.6678   -2.8238 H   0  0  0  0  0  0  0  0  0  0  0  0
    1.3936   -1.9064   -0.3157 H   0  0  0  0  0  0  0  0  0  0  0  0
    3.5625   -1.9404    0.8204 H   0  0  0  0  0  0  0  0  0  0  0  0
    4.8489   -1.1156    2.4054 H   0  0  0  0  0  0  0  0  0  0  0  0
    7.0919   -1.0518    3.5039 H   0  0  0  0  0  0  0  0  0  0  0  0
    8.6864    2.3808    0.0727 H   0  0  0  0  0  0  0  0  0  0  0  0
    8.8576    0.9058   -1.0021 H   0  0  0  0  0  0  0  0  0  0  0  0
    9.8321    0.9944    0.4850 H   0  0  0  0  0  0  0  0  0  0  0  0
    6.4252    1.0529   -0.8345 H   0  0  0  0  0  0  0  0  0  0  0  0
    4.5303    1.8184   -0.8417 H   0  0  0  0  0  0  0  0  0  0  0  0
    2.3905    1.8988   -1.9902 H   0  0  0  0  0  0  0  0  0  0  0  0
   -1.1039    1.4305   -0.0577 H   0  0  0  0  0  0  0  0  0  0  0  0
   -0.1958    0.1677    0.7964 H   0  0  0  0  0  0  0  0  0  0  0  0
   -1.9618   -1.0745    1.4226 H   0  0  0  0  0  0  0  0  0  0  0  0
   -2.6313    0.5754    1.4963 H   0  0  0  0  0  0  0  0  0  0  0  0
   -2.8084    0.6100   -1.8803 H   0  0  0  0  0  0  0  0  0  0  0  0
   -4.4980    0.0711   -1.8115 H   0  0  0  0  0  0  0  0  0  0  0  0
   -3.3223    2.1949    0.1019 H   0  0  0  0  0  0  0  0  0  0  0  0
   -4.2082    2.4732   -1.3980 H   0  0  0  0  0  0  0  0  0  0  0  0
   -5.5565    2.8358    0.4579 H   0  0  0  0  0  0  0  0  0  0  0  0
   -5.3199    1.2638    1.2083 H   0  0  0  0  0  0  0  0  0  0  0  0
   -6.3408    1.7451   -1.4455 H   0  0  0  0  0  0  0  0  0  0  0  0
   -3.8630   -0.9930    2.4553 H   0  0  0  0  0  0  0  0  0  0  0  0
   -5.9212   -2.0876    3.4112 H   0  0  0  0  0  0  0  0  0  0  0  0
   -7.4641   -2.6411   -0.5300 H   0  0  0  0  0  0  0  0  0  0  0  0
   -5.5147   -1.6090   -1.4401 H   0  0  0  0  0  0  0  0  0  0  0  0
  1  2  1  0
  2  3  1  0
  3  4  2  0
  4  5  1  0
  5  6  2  0
  6  7  1  0
  7  8  1  0
  8  9  2  0
  9 10  1  0
 10 11  2  0
 10 12  1  0
 12 13  1  0
 12 14  1  0
  6 15  1  0
 15 16  2  0
  2 17  1  0
 17 18  1  0
 18 19  1  0
 19 20  1  0
 20 21  1  6
 21 22  1  0
 22 23  1  0
 23 24  1  0
 20 25  1  0
 25 26  2  0
 26 27  1  0
 27 28  2  0
 28 29  1  0
 28 30  1  0
 30 31  2  0
 20 32  1  0
 32 33  1  0
 33 34  2  0
 16  3  1  0
 33 17  1  0
 14  7  2  0
 31 25  1  0
  1 35  1  0
  1 36  1  0
  1 37  1  0
  2 38  1  6
  4 39  1  0
  5 40  1  0
  8 41  1  0
  9 42  1  0
 13 43  1  0
 13 44  1  0
 13 45  1  0
 14 46  1  0
 15 47  1  0
 16 48  1  0
 18 49  1  0
 18 50  1  0
 19 51  1  0
 19 52  1  0
 21 53  1  0
 21 54  1  0
 22 55  1  0
 22 56  1  0
 23 57  1  0
 23 58  1  0
 24 59  1  0
 26 60  1  0
 27 61  1  0
 30 62  1  0
 31 63  1  0
M  END
$$$$
