@<TRIPOS>MOLECULE
*****
 41 44 0 0 0
SMALL
GASTEIGER

@<TRIPOS>ATOM
      1 C           8.6514   -0.1431   -0.9049 C.3     1  UNL1        0.0788
      2 O           7.9822   -0.9283    0.0809 O.3     1  UNL1       -0.4951
      3 C           6.6155   -0.7722    0.2314 C.ar    1  UNL1        0.1201
      4 C           5.8867    0.1158   -0.5400 C.ar    1  UNL1       -0.0192
      5 C           4.5311    0.2743   -0.3946 C.ar    1  UNL1       -0.0462
      6 C           3.8344   -0.4483    0.5312 C.ar    1  UNL1        0.0373
      7 C           2.3833   -0.3240    0.7350 C.2     1  UNL1        0.2497
      8 O           1.8275   -1.0370    1.6180 O.2     1  UNL1       -0.2698
      9 N           1.6063    0.5729   -0.0347 N.am    1  UNL1       -0.2606
     10 C           0.2273    0.7033    0.1461 C.ar    1  UNL1        0.1654
     11 N          -0.8505    0.1418   -0.3454 N.ar    1  UNL1       -0.2243
     12 C          -2.0462    0.4298   -0.0217 C.ar    1  UNL1        0.0840
     13 C          -2.2882    1.4203    0.9330 C.ar    1  UNL1        0.0232
     14 S          -0.5756    1.8880    1.3090 S.2     1  UNL1       -0.0561
     15 C          -3.6629    1.6432    1.2019 C.3     1  UNL1        0.0067
     16 C          -4.3560    0.6836    0.3149 C.ar    1  UNL1       -0.0299
     17 C          -5.7130    0.4708    0.1674 C.ar    1  UNL1       -0.0158
     18 C          -6.1551   -0.4762   -0.7178 C.ar    1  UNL1        0.1204
     19 O          -7.5161   -0.6858   -0.8621 O.3     1  UNL1       -0.4951
     20 C          -8.4503    0.0456   -0.1262 C.3     1  UNL1        0.0788
     21 C          -5.2352   -1.2077   -1.4533 C.ar    1  UNL1       -0.0193
     22 C          -3.8932   -0.9716   -1.2830 C.ar    1  UNL1       -0.0488
     23 C          -3.4200   -0.0246   -0.3990 C.ar    1  UNL1        0.0049
     24 C           4.5602   -1.3490    1.3168 C.ar    1  UNL1       -0.0462
     25 C           5.9173   -1.5032    1.1665 C.ar    1  UNL1       -0.0192
     26 H           8.3288   -0.4012   -1.9237 H       1  UNL1        0.0660
     27 H           9.7585   -0.2058   -0.7711 H       1  UNL1        0.0660
     28 H           8.4137    0.9476   -0.7443 H       1  UNL1        0.0660
     29 H           6.4626    0.6904   -1.2813 H       1  UNL1        0.0654
     30 H           4.0189    0.9761   -1.0190 H       1  UNL1        0.0626
     31 H           2.0414    1.1826   -0.7804 H       1  UNL1        0.1571
     32 H          -3.9447    1.3983    2.2374 H       1  UNL1        0.0367
     33 H          -3.9657    2.6779    1.0019 H       1  UNL1        0.0367
     34 H          -6.4391    1.0540    0.7534 H       1  UNL1        0.0657
     35 H          -9.4640   -0.3932   -0.2176 H       1  UNL1        0.0660
     36 H          -8.2258    0.0903    0.9554 H       1  UNL1        0.0660
     37 H          -8.5276    1.0671   -0.5827 H       1  UNL1        0.0660
     38 H          -5.6070   -1.9404   -2.1370 H       1  UNL1        0.0654
     39 H          -3.1924   -1.5446   -1.8583 H       1  UNL1        0.0625
     40 H           4.0166   -1.9117    2.0381 H       1  UNL1        0.0626
     41 H           6.4645   -2.2055    1.7833 H       1  UNL1        0.0654
@<TRIPOS>BOND
     1     1     2    1
     2     2     3    1
     3     3     4   ar
     4     4     5   ar
     5     5     6   ar
     6     6     7    1
     7     7     8    2
     8     7     9   am
     9     9    10    1
    10    10    11   ar
    11    11    12   ar
    12    12    13   ar
    13    13    14   ar
    14    13    15    1
    15    15    16    1
    16    16    17   ar
    17    17    18   ar
    18    18    19    1
    19    19    20    1
    20    18    21   ar
    21    21    22   ar
    22    22    23   ar
    23     6    24   ar
    24    24    25   ar
    25    25     3   ar
    26    14    10   ar
    27    23    16   ar
    28    23    12    1
    29     1    26    1
    30     1    27    1
    31     1    28    1
    32     4    29    1
    33     5    30    1
    34     9    31    1
    35    15    32    1
    36    15    33    1
    37    17    34    1
    38    20    35    1
    39    20    36    1
    40    20    37    1
    41    21    38    1
    42    22    39    1
    43    24    40    1
    44    25    41    1
