@<TRIPOS>MOLECULE
*****
 45 48 0 0 0
SMALL
GASTEIGER

@<TRIPOS>ATOM
      1 C          -2.7500   -1.1121    1.1817 C.3     1  UNL1       -0.0398
      2 C          -2.8897    0.1801    0.3777 C.3     1  UNL1        0.0543
      3 C          -2.3021    1.3251    1.1302 C.3     1  UNL1       -0.0398
      4 N          -2.1263    0.0561   -0.8704 N.pl3   1  UNL1       -0.3043
      5 C          -0.7809   -0.3774   -0.7203 C.ar    1  UNL1        0.2232
      6 N           0.2713    0.4330   -0.5408 N.ar    1  UNL1       -0.1823
      7 C           1.5424    0.0005   -0.3915 C.ar    1  UNL1        0.2041
      8 N           2.5984    0.9247   -0.1705 N.pl3   1  UNL1       -0.2849
      9 C           3.9668    0.6417   -0.1774 C.ar    1  UNL1        0.0347
     10 C           4.8022    1.2419    0.7411 C.ar    1  UNL1       -0.0384
     11 C           6.1427    1.0470    0.8162 C.ar    1  UNL1       -0.0335
     12 C           6.7822    0.1725   -0.0919 C.ar    1  UNL1        0.0783
     13 N           8.0259   -0.1273   -0.1547 N.ar    1  UNL1       -0.2474
     14 C           8.5912   -0.9075   -0.9563 C.ar    1  UNL1        0.0659
     15 S           7.0626   -1.4215   -1.9401 S.2     1  UNL1       -0.0754
     16 C           5.9236   -0.4225   -1.0117 C.ar    1  UNL1        0.0407
     17 C           4.5895   -0.2153   -1.0718 C.ar    1  UNL1       -0.0246
     18 N           1.8001   -1.3145   -0.4197 N.ar    1  UNL1       -0.2784
     19 C           0.7512   -2.1568   -0.6015 C.ar    1  UNL1        0.3512
     20 O           1.0310   -3.4028   -0.6250 O.2     1  UNL1       -0.2445
     21 N          -0.5031   -1.7185   -0.7487 N.ar    1  UNL1       -0.1593
     22 C          -4.3287    0.3070    0.0940 C.ar    1  UNL1       -0.0247
     23 C          -4.8825   -0.2372   -1.0489 C.ar    1  UNL1       -0.0566
     24 C          -6.2531   -0.1384   -1.3258 C.ar    1  UNL1       -0.0614
     25 C          -7.0676    0.5198   -0.4310 C.ar    1  UNL1       -0.0617
     26 C          -6.5345    1.0647    0.7072 C.ar    1  UNL1       -0.0614
     27 C          -5.1595    0.9539    0.9637 C.ar    1  UNL1       -0.0566
     28 H          -3.4865   -1.1451    2.0070 H       1  UNL1        0.0253
     29 H          -2.9054   -2.0083    0.5665 H       1  UNL1        0.0253
     30 H          -1.7533   -1.1530    1.6434 H       1  UNL1        0.0253
     31 H          -1.4919    0.9074    1.7853 H       1  UNL1        0.0253
     32 H          -2.9782    1.9048    1.7531 H       1  UNL1        0.0253
     33 H          -1.7439    1.9983    0.4219 H       1  UNL1        0.0253
     34 H          -2.5403    0.2735   -1.7785 H       1  UNL1        0.1498
     35 H           2.3143    1.9253    0.0187 H       1  UNL1        0.1550
     36 H           4.3210    1.9251    1.4563 H       1  UNL1        0.0637
     37 H           6.6952    1.5683    1.5738 H       1  UNL1        0.0640
     38 H           9.5334   -1.3137   -1.2178 H       1  UNL1        0.0907
     39 H           4.0307   -0.7175   -1.8528 H       1  UNL1        0.0648
     40 H           2.7626   -1.7047   -0.2887 H       1  UNL1        0.1731
     41 H          -4.2477   -0.7613   -1.7546 H       1  UNL1        0.0621
     42 H          -6.6552   -0.5779   -2.2364 H       1  UNL1        0.0618
     43 H          -8.1266    0.5733   -0.6832 H       1  UNL1        0.0618
     44 H          -7.1945    1.5741    1.3889 H       1  UNL1        0.0618
     45 H          -4.8369    1.4153    1.9002 H       1  UNL1        0.0621
@<TRIPOS>BOND
     1     1     2    1
     2     2     3    1
     3     2     4    1
     4     4     5    1
     5     5     6   ar
     6     6     7   ar
     7     7     8    1
     8     8     9    1
     9     9    10   ar
    10    10    11   ar
    11    11    12   ar
    12    12    13   ar
    13    13    14   ar
    14    14    15   ar
    15    15    16   ar
    16    16    17   ar
    17     7    18   ar
    18    18    19   ar
    19    19    20    2
    20    19    21   ar
    21     2    22    1
    22    22    23   ar
    23    23    24   ar
    24    24    25   ar
    25    25    26   ar
    26    26    27   ar
    27    21     5   ar
    28    27    22   ar
    29    17     9   ar
    30    16    12   ar
    31     1    28    1
    32     1    29    1
    33     1    30    1
    34     3    31    1
    35     3    32    1
    36     3    33    1
    37     4    34    1
    38     8    35    1
    39    10    36    1
    40    11    37    1
    41    14    38    1
    42    17    39    1
    43    18    40    1
    44    23    41    1
    45    24    42    1
    46    25    43    1
    47    26    44    1
    48    27    45    1
