@<TRIPOS>MOLECULE
*****
 118 120 0 0 0
SMALL
GASTEIGER

@<TRIPOS>ATOM
      1 C           6.6820    1.5261    1.4778 C.3     1  UNL1       -0.0618
      2 C           5.9503    0.5455    2.3086 C.3     1  UNL1       -0.0157
      3 C           5.0409   -0.4270    1.5744 C.3     1  UNL1        0.1335
      4 O           4.1039    0.2705    0.8634 O.3     1  UNL1       -0.4581
      5 C           2.7567    0.3907    1.1916 C.2     1  UNL1        0.3128
      6 O           2.3336   -0.1671    2.2102 O.2     1  UNL1       -0.2504
      7 C           1.9131    1.1738    0.3046 C.3     1  UNL1        0.0801
      8 C           2.2484    2.6044    0.4457 C.3     1  UNL1       -0.0499
      9 C           0.4055    0.8302    0.4007 C.3     1  UNL1        0.0793
     10 O          -0.1135    1.7691   -0.5318 O.3     1  UNL1       -0.3468
     11 C          -0.9718    2.6935   -0.0270 C.3     1  UNL1        0.1627
     12 C          -0.5328    4.1491   -0.2020 C.3     1  UNL1        0.0298
     13 C          -1.7399    5.0278   -0.5804 C.3     1  UNL1        0.0991
     14 C          -2.9649    4.6587    0.2417 C.3     1  UNL1       -0.0331
     15 O          -1.4682    6.3304   -0.3423 O.3     1  UNL1       -0.3740
     16 C          -0.4184    6.9215   -0.9758 C.3     1  UNL1        0.0373
     17 C          -2.0632    4.6480   -2.0045 C.3     1  UNL1        0.1098
     18 O          -1.2711    5.2364   -2.9554 O.3     1  UNL1       -0.3864
     19 C          -1.8872    3.1150   -2.0395 C.3     1  UNL1        0.0874
     20 C          -2.7722    2.5282   -3.1030 C.3     1  UNL1       -0.0361
     21 O          -2.1452    2.6077   -0.7823 O.3     1  UNL1       -0.3456
     22 C           0.3468   -0.5870   -0.1291 C.3     1  UNL1        0.0124
     23 C           0.5506   -0.4620   -1.6495 C.3     1  UNL1       -0.0576
     24 C          -0.7092   -1.5118    0.2764 C.3     1  UNL1        0.0951
     25 O          -1.9547   -1.1473   -0.2441 O.3     1  UNL1       -0.3423
     26 C          -2.9844   -1.1437    0.6576 C.3     1  UNL1        0.1871
     27 O          -3.8798   -2.2383    0.4155 O.3     1  UNL1       -0.3457
     28 C          -4.5735   -2.3366    1.6458 C.3     1  UNL1        0.0605
     29 C          -5.3854   -3.5812    1.7701 C.3     1  UNL1       -0.0385
     30 C          -5.4881   -1.1452    1.8281 C.3     1  UNL1       -0.0085
     31 C          -5.2636   -0.0890    0.7983 C.3     1  UNL1        0.0429
     32 N          -5.8405   -0.5063   -0.4538 N.3     1  UNL1       -0.3027
     33 C          -7.2546   -0.7029   -0.3171 C.3     1  UNL1       -0.0127
     34 C          -5.5811    0.3740   -1.5513 C.3     1  UNL1       -0.0127
     35 C          -3.7637    0.1290    0.5776 C.3     1  UNL1        0.1214
     36 O          -3.3103    0.9981    1.5516 O.3     1  UNL1       -0.3852
     37 C          -0.4920   -2.9546   -0.1609 C.3     1  UNL1        0.0903
     38 C          -0.6431   -3.2223   -1.6122 C.3     1  UNL1       -0.0336
     39 O          -1.7569   -3.5590    0.3632 O.3     1  UNL1       -0.3863
     40 C           0.4928   -3.7855    0.5280 C.3     1  UNL1       -0.0125
     41 C           1.9134   -3.4728    0.6746 C.3     1  UNL1        0.0177
     42 C           2.4923   -4.7373    1.4300 C.3     1  UNL1       -0.0556
     43 C           2.7553   -3.4156   -0.5475 C.2     1  UNL1        0.1416
     44 O           2.5104   -4.1574   -1.4694 O.2     1  UNL1       -0.2967
     45 C           3.8997   -2.4125   -0.5924 C.3     1  UNL1        0.0437
     46 C           4.6124   -2.7518   -1.9262 C.3     1  UNL1       -0.0532
     47 C           4.8956   -2.6247    0.4921 C.3     1  UNL1        0.0963
     48 O           5.6833   -3.7550    0.1542 O.3     1  UNL1       -0.3881
     49 C           5.7969   -1.4651    0.8032 C.3     1  UNL1        0.1262
     50 C           6.5678   -0.9555   -0.3338 C.3     1  UNL1       -0.0301
     51 O           6.7446   -1.9958    1.7757 O.3     1  UNL1       -0.3826
     52 H           7.7854    1.3681    1.4203 H       1  UNL1        0.0231
     53 H           6.5127    2.5965    1.8631 H       1  UNL1        0.0231
     54 H           6.2684    1.5678    0.4594 H       1  UNL1        0.0231
     55 H           6.6961   -0.0061    2.9308 H       1  UNL1        0.0299
     56 H           5.2738    1.1344    3.0017 H       1  UNL1        0.0299
     57 H           4.4516   -0.9665    2.4278 H       1  UNL1        0.0764
     58 H           2.2051    0.8791   -0.7476 H       1  UNL1        0.0436
     59 H           1.6801    3.0762    1.2714 H       1  UNL1        0.0238
     60 H           3.3385    2.6493    0.7664 H       1  UNL1        0.0238
     61 H           2.1472    3.1753   -0.4805 H       1  UNL1        0.0238
     62 H           0.0064    0.9841    1.3778 H       1  UNL1        0.0608
     63 H          -1.1863    2.5916    1.0436 H       1  UNL1        0.0911
     64 H           0.1582    4.2700   -1.0431 H       1  UNL1        0.0343
     65 H          -0.0640    4.5521    0.7083 H       1  UNL1        0.0343
     66 H          -3.4354    5.5750    0.7082 H       1  UNL1        0.0258
     67 H          -3.7781    4.2157   -0.3674 H       1  UNL1        0.0258
     68 H          -2.6559    3.9713    1.0239 H       1  UNL1        0.0258
     69 H           0.5671    6.4134   -0.7563 H       1  UNL1        0.0524
     70 H          -0.5364    7.1960   -2.0215 H       1  UNL1        0.0524
     71 H          -0.2742    7.9241   -0.4442 H       1  UNL1        0.0524
     72 H          -3.1287    4.8707   -2.2602 H       1  UNL1        0.0648
     73 H          -1.7857    5.8388   -3.5565 H       1  UNL1        0.2100
     74 H          -0.8305    2.9287   -2.3378 H       1  UNL1        0.0621
     75 H          -3.8393    2.5337   -2.7924 H       1  UNL1        0.0255
     76 H          -2.4003    1.5172   -3.3698 H       1  UNL1        0.0255
     77 H          -2.6434    3.1729   -4.0048 H       1  UNL1        0.0255
     78 H           1.3699   -1.0740    0.1639 H       1  UNL1        0.0349
     79 H           0.6289    0.6305   -1.8997 H       1  UNL1        0.0234
     80 H           1.3832   -1.0239   -2.0373 H       1  UNL1        0.0234
     81 H          -0.3967   -0.8103   -2.1539 H       1  UNL1        0.0234
     82 H          -0.8661   -1.6062    1.3890 H       1  UNL1        0.0629
     83 H          -2.5975   -1.3197    1.6710 H       1  UNL1        0.0937
     84 H          -3.7887   -2.2801    2.4319 H       1  UNL1        0.0595
     85 H          -5.1100   -4.0965    2.7276 H       1  UNL1        0.0255
     86 H          -5.2509   -4.2912    0.9345 H       1  UNL1        0.0255
     87 H          -6.4874   -3.3579    1.8773 H       1  UNL1        0.0255
     88 H          -5.2820   -0.7060    2.8214 H       1  UNL1        0.0306
     89 H          -6.5590   -1.4462    1.8051 H       1  UNL1        0.0306
     90 H          -5.6724    0.8923    1.1207 H       1  UNL1        0.0490
     91 H          -7.7455    0.0475    0.3579 H       1  UNL1        0.0391
     92 H          -7.4684   -1.7523    0.0160 H       1  UNL1        0.0391
     93 H          -7.7811   -0.6160   -1.3036 H       1  UNL1        0.0391
     94 H          -6.4423    0.2715   -2.2739 H       1  UNL1        0.0391
     95 H          -5.5575    1.4527   -1.2801 H       1  UNL1        0.0391
     96 H          -4.6762    0.0829   -2.1435 H       1  UNL1        0.0391
     97 H          -3.6786    0.5956   -0.4338 H       1  UNL1        0.0660
     98 H          -3.9310    1.7540    1.7369 H       1  UNL1        0.2101
     99 H          -0.8214   -4.3525   -1.6896 H       1  UNL1        0.0258
    100 H          -1.6148   -2.8209   -2.0018 H       1  UNL1        0.0258
    101 H           0.2092   -3.0545   -2.2594 H       1  UNL1        0.0258
    102 H          -1.6317   -4.5270    0.1902 H       1  UNL1        0.2103
    103 H           0.0454   -4.0334    1.5690 H       1  UNL1        0.0300
    104 H           0.4231   -4.8344    0.0497 H       1  UNL1        0.0300
    105 H           2.1953   -2.6679    1.3830 H       1  UNL1        0.0376
    106 H           2.5257   -4.5571    2.5002 H       1  UNL1        0.0236
    107 H           3.4470   -5.0305    0.9788 H       1  UNL1        0.0236
    108 H           1.7970   -5.5781    1.2439 H       1  UNL1        0.0236
    109 H           3.4735   -1.4297   -0.7047 H       1  UNL1        0.0401
    110 H           3.8915   -3.2103   -2.6425 H       1  UNL1        0.0237
    111 H           5.4278   -3.4575   -1.7241 H       1  UNL1        0.0237
    112 H           5.0110   -1.8549   -2.4180 H       1  UNL1        0.0237
    113 H           4.4142   -2.9042    1.4764 H       1  UNL1        0.0630
    114 H           6.4042   -3.8690    0.8182 H       1  UNL1        0.2099
    115 H           7.4830   -0.4248   -0.0185 H       1  UNL1        0.0259
    116 H           5.9789   -0.2425   -0.9637 H       1  UNL1        0.0259
    117 H           6.9409   -1.7550   -1.0252 H       1  UNL1        0.0259
    118 H           6.3103   -1.9895    2.6607 H       1  UNL1        0.2104
@<TRIPOS>BOND
     1     1     2    1
     2     2     3    1
     3     3     4    1
     4     4     5    1
     5     5     6    2
     6     5     7    1
     7     7     8    1
     8     7     9    1
     9     9    10    1
    10    10    11    1
    11    11    12    1
    12    12    13    1
    13    13    14    1
    14    13    15    1
    15    15    16    1
    16    13    17    1
    17    17    18    1
    18    17    19    1
    19    19    20    1
    20    19    21    1
    21     9    22    1
    22    22    23    1
    23    22    24    1
    24    24    25    1
    25    25    26    1
    26    26    27    1
    27    27    28    1
    28    28    29    1
    29    28    30    1
    30    30    31    1
    31    31    32    1
    32    32    33    1
    33    32    34    1
    34    31    35    1
    35    35    36    1
    36    24    37    1
    37    37    38    1
    38    37    39    1
    39    37    40    1
    40    40    41    1
    41    41    42    1
    42    41    43    1
    43    43    44    2
    44    43    45    1
    45    45    46    1
    46    45    47    1
    47    47    48    1
    48    47    49    1
    49    49    50    1
    50    49    51    1
    51    49     3    1
    52    21    11    1
    53    35    26    1
    54     1    52    1
    55     1    53    1
    56     1    54    1
    57     2    55    1
    58     2    56    1
    59     3    57    1
    60     7    58    1
    61     8    59    1
    62     8    60    1
    63     8    61    1
    64     9    62    1
    65    11    63    1
    66    12    64    1
    67    12    65    1
    68    14    66    1
    69    14    67    1
    70    14    68    1
    71    16    69    1
    72    16    70    1
    73    16    71    1
    74    17    72    1
    75    18    73    1
    76    19    74    1
    77    20    75    1
    78    20    76    1
    79    20    77    1
    80    22    78    1
    81    23    79    1
    82    23    80    1
    83    23    81    1
    84    24    82    1
    85    26    83    1
    86    28    84    1
    87    29    85    1
    88    29    86    1
    89    29    87    1
    90    30    88    1
    91    30    89    1
    92    31    90    1
    93    33    91    1
    94    33    92    1
    95    33    93    1
    96    34    94    1
    97    34    95    1
    98    34    96    1
    99    35    97    1
   100    36    98    1
   101    38    99    1
   102    38   100    1
   103    38   101    1
   104    39   102    1
   105    40   103    1
   106    40   104    1
   107    41   105    1
   108    42   106    1
   109    42   107    1
   110    42   108    1
   111    45   109    1
   112    46   110    1
   113    46   111    1
   114    46   112    1
   115    47   113    1
   116    48   114    1
   117    50   115    1
   118    50   116    1
   119    50   117    1
   120    51   118    1
