@<TRIPOS>MOLECULE
*****
 43 47 0 0 0
SMALL
GASTEIGER

@<TRIPOS>ATOM
      1 C          -6.1441    1.8832   -0.1561 C.3     1  UNL1        0.0790
      2 O          -5.3972    0.7079    0.0381 O.3     1  UNL1       -0.4914
      3 C          -3.9938    0.7691   -0.0019 C.ar    1  UNL1        0.1623
      4 C          -3.3687    1.9782   -0.2308 C.ar    1  UNL1       -0.0157
      5 C          -1.9983    2.1090   -0.2825 C.ar    1  UNL1       -0.0499
      6 C          -1.2398    0.9896   -0.0983 C.ar    1  UNL1       -0.0022
      7 C           0.1416    1.0992   -0.1462 C.ar    1  UNL1        0.0183
      8 C           0.9013   -0.0347    0.0407 C.ar    1  UNL1        0.2159
      9 N           0.3048   -1.2281    0.2655 N.ar    1  UNL1       -0.1961
     10 C          -1.0625   -1.3348    0.3130 C.ar    1  UNL1        0.1831
     11 C          -1.8389   -0.2311    0.1321 C.ar    1  UNL1        0.0909
     12 C          -3.2216   -0.3535    0.1826 C.ar    1  UNL1        0.1748
     13 O          -3.7762   -1.5794    0.4131 O.3     1  UNL1       -0.4907
     14 C          -4.1311   -2.5138   -0.5789 C.3     1  UNL1        0.0790
     15 C           1.0230   -2.4511    0.4534 C.3     1  UNL1        0.1550
     16 C           2.4947   -2.3730    0.4911 C.3     1  UNL1        0.0330
     17 C           3.1047   -1.0611    0.2116 C.ar    1  UNL1       -0.0243
     18 C           4.5062   -1.0211    0.1770 C.ar    1  UNL1       -0.0120
     19 C           5.1502    0.1701   -0.0644 C.ar    1  UNL1        0.1665
     20 C           4.3722    1.2845   -0.2638 C.ar    1  UNL1        0.1670
     21 C           2.9750    1.2610   -0.2327 C.ar    1  UNL1       -0.0025
     22 C           2.3463    0.0626    0.0096 C.ar    1  UNL1        0.0533
     23 O           5.2317    2.3333   -0.4816 O.3     1  UNL1       -0.4526
     24 C           6.5207    1.9401    0.0039 C.3     1  UNL1        0.2332
     25 O           6.5006    0.5392   -0.1613 O.3     1  UNL1       -0.4526
     26 H          -7.2064    1.7696    0.0786 H       1  UNL1        0.0660
     27 H          -5.7511    2.6480    0.5705 H       1  UNL1        0.0660
     28 H          -5.9691    2.3329   -1.1696 H       1  UNL1        0.0660
     29 H          -3.9603    2.8704   -0.3780 H       1  UNL1        0.0655
     30 H          -1.5031    3.0514   -0.4611 H       1  UNL1        0.0625
     31 H           0.5603    2.0498   -0.3244 H       1  UNL1        0.0690
     32 H          -1.5262   -2.2931    0.4936 H       1  UNL1        0.1384
     33 H          -3.4573   -2.4597   -1.4703 H       1  UNL1        0.0660
     34 H          -4.0729   -3.5214   -0.1157 H       1  UNL1        0.0660
     35 H          -5.1749   -2.3788   -0.9254 H       1  UNL1        0.0660
     36 H           0.7472   -3.1649   -0.3976 H       1  UNL1        0.1034
     37 H           0.6634   -2.9376    1.4175 H       1  UNL1        0.1034
     38 H           2.9368   -3.0968   -0.2471 H       1  UNL1        0.0375
     39 H           2.8387   -2.6856    1.5340 H       1  UNL1        0.0375
     40 H           5.0885   -1.9189    0.3385 H       1  UNL1        0.0658
     41 H           2.4646    2.1902   -0.4019 H       1  UNL1        0.0663
     42 H           7.3093    2.3296   -0.6725 H       1  UNL1        0.1166
     43 H           6.6118    2.2695    1.0398 H       1  UNL1        0.1166
@<TRIPOS>UNITY_ATOM_ATTR
9 1
charge 1
@<TRIPOS>BOND
     1     1     2    1
     2     2     3    1
     3     3     4   ar
     4     4     5   ar
     5     5     6   ar
     6     6     7   ar
     7     7     8   ar
     8     8     9   ar
     9     9    10   ar
    10    10    11   ar
    11    11    12   ar
    12    12    13    1
    13    13    14    1
    14     9    15    1
    15    15    16    1
    16    16    17    1
    17    17    18   ar
    18    18    19   ar
    19    19    20   ar
    20    20    21   ar
    21    21    22   ar
    22    20    23    1
    23    23    24    1
    24    24    25    1
    25    12     3   ar
    26    22    17   ar
    27    11     6   ar
    28    25    19    1
    29    22     8    1
    30     1    26    1
    31     1    27    1
    32     1    28    1
    33     4    29    1
    34     5    30    1
    35     7    31    1
    36    10    32    1
    37    14    33    1
    38    14    34    1
    39    14    35    1
    40    15    36    1
    41    15    37    1
    42    16    38    1
    43    16    39    1
    44    18    40    1
    45    21    41    1
    46    24    42    1
    47    24    43    1
