@<TRIPOS>MOLECULE
*****
 40 42 0 0 0
SMALL
GASTEIGER

@<TRIPOS>ATOM
      1 N          -7.4290   -0.2973   -0.9323 N.3     1  UNL1       -0.2035
      2 S          -6.4587   -0.2845    0.5074 S.O2    1  UNL1        0.0574
      3 O          -7.0388    0.7679    1.4376 O.2     1  UNL1       -0.1532
      4 O          -6.5464   -1.6044    1.2164 O.2     1  UNL1       -0.1532
      5 C          -4.8033    0.0753    0.1541 C.ar    1  UNL1        0.1254
      6 C          -3.7497   -0.7498    0.4275 C.ar    1  UNL1       -0.0010
      7 C          -2.4413   -0.4960    0.1651 C.ar    1  UNL1        0.1810
      8 C          -2.1489    0.7050   -0.4325 C.ar    1  UNL1        0.2060
      9 C          -3.2092    1.5723   -0.7249 C.ar    1  UNL1        0.0114
     10 C          -4.5151    1.2864   -0.4476 C.ar    1  UNL1        0.0715
     11 CL         -5.7855    2.4161   -0.8407 Cl      1  UNL1       -0.0814
     12 N          -0.8739    1.1461   -0.7912 N.2     1  UNL1       -0.0417
     13 C           0.2427    0.5439   -0.6446 C.2     1  UNL1        0.3204
     14 C           1.4673    1.2396   -1.1115 C.3     1  UNL1        0.0991
     15 S           2.3218    1.9276    0.3151 S.3     1  UNL1       -0.1438
     16 C           3.0760    0.6333    1.3083 C.3     1  UNL1        0.0193
     17 C           4.2174    0.0595    0.5299 C.ar    1  UNL1       -0.0375
     18 C           4.2779   -0.9919   -0.3436 C.ar    1  UNL1       -0.0578
     19 C           5.4704   -1.3269   -0.9475 C.ar    1  UNL1       -0.0615
     20 C           6.6555   -0.6618   -0.7351 C.ar    1  UNL1       -0.0617
     21 C           6.6303    0.4035    0.1397 C.ar    1  UNL1       -0.0615
     22 C           5.4401    0.7229    0.7307 C.ar    1  UNL1       -0.0578
     23 N           0.3047   -0.7416   -0.0648 N.pl3   1  UNL1       -0.0934
     24 S          -1.1086   -1.5648    0.5420 S.O2    1  UNL1        0.1358
     25 O          -0.9021   -1.7331    2.0176 O.2     1  UNL1       -0.1302
     26 O          -1.2699   -2.9036   -0.1171 O.2     1  UNL1       -0.1302
     27 H          -7.6008   -1.3036   -1.2296 H       1  UNL1        0.1442
     28 H          -6.8439    0.1511   -1.6993 H       1  UNL1        0.1442
     29 H          -3.9789   -1.7113    0.9048 H       1  UNL1        0.0659
     30 H          -3.0179    2.5468   -1.2041 H       1  UNL1        0.0677
     31 H           1.1465    2.0383   -1.8306 H       1  UNL1        0.0501
     32 H           2.1426    0.5291   -1.6578 H       1  UNL1        0.0501
     33 H           2.3331   -0.1158    1.6176 H       1  UNL1        0.0425
     34 H           3.4860    1.1621    2.2281 H       1  UNL1        0.0425
     35 H           3.3598   -1.4959   -0.4983 H       1  UNL1        0.0621
     36 H           5.4156   -2.1845   -1.6309 H       1  UNL1        0.0618
     37 H           7.5721   -0.9439   -1.2199 H       1  UNL1        0.0618
     38 H           7.5412    0.9352    0.3192 H       1  UNL1        0.0618
     39 H           5.5133    1.5858    1.4133 H       1  UNL1        0.0621
     40 H           1.1076   -1.3372    0.0661 H       1  UNL1        0.3255
@<TRIPOS>BOND
     1     1     2    1
     2     2     3    2
     3     2     4    2
     4     2     5    1
     5     5     6   ar
     6     6     7   ar
     7     7     8   ar
     8     8     9   ar
     9     9    10   ar
    10    10    11    1
    11     8    12    1
    12    12    13    2
    13    13    14    1
    14    14    15    1
    15    15    16    1
    16    16    17    1
    17    17    18   ar
    18    18    19   ar
    19    19    20   ar
    20    20    21   ar
    21    21    22   ar
    22    13    23    1
    23    23    24    1
    24    24    25    2
    25    24    26    2
    26    10     5   ar
    27    22    17   ar
    28    24     7    1
    29     1    27    1
    30     1    28    1
    31     6    29    1
    32     9    30    1
    33    14    31    1
    34    14    32    1
    35    16    33    1
    36    16    34    1
    37    18    35    1
    38    19    36    1
    39    20    37    1
    40    21    38    1
    41    22    39    1
    42    23    40    1
