@<TRIPOS>MOLECULE
*****
 59 62 0 0 0
SMALL
GASTEIGER

@<TRIPOS>ATOM
      1 C          10.4167   -0.4289   -1.6249 C.3     1  UNL1        0.0805
      2 O           9.2830    0.0967   -2.2733 O.3     1  UNL1       -0.4786
      3 C           8.0471    0.2120   -1.6249 C.ar    1  UNL1        0.2332
      4 C           6.9476    0.7287   -2.2735 C.ar    1  UNL1        0.0899
      5 N           5.7436    0.8444   -1.6514 N.ar    1  UNL1       -0.2435
      6 C           5.5825    0.4564   -0.3745 C.ar    1  UNL1        0.1439
      7 C           4.2921    0.5766    0.3030 C.2     1  UNL1        0.2681
      8 O           4.1741    0.2041    1.4988 O.2     1  UNL1       -0.2681
      9 N           3.1895    1.1176   -0.4138 N.am    1  UNL1       -0.2802
     10 C           1.9546    1.2170    0.2807 C.ar    1  UNL1        0.0342
     11 C           1.6831    2.3739    0.9776 C.ar    1  UNL1       -0.0377
     12 C           0.4769    2.4779    1.6597 C.ar    1  UNL1       -0.0243
     13 C          -0.4596    1.4404    1.6530 C.ar    1  UNL1        0.1290
     14 F          -1.5985    1.6751    2.3428 F       1  UNL1       -0.2051
     15 C          -0.1917    0.2820    0.9577 C.ar    1  UNL1        0.0168
     16 C          -1.2057   -0.8029    1.0014 C.3     1  UNL1        0.0951
     17 C          -1.3273   -1.2688    2.4277 C.3     1  UNL1       -0.0352
     18 C          -0.7314   -1.9419    0.1068 C.3     1  UNL1        0.0223
     19 C          -1.7995   -2.9715   -0.0945 C.3     1  UNL1        0.1997
     20 C          -1.5095   -4.3026    0.5248 C.3     1  UNL1        0.4266
     21 F          -0.3344   -4.8322   -0.0159 F       1  UNL1       -0.1669
     22 F          -1.3714   -4.2552    1.8821 F       1  UNL1       -0.1669
     23 F          -2.5091   -5.1928    0.1478 F       1  UNL1       -0.1669
     24 O          -3.1035   -2.4825    0.2642 O.2     1  UNL1       -0.4530
     25 C          -3.3810   -1.1098    0.1360 C.2     1  UNL1        0.2858
     26 N          -4.6351   -0.6235   -0.3697 N.am    1  UNL1       -0.2361
     27 C          -4.9099    0.7532   -0.4980 C.2     1  UNL1        0.2515
     28 O          -4.0078    1.5626   -0.1503 O.2     1  UNL1       -0.2697
     29 C          -6.1820    1.2604   -1.0109 C.ar    1  UNL1        0.0371
     30 C          -7.2116    0.4439   -1.4112 C.ar    1  UNL1       -0.0496
     31 C          -8.3912    0.9514   -1.8867 C.ar    1  UNL1       -0.0610
     32 C          -8.5928    2.3030   -1.9827 C.ar    1  UNL1       -0.0617
     33 C          -7.5575    3.1180   -1.5802 C.ar    1  UNL1       -0.0610
     34 C          -6.3678    2.6271   -1.1009 C.ar    1  UNL1       -0.0496
     35 N          -2.4672   -0.3037    0.4903 N.2     1  UNL1       -0.2251
     36 C           1.0079    0.2003    0.2897 C.ar    1  UNL1       -0.0323
     37 C           6.6841   -0.0606    0.2731 C.ar    1  UNL1        0.0619
     38 N           7.8864   -0.1760   -0.3478 N.ar    1  UNL1       -0.2178
     39 H          10.4101    0.0225   -0.5896 H       1  UNL1        0.0660
     40 H          10.3492   -1.5281   -1.4456 H       1  UNL1        0.0660
     41 H          11.3619   -0.1151   -2.0912 H       1  UNL1        0.0660
     42 H           7.0581    1.0439   -3.2952 H       1  UNL1        0.0884
     43 H           3.3288    1.4130   -1.3986 H       1  UNL1        0.1552
     44 H           2.4071    3.1879    0.9884 H       1  UNL1        0.0637
     45 H           0.2724    3.3884    2.2036 H       1  UNL1        0.0647
     46 H          -2.2681   -1.8281    2.6118 H       1  UNL1        0.0256
     47 H          -0.4315   -1.8926    2.6849 H       1  UNL1        0.0256
     48 H          -1.2436   -0.3869    3.0902 H       1  UNL1        0.0256
     49 H          -0.4765   -1.4284   -0.8733 H       1  UNL1        0.0330
     50 H           0.1480   -2.4271    0.5577 H       1  UNL1        0.0330
     51 H          -1.8904   -3.1271   -1.2156 H       1  UNL1        0.0826
     52 H          -5.3429   -1.3157   -0.6403 H       1  UNL1        0.1595
     53 H          -7.0923   -0.6520   -1.3510 H       1  UNL1        0.0625
     54 H          -9.1740    0.2782   -2.1902 H       1  UNL1        0.0618
     55 H          -9.5305    2.7137   -2.3608 H       1  UNL1        0.0618
     56 H          -7.6482    4.2114   -1.6292 H       1  UNL1        0.0618
     57 H          -5.5734    3.3265   -0.7929 H       1  UNL1        0.0625
     58 H           1.2456   -0.6809   -0.2497 H       1  UNL1        0.0640
     59 H           6.5661   -0.3732    1.2934 H       1  UNL1        0.0854
@<TRIPOS>BOND
     1     1     2    1
     2     2     3    1
     3     3     4   ar
     4     4     5   ar
     5     5     6   ar
     6     6     7    1
     7     7     8    2
     8     7     9   am
     9     9    10    1
    10    10    11   ar
    11    11    12   ar
    12    12    13   ar
    13    13    14    1
    14    13    15   ar
    15    15    16    1
    16    16    17    1
    17    16    18    1
    18    18    19    1
    19    19    20    1
    20    20    21    1
    21    20    22    1
    22    20    23    1
    23    19    24    1
    24    24    25    1
    25    25    26    1
    26    26    27   am
    27    27    28    2
    28    27    29    1
    29    29    30   ar
    30    30    31   ar
    31    31    32   ar
    32    32    33   ar
    33    33    34   ar
    34    25    35    2
    35    15    36   ar
    36     6    37   ar
    37    37    38   ar
    38    38     3   ar
    39    36    10   ar
    40    35    16    1
    41    34    29   ar
    42     1    39    1
    43     1    40    1
    44     1    41    1
    45     4    42    1
    46     9    43    1
    47    11    44    1
    48    12    45    1
    49    17    46    1
    50    17    47    1
    51    17    48    1
    52    18    49    1
    53    18    50    1
    54    19    51    1
    55    26    52    1
    56    30    53    1
    57    31    54    1
    58    32    55    1
    59    33    56    1
    60    34    57    1
    61    36    58    1
    62    37    59    1
