
     RDKit          3D

 29 28  0  0  0  0  0  0  0  0999 V2000
   -1.4476   -2.1169   -0.8959 O   0  0  0  0  0  0  0  0  0  0  0  0
   -1.2824   -0.7879   -1.3412 C   0  0  0  0  0  0  0  0  0  0  0  0
   -1.2909    0.0775   -0.1191 C   0  0  0  0  0  0  0  0  0  0  0  0
   -1.2519    1.5524   -0.4550 C   0  0  0  0  0  0  0  0  0  0  0  0
   -1.3675    2.2727    0.7189 O   0  0  0  0  0  0  0  0  0  0  0  0
   -2.6436   -0.1459    0.5495 C   0  0  0  0  0  0  0  0  0  0  0  0
   -2.8575   -1.4648    0.9044 O   0  0  0  0  0  0  0  0  0  0  0  0
   -0.2201   -0.3010    0.7626 N   0  0  0  0  0  0  0  0  0  0  0  0
    1.0480   -0.1425    0.1107 C   0  0  0  0  0  0  0  0  0  0  0  0
    2.1959   -0.5325    1.0544 C   0  0  0  0  0  0  0  0  0  0  0  0
    3.7578   -0.3305    0.2319 S   0  0  0  0  0  0  0  0  0  0  0  0
    3.9827    1.2642   -0.2462 O   0  0  0  0  0  0  0  0  0  0  0  0
    3.8447   -1.1724   -1.0018 O   0  0  0  0  0  0  0  0  0  0  0  0
    4.8791   -0.7384    1.1314 O   0  0  0  0  0  0  0  0  0  0  0  0
   -0.9191   -2.3065   -0.0978 H   0  0  0  0  0  0  0  0  0  0  0  0
   -2.2523   -0.5687   -1.8726 H   0  0  0  0  0  0  0  0  0  0  0  0
   -0.4200   -0.6860   -1.9930 H   0  0  0  0  0  0  0  0  0  0  0  0
   -2.1891    1.7830   -1.0333 H   0  0  0  0  0  0  0  0  0  0  0  0
   -0.4295    1.8414   -1.1102 H   0  0  0  0  0  0  0  0  0  0  0  0
   -1.9225    3.0915    0.6045 H   0  0  0  0  0  0  0  0  0  0  0  0
   -2.8024    0.5588    1.3862 H   0  0  0  0  0  0  0  0  0  0  0  0
   -3.4107    0.1216   -0.2285 H   0  0  0  0  0  0  0  0  0  0  0  0
   -3.7237   -1.8132    0.5355 H   0  0  0  0  0  0  0  0  0  0  0  0
   -0.2900    0.2009    1.6662 H   0  0  0  0  0  0  0  0  0  0  0  0
    1.1389    0.9126   -0.1866 H   0  0  0  0  0  0  0  0  0  0  0  0
    1.1830   -0.7769   -0.7637 H   0  0  0  0  0  0  0  0  0  0  0  0
    2.1185    0.0876    1.9573 H   0  0  0  0  0  0  0  0  0  0  0  0
    2.1079   -1.5934    1.3519 H   0  0  0  0  0  0  0  0  0  0  0  0
    4.4644    1.7133    0.5095 H   0  0  0  0  0  0  0  0  0  0  0  0
  1  2  1  0
  2  3  1  0
  3  4  1  0
  4  5  1  0
  3  6  1  0
  6  7  1  0
  3  8  1  0
  8  9  1  0
  9 10  1  0
 10 11  1  0
 11 12  1  0
 11 13  2  0
 11 14  2  0
  1 15  1  0
  2 16  1  0
  2 17  1  0
  4 18  1  0
  4 19  1  0
  5 20  1  0
  6 21  1  0
  6 22  1  0
  7 23  1  0
  8 24  1  0
  9 25  1  0
  9 26  1  0
 10 27  1  0
 10 28  1  0
 12 29  1  0
M  END
$$$$
