@<TRIPOS>MOLECULE
*****
 29 28 0 0 0
SMALL
GASTEIGER

@<TRIPOS>ATOM
      1 O          -1.4476   -2.1169   -0.8959 O.3     1  UNL1       -0.3930
      2 C          -1.2824   -0.7879   -1.3412 C.3     1  UNL1        0.0667
      3 C          -1.2909    0.0775   -0.1191 C.3     1  UNL1        0.0890
      4 C          -1.2519    1.5524   -0.4550 C.3     1  UNL1        0.0667
      5 O          -1.3675    2.2727    0.7189 O.3     1  UNL1       -0.3930
      6 C          -2.6436   -0.1459    0.5495 C.3     1  UNL1        0.0667
      7 O          -2.8575   -1.4648    0.9044 O.3     1  UNL1       -0.3930
      8 N          -0.2201   -0.3010    0.7626 N.3     1  UNL1       -0.3033
      9 C           1.0480   -0.1425    0.1107 C.3     1  UNL1        0.0184
     10 C           2.1959   -0.5325    1.0544 C.3     1  UNL1        0.1051
     11 S           3.7578   -0.3305    0.2319 S.O2    1  UNL1        0.0810
     12 O           3.9827    1.2642   -0.2462 O.3     1  UNL1       -0.2539
     13 O           3.8447   -1.1724   -1.0018 O.2     1  UNL1       -0.1474
     14 O           4.8791   -0.7384    1.1314 O.2     1  UNL1       -0.1474
     15 H          -0.9191   -2.3065   -0.0978 H       1  UNL1        0.2095
     16 H          -2.2523   -0.5687   -1.8726 H       1  UNL1        0.0577
     17 H          -0.4200   -0.6860   -1.9930 H       1  UNL1        0.0577
     18 H          -2.1891    1.7830   -1.0333 H       1  UNL1        0.0577
     19 H          -0.4295    1.8414   -1.1102 H       1  UNL1        0.0577
     20 H          -1.9225    3.0915    0.6045 H       1  UNL1        0.2095
     21 H          -2.8024    0.5588    1.3862 H       1  UNL1        0.0577
     22 H          -3.4107    0.1216   -0.2285 H       1  UNL1        0.0577
     23 H          -3.7237   -1.8132    0.5355 H       1  UNL1        0.2095
     24 H          -0.2900    0.2009    1.6662 H       1  UNL1        0.1227
     25 H           1.1389    0.9126   -0.1866 H       1  UNL1        0.0441
     26 H           1.1830   -0.7769   -0.7637 H       1  UNL1        0.0441
     27 H           2.1185    0.0876    1.9573 H       1  UNL1        0.0538
     28 H           2.1079   -1.5934    1.3519 H       1  UNL1        0.0538
     29 H           4.4644    1.7133    0.5095 H       1  UNL1        0.2445
@<TRIPOS>BOND
     1     1     2    1
     2     2     3    1
     3     3     4    1
     4     4     5    1
     5     3     6    1
     6     6     7    1
     7     3     8    1
     8     8     9    1
     9     9    10    1
    10    10    11    1
    11    11    12    1
    12    11    13    2
    13    11    14    2
    14     1    15    1
    15     2    16    1
    16     2    17    1
    17     4    18    1
    18     4    19    1
    19     5    20    1
    20     6    21    1
    21     6    22    1
    22     7    23    1
    23     8    24    1
    24     9    25    1
    25     9    26    1
    26    10    27    1
    27    10    28    1
    28    12    29    1
