
     RDKit          3D

 14 14  0  0  0  0  0  0  0  0999 V2000
    0.0678    1.3534    0.1256 C   0  0  0  0  0  0  0  0  0  0  0  0
    1.3048    0.4929    0.1699 C   0  0  0  0  0  0  0  0  0  0  0  0
    0.9973   -0.7953    0.5663 O   0  0  0  0  0  0  0  0  0  0  0  0
   -0.0723   -1.3583   -0.0839 C   0  0  0  0  0  0  0  0  0  0  0  0
   -1.2426   -0.4308   -0.2745 C   0  0  0  0  0  0  0  0  0  0  0  0
   -0.8623    0.8100   -0.7472 O   0  0  0  0  0  0  0  0  0  0  0  0
   -0.3486    1.3481    1.1644 H   0  0  0  0  0  0  0  0  0  0  0  0
    0.3125    2.3639   -0.2311 H   0  0  0  0  0  0  0  0  0  0  0  0
    1.9204    0.5493   -0.7410 H   0  0  0  0  0  0  0  0  0  0  0  0
    1.9446    0.9206    0.9841 H   0  0  0  0  0  0  0  0  0  0  0  0
   -0.4433   -2.1893    0.5685 H   0  0  0  0  0  0  0  0  0  0  0  0
    0.1869   -1.7912   -1.0845 H   0  0  0  0  0  0  0  0  0  0  0  0
   -1.8805   -0.8856   -1.0763 H   0  0  0  0  0  0  0  0  0  0  0  0
   -1.8846   -0.3878    0.6297 H   0  0  0  0  0  0  0  0  0  0  0  0
  1  2  1  0
  2  3  1  0
  3  4  1  0
  4  5  1  0
  5  6  1  0
  6  1  1  0
  1  7  1  0
  1  8  1  0
  2  9  1  0
  2 10  1  0
  4 11  1  0
  4 12  1  0
  5 13  1  0
  5 14  1  0
M  END
$$$$
