@<TRIPOS>MOLECULE
*****
 47 50 0 0 0
SMALL
GASTEIGER

@<TRIPOS>ATOM
      1 C           4.8818    0.1228   -0.4518 C.3     1  UNL1       -0.0632
      2 C           3.5089   -0.3827   -0.3401 C.3     1  UNL1       -0.0326
      3 C           2.5227    0.1708   -1.4031 C.3     1  UNL1        0.0412
      4 C           3.2353   -0.3052   -2.7152 C.3     1  UNL1       -0.0416
      5 C           2.5427    1.6339   -1.5628 C.3     1  UNL1       -0.0416
      6 N           1.3074   -0.5493   -1.2749 N.ar    1  UNL1       -0.3227
      7 C           1.1132   -1.7572   -1.9935 C.ar    1  UNL1        0.0976
      8 N           0.0099   -2.3023   -1.5942 N.ar    1  UNL1       -0.2350
      9 C          -0.5794   -1.5864   -0.6740 C.ar    1  UNL1        0.0982
     10 C          -1.8492   -2.0012   -0.0398 C.ar    1  UNL1        0.0027
     11 C          -1.9676   -2.8355    1.0375 C.ar    1  UNL1       -0.0498
     12 C          -3.2387   -3.1755    1.5359 C.ar    1  UNL1       -0.0258
     13 C          -4.3710   -2.7316    1.0229 C.ar    1  UNL1        0.1234
     14 F          -5.6175   -3.1232    1.5354 F       1  UNL1       -0.2055
     15 C          -4.3551   -1.8819   -0.0511 C.ar    1  UNL1       -0.0258
     16 C          -3.0813   -1.5119   -0.5787 C.ar    1  UNL1       -0.0498
     17 C           0.2275   -0.4463   -0.4479 C.ar    1  UNL1        0.0971
     18 C          -0.1091    0.6307    0.4221 C.ar    1  UNL1        0.1103
     19 C           0.4222    1.6800    0.9474 C.ar    1  UNL1       -0.0290
     20 C           0.2745    2.7538    1.6542 C.ar    1  UNL1       -0.0153
     21 C          -1.1707    2.7554    2.0173 C.ar    1  UNL1        0.1555
     22 N          -1.9231    3.6695    2.6329 N.ar    1  UNL1       -0.2333
     23 C          -3.1555    3.3354    2.6507 C.ar    1  UNL1        0.0659
     24 C          -3.2385    2.0326    1.9561 C.ar    1  UNL1        0.1618
     25 C          -4.4055    1.3918    1.8180 C.1     1  UNL1        0.1208
     26 N          -5.5149    0.7613    1.6974 N.1     1  UNL1       -0.1892
     27 N          -1.9128    1.7541    1.5805 N.ar    1  UNL1       -0.2023
     28 N          -1.5401    0.7071    0.8224 N.ar    1  UNL1       -0.1623
     29 H           5.3059    0.2927    0.6116 H       1  UNL1        0.0230
     30 H           4.9977    1.0357   -1.0242 H       1  UNL1        0.0230
     31 H           5.6009   -0.6698   -0.8293 H       1  UNL1        0.0230
     32 H           3.4769   -1.5008   -0.6610 H       1  UNL1        0.0285
     33 H           3.0550   -0.3565    0.6815 H       1  UNL1        0.0285
     34 H           3.7794   -1.2004   -2.4559 H       1  UNL1        0.0252
     35 H           2.4678   -0.5129   -3.5112 H       1  UNL1        0.0252
     36 H           3.8345    0.4904   -3.1337 H       1  UNL1        0.0252
     37 H           1.5760    2.1099   -1.5346 H       1  UNL1        0.0252
     38 H           2.9968    2.0105   -2.5486 H       1  UNL1        0.0252
     39 H           3.2578    2.1326   -0.8330 H       1  UNL1        0.0252
     40 H           1.7719   -2.1662   -2.7224 H       1  UNL1        0.1029
     41 H          -1.0470   -3.2003    1.5087 H       1  UNL1        0.0625
     42 H          -3.2389   -3.8690    2.4276 H       1  UNL1        0.0646
     43 H          -5.2166   -1.5034   -0.5158 H       1  UNL1        0.0646
     44 H          -2.9983   -0.9146   -1.4413 H       1  UNL1        0.0625
     45 H           1.6324    1.5810    0.7449 H       1  UNL1        0.0641
     46 H           0.7813    3.5773    2.0117 H       1  UNL1        0.0655
     47 H          -4.0496    3.8548    3.0212 H       1  UNL1        0.0859
@<TRIPOS>BOND
     1     1     2    1
     2     2     3    1
     3     3     4    1
     4     3     5    1
     5     3     6    1
     6     6     7   ar
     7     7     8   ar
     8     8     9   ar
     9     9    10    1
    10    10    11   ar
    11    11    12   ar
    12    12    13   ar
    13    13    14    1
    14    13    15   ar
    15    15    16   ar
    16     9    17   ar
    17    17    18    1
    18    18    19   ar
    19    19    20   ar
    20    20    21   ar
    21    21    22   ar
    22    22    23   ar
    23    23    24   ar
    24    24    25    1
    25    25    26    3
    26    24    27   ar
    27    27    28   ar
    28    17     6   ar
    29    28    18   ar
    30    16    10   ar
    31    27    21   ar
    32     1    29    1
    33     1    30    1
    34     1    31    1
    35     2    32    1
    36     2    33    1
    37     4    34    1
    38     4    35    1
    39     4    36    1
    40     5    37    1
    41     5    38    1
    42     5    39    1
    43     7    40    1
    44    11    41    1
    45    12    42    1
    46    15    43    1
    47    16    44    1
    48    19    45    1
    49    20    46    1
    50    23    47    1
