
     RDKit          3D

 47 50  0  0  0  0  0  0  0  0999 V2000
    4.8818    0.1228   -0.4518 C   0  0  0  0  0  0  0  0  0  0  0  0
    3.5089   -0.3827   -0.3401 C   0  0  0  0  0  0  0  0  0  0  0  0
    2.5227    0.1708   -1.4031 C   0  0  0  0  0  0  0  0  0  0  0  0
    3.2353   -0.3052   -2.7152 C   0  0  0  0  0  0  0  0  0  0  0  0
    2.5427    1.6339   -1.5628 C   0  0  0  0  0  0  0  0  0  0  0  0
    1.3074   -0.5493   -1.2749 N   0  0  0  0  0  0  0  0  0  0  0  0
    1.1132   -1.7572   -1.9935 C   0  0  0  0  0  0  0  0  0  0  0  0
    0.0099   -2.3023   -1.5942 N   0  0  0  0  0  0  0  0  0  0  0  0
   -0.5794   -1.5864   -0.6740 C   0  0  0  0  0  0  0  0  0  0  0  0
   -1.8492   -2.0012   -0.0398 C   0  0  0  0  0  0  0  0  0  0  0  0
   -1.9676   -2.8355    1.0375 C   0  0  0  0  0  0  0  0  0  0  0  0
   -3.2387   -3.1755    1.5359 C   0  0  0  0  0  0  0  0  0  0  0  0
   -4.3710   -2.7316    1.0229 C   0  0  0  0  0  0  0  0  0  0  0  0
   -5.6175   -3.1232    1.5354 F   0  0  0  0  0  0  0  0  0  0  0  0
   -4.3551   -1.8819   -0.0511 C   0  0  0  0  0  0  0  0  0  0  0  0
   -3.0813   -1.5119   -0.5787 C   0  0  0  0  0  0  0  0  0  0  0  0
    0.2275   -0.4463   -0.4479 C   0  0  0  0  0  0  0  0  0  0  0  0
   -0.1091    0.6307    0.4221 C   0  0  0  0  0  0  0  0  0  0  0  0
    0.4222    1.6800    0.9474 C   0  0  0  0  0  0  0  0  0  0  0  0
    0.2745    2.7538    1.6542 C   0  0  0  0  0  0  0  0  0  0  0  0
   -1.1707    2.7554    2.0173 C   0  0  0  0  0  0  0  0  0  0  0  0
   -1.9231    3.6695    2.6329 N   0  0  0  0  0  0  0  0  0  0  0  0
   -3.1555    3.3354    2.6507 C   0  0  0  0  0  0  0  0  0  0  0  0
   -3.2385    2.0326    1.9561 C   0  0  0  0  0  0  0  0  0  0  0  0
   -4.4055    1.3918    1.8180 C   0  0  0  0  0  0  0  0  0  0  0  0
   -5.5149    0.7613    1.6974 N   0  0  0  0  0  0  0  0  0  0  0  0
   -1.9128    1.7541    1.5805 N   0  0  0  0  0  0  0  0  0  0  0  0
   -1.5401    0.7071    0.8224 N   0  0  0  0  0  0  0  0  0  0  0  0
    5.3059    0.2927    0.6116 H   0  0  0  0  0  0  0  0  0  0  0  0
    4.9977    1.0357   -1.0242 H   0  0  0  0  0  0  0  0  0  0  0  0
    5.6009   -0.6698   -0.8293 H   0  0  0  0  0  0  0  0  0  0  0  0
    3.4769   -1.5008   -0.6610 H   0  0  0  0  0  0  0  0  0  0  0  0
    3.0550   -0.3565    0.6815 H   0  0  0  0  0  0  0  0  0  0  0  0
    3.7794   -1.2004   -2.4559 H   0  0  0  0  0  0  0  0  0  0  0  0
    2.4678   -0.5129   -3.5112 H   0  0  0  0  0  0  0  0  0  0  0  0
    3.8345    0.4904   -3.1337 H   0  0  0  0  0  0  0  0  0  0  0  0
    1.5760    2.1099   -1.5346 H   0  0  0  0  0  0  0  0  0  0  0  0
    2.9968    2.0105   -2.5486 H   0  0  0  0  0  0  0  0  0  0  0  0
    3.2578    2.1326   -0.8330 H   0  0  0  0  0  0  0  0  0  0  0  0
    1.7719   -2.1662   -2.7224 H   0  0  0  0  0  0  0  0  0  0  0  0
   -1.0470   -3.2003    1.5087 H   0  0  0  0  0  0  0  0  0  0  0  0
   -3.2389   -3.8690    2.4276 H   0  0  0  0  0  0  0  0  0  0  0  0
   -5.2166   -1.5034   -0.5158 H   0  0  0  0  0  0  0  0  0  0  0  0
   -2.9983   -0.9146   -1.4413 H   0  0  0  0  0  0  0  0  0  0  0  0
    1.6324    1.5810    0.7449 H   0  0  0  0  0  0  0  0  0  0  0  0
    0.7813    3.5773    2.0117 H   0  0  0  0  0  0  0  0  0  0  0  0
   -4.0496    3.8548    3.0212 H   0  0  0  0  0  0  0  0  0  0  0  0
  1  2  1  0
  2  3  1  0
  3  4  1  0
  3  5  1  0
  3  6  1  0
  6  7  1  0
  7  8  2  0
  8  9  1  0
  9 10  1  0
 10 11  2  0
 11 12  1  0
 12 13  2  0
 13 14  1  0
 13 15  1  0
 15 16  2  0
  9 17  2  0
 17 18  1  0
 18 19  1  0
 19 20  2  0
 20 21  1  0
 21 22  2  0
 22 23  1  0
 23 24  2  0
 24 25  1  0
 25 26  3  0
 24 27  1  0
 27 28  1  0
 17  6  1  0
 28 18  2  0
 16 10  1  0
 27 21  1  0
  1 29  1  0
  1 30  1  0
  1 31  1  0
  2 32  1  0
  2 33  1  0
  4 34  1  0
  4 35  1  0
  4 36  1  0
  5 37  1  0
  5 38  1  0
  5 39  1  0
  7 40  1  0
 11 41  1  0
 12 42  1  0
 15 43  1  0
 16 44  1  0
 19 45  1  0
 20 46  1  0
 23 47  1  0
M  END
$$$$
