
     RDKit          3D

 55 58  0  0  0  0  0  0  0  0999 V2000
   -7.0095   -2.4356   -2.0426 C   0  0  0  0  0  0  0  0  0  0  0  0
   -6.8756   -1.0578   -1.7212 O   0  0  0  0  0  0  0  0  0  0  0  0
   -5.7532   -0.6446   -1.0322 C   0  0  0  0  0  0  0  0  0  0  0  0
   -4.7620   -1.5424   -0.6512 C   0  0  0  0  0  0  0  0  0  0  0  0
   -3.6458   -1.0950    0.0407 C   0  0  0  0  0  0  0  0  0  0  0  0
   -3.4787    0.2427    0.3734 C   0  0  0  0  0  0  0  0  0  0  0  0
   -2.3037    0.6867    1.0948 C   0  0  0  0  0  0  0  0  0  0  0  0
   -1.0515    0.2525    0.7086 C   0  0  0  0  0  0  0  0  0  0  0  0
    0.0789    0.6773    1.3972 C   0  0  0  0  0  0  0  0  0  0  0  0
    1.4176    0.2393    1.0167 C   0  0  0  0  0  0  0  0  0  0  0  0
    2.4119    0.0994    1.9648 C   0  0  0  0  0  0  0  0  0  0  0  0
    3.6749   -0.3135    1.6069 C   0  0  0  0  0  0  0  0  0  0  0  0
    4.0118   -0.6063    0.2979 C   0  0  0  0  0  0  0  0  0  0  0  0
    5.3192   -1.0276   -0.0515 N   0  0  0  0  0  0  0  0  0  0  0  0
    6.4046   -1.1098    0.9355 C   0  0  0  0  0  0  0  0  0  0  0  0
    7.6638   -0.7889    0.1147 C   0  0  0  0  0  0  0  0  0  0  0  0
    7.3753    0.2009   -0.9069 N   0  0  0  0  0  0  0  0  0  0  0  0
    6.5099   -0.2662   -1.9491 C   0  0  0  0  0  0  0  0  0  0  0  0
    5.6878   -1.4084   -1.3927 C   0  0  0  0  0  0  0  0  0  0  0  0
    3.0438   -0.4736   -0.6494 C   0  0  0  0  0  0  0  0  0  0  0  0
    1.7628   -0.0548   -0.2860 C   0  0  0  0  0  0  0  0  0  0  0  0
   -0.1279    1.5346    2.4582 C   0  0  0  0  0  0  0  0  0  0  0  0
   -1.3472    1.9603    2.8380 N   0  0  0  0  0  0  0  0  0  0  0  0
   -2.4469    1.5428    2.1628 C   0  0  0  0  0  0  0  0  0  0  0  0
   -3.7615    1.9527    2.5123 N   0  0  0  0  0  0  0  0  0  0  0  0
   -4.4875    1.1072   -0.0231 C   0  0  0  0  0  0  0  0  0  0  0  0
   -5.5961    0.6823   -0.7068 C   0  0  0  0  0  0  0  0  0  0  0  0
   -6.5666    1.6002   -1.0729 O   0  0  0  0  0  0  0  0  0  0  0  0
   -6.4227    2.9759   -0.7461 C   0  0  0  0  0  0  0  0  0  0  0  0
   -7.9407   -2.6282   -2.6085 H   0  0  0  0  0  0  0  0  0  0  0  0
   -7.0149   -2.9999   -1.1012 H   0  0  0  0  0  0  0  0  0  0  0  0
   -6.1361   -2.7401   -2.6762 H   0  0  0  0  0  0  0  0  0  0  0  0
   -4.8934   -2.5827   -0.9107 H   0  0  0  0  0  0  0  0  0  0  0  0
   -2.9057   -1.8135    0.3166 H   0  0  0  0  0  0  0  0  0  0  0  0
   -0.9177   -0.4101   -0.1150 H   0  0  0  0  0  0  0  0  0  0  0  0
    2.1545    0.3267    2.9896 H   0  0  0  0  0  0  0  0  0  0  0  0
    4.4191   -0.4082    2.3841 H   0  0  0  0  0  0  0  0  0  0  0  0
    6.3390   -0.3400    1.7007 H   0  0  0  0  0  0  0  0  0  0  0  0
    6.5254   -2.1435    1.3178 H   0  0  0  0  0  0  0  0  0  0  0  0
    8.1147   -1.7010   -0.2900 H   0  0  0  0  0  0  0  0  0  0  0  0
    8.4072   -0.3275    0.7969 H   0  0  0  0  0  0  0  0  0  0  0  0
    6.9778    1.0389   -0.4061 H   0  0  0  0  0  0  0  0  0  0  0  0
    5.8163    0.5717   -2.2202 H   0  0  0  0  0  0  0  0  0  0  0  0
    7.0367   -0.5427   -2.8693 H   0  0  0  0  0  0  0  0  0  0  0  0
    6.4116   -2.2789   -1.3311 H   0  0  0  0  0  0  0  0  0  0  0  0
    4.8850   -1.7552   -2.0315 H   0  0  0  0  0  0  0  0  0  0  0  0
    3.2206   -0.6819   -1.7129 H   0  0  0  0  0  0  0  0  0  0  0  0
    1.0005    0.0444   -1.0683 H   0  0  0  0  0  0  0  0  0  0  0  0
    0.7782    1.8594    2.9902 H   0  0  0  0  0  0  0  0  0  0  0  0
   -3.9593    2.9936    2.4427 H   0  0  0  0  0  0  0  0  0  0  0  0
   -4.5088    1.3208    2.8189 H   0  0  0  0  0  0  0  0  0  0  0  0
   -4.3697    2.1497    0.2280 H   0  0  0  0  0  0  0  0  0  0  0  0
   -5.6354    3.4743   -1.3463 H   0  0  0  0  0  0  0  0  0  0  0  0
   -7.3717    3.5181   -0.9193 H   0  0  0  0  0  0  0  0  0  0  0  0
   -6.1588    3.1256    0.3180 H   0  0  0  0  0  0  0  0  0  0  0  0
  1  2  1  0
  2  3  1  0
  3  4  2  0
  4  5  1  0
  5  6  2  0
  6  7  1  0
  7  8  2  0
  8  9  1  0
  9 10  1  0
 10 11  2  0
 11 12  1  0
 12 13  2  0
 13 14  1  0
 14 15  1  0
 15 16  1  0
 16 17  1  0
 17 18  1  0
 18 19  1  0
 13 20  1  0
 20 21  2  0
  9 22  2  0
 22 23  1  0
 23 24  2  0
 24 25  1  0
  6 26  1  0
 26 27  2  0
 27 28  1  0
 28 29  1  0
 27  3  1  0
 24  7  1  0
 21 10  1  0
 19 14  1  0
  1 30  1  0
  1 31  1  0
  1 32  1  0
  4 33  1  0
  5 34  1  0
  8 35  1  0
 11 36  1  0
 12 37  1  0
 15 38  1  0
 15 39  1  0
 16 40  1  0
 16 41  1  0
 17 42  1  0
 18 43  1  0
 18 44  1  0
 19 45  1  0
 19 46  1  0
 20 47  1  0
 21 48  1  0
 22 49  1  0
 25 50  1  0
 25 51  1  0
 26 52  1  0
 29 53  1  0
 29 54  1  0
 29 55  1  0
M  END
$$$$
