@<TRIPOS>MOLECULE
*****
 55 58 0 0 0
SMALL
GASTEIGER

@<TRIPOS>ATOM
      1 C          -7.0095   -2.4356   -2.0426 C.3     1  UNL1        0.0790
      2 O          -6.8756   -1.0578   -1.7212 O.3     1  UNL1       -0.4915
      3 C          -5.7532   -0.6446   -1.0322 C.ar    1  UNL1        0.1615
      4 C          -4.7620   -1.5424   -0.6512 C.ar    1  UNL1       -0.0157
      5 C          -3.6458   -1.0950    0.0407 C.ar    1  UNL1       -0.0502
      6 C          -3.4787    0.2427    0.3734 C.ar    1  UNL1       -0.0109
      7 C          -2.3037    0.6867    1.0948 C.ar    1  UNL1        0.0223
      8 C          -1.0515    0.2525    0.7086 C.ar    1  UNL1       -0.0416
      9 C           0.0789    0.6773    1.3972 C.ar    1  UNL1        0.0009
     10 C           1.4176    0.2393    1.0167 C.ar    1  UNL1       -0.0163
     11 C           2.4119    0.0994    1.9648 C.ar    1  UNL1       -0.0522
     12 C           3.6749   -0.3135    1.6069 C.ar    1  UNL1       -0.0401
     13 C           4.0118   -0.6063    0.2979 C.ar    1  UNL1        0.0298
     14 N           5.3192   -1.0276   -0.0515 N.pl3   1  UNL1       -0.3275
     15 C           6.4046   -1.1098    0.9355 C.3     1  UNL1        0.0248
     16 C           7.6638   -0.7889    0.1147 C.3     1  UNL1        0.0117
     17 N           7.3753    0.2009   -0.9069 N.3     1  UNL1       -0.3130
     18 C           6.5099   -0.2662   -1.9491 C.3     1  UNL1        0.0117
     19 C           5.6878   -1.4084   -1.3927 C.3     1  UNL1        0.0248
     20 C           3.0438   -0.4736   -0.6494 C.ar    1  UNL1       -0.0401
     21 C           1.7628   -0.0548   -0.2860 C.ar    1  UNL1       -0.0522
     22 C          -0.1279    1.5346    2.4582 C.ar    1  UNL1        0.0374
     23 N          -1.3472    1.9603    2.8380 N.ar    1  UNL1       -0.2395
     24 C          -2.4469    1.5428    2.1628 C.ar    1  UNL1        0.1239
     25 N          -3.7615    1.9527    2.5123 N.pl3   1  UNL1       -0.3427
     26 C          -4.4875    1.1072   -0.0231 C.ar    1  UNL1       -0.0085
     27 C          -5.5961    0.6823   -0.7068 C.ar    1  UNL1        0.1621
     28 O          -6.5666    1.6002   -1.0729 O.3     1  UNL1       -0.4914
     29 C          -6.4227    2.9759   -0.7461 C.3     1  UNL1        0.0790
     30 H          -7.9407   -2.6282   -2.6085 H       1  UNL1        0.0660
     31 H          -7.0149   -2.9999   -1.1012 H       1  UNL1        0.0660
     32 H          -6.1361   -2.7401   -2.6762 H       1  UNL1        0.0660
     33 H          -4.8934   -2.5827   -0.9107 H       1  UNL1        0.0655
     34 H          -2.9057   -1.8135    0.3166 H       1  UNL1        0.0625
     35 H          -0.9177   -0.4101   -0.1150 H       1  UNL1        0.0631
     36 H           2.1545    0.3267    2.9896 H       1  UNL1        0.0624
     37 H           4.4191   -0.4082    2.3841 H       1  UNL1        0.0636
     38 H           6.3390   -0.3400    1.7007 H       1  UNL1        0.0476
     39 H           6.5254   -2.1435    1.3178 H       1  UNL1        0.0476
     40 H           8.1147   -1.7010   -0.2900 H       1  UNL1        0.0439
     41 H           8.4072   -0.3275    0.7969 H       1  UNL1        0.0439
     42 H           6.9778    1.0389   -0.4061 H       1  UNL1        0.1220
     43 H           5.8163    0.5717   -2.2202 H       1  UNL1        0.0439
     44 H           7.0367   -0.5427   -2.8693 H       1  UNL1        0.0439
     45 H           6.4116   -2.2789   -1.3311 H       1  UNL1        0.0476
     46 H           4.8850   -1.7552   -2.0315 H       1  UNL1        0.0476
     47 H           3.2206   -0.6819   -1.7129 H       1  UNL1        0.0636
     48 H           1.0005    0.0444   -1.0683 H       1  UNL1        0.0624
     49 H           0.7782    1.8594    2.9902 H       1  UNL1        0.0836
     50 H          -3.9593    2.9936    2.4427 H       1  UNL1        0.1437
     51 H          -4.5088    1.3208    2.8189 H       1  UNL1        0.1437
     52 H          -4.3697    2.1497    0.2280 H       1  UNL1        0.0661
     53 H          -5.6354    3.4743   -1.3463 H       1  UNL1        0.0660
     54 H          -7.3717    3.5181   -0.9193 H       1  UNL1        0.0660
     55 H          -6.1588    3.1256    0.3180 H       1  UNL1        0.0660
@<TRIPOS>BOND
     1     1     2    1
     2     2     3    1
     3     3     4   ar
     4     4     5   ar
     5     5     6   ar
     6     6     7    1
     7     7     8   ar
     8     8     9   ar
     9     9    10    1
    10    10    11   ar
    11    11    12   ar
    12    12    13   ar
    13    13    14    1
    14    14    15    1
    15    15    16    1
    16    16    17    1
    17    17    18    1
    18    18    19    1
    19    13    20   ar
    20    20    21   ar
    21     9    22   ar
    22    22    23   ar
    23    23    24   ar
    24    24    25    1
    25     6    26   ar
    26    26    27   ar
    27    27    28    1
    28    28    29    1
    29    27     3   ar
    30    24     7   ar
    31    21    10   ar
    32    19    14    1
    33     1    30    1
    34     1    31    1
    35     1    32    1
    36     4    33    1
    37     5    34    1
    38     8    35    1
    39    11    36    1
    40    12    37    1
    41    15    38    1
    42    15    39    1
    43    16    40    1
    44    16    41    1
    45    17    42    1
    46    18    43    1
    47    18    44    1
    48    19    45    1
    49    19    46    1
    50    20    47    1
    51    21    48    1
    52    22    49    1
    53    25    50    1
    54    25    51    1
    55    26    52    1
    56    29    53    1
    57    29    54    1
    58    29    55    1
