@<TRIPOS>MOLECULE
*****
 35 38 0 0 0
SMALL
GASTEIGER

@<TRIPOS>ATOM
      1 O           6.0508   -0.4621   -1.0351 O.2     1  UNL1       -0.2755
      2 C           4.8516   -0.1207   -0.8715 C.2     1  UNL1        0.2175
      3 C           4.5505    1.2906   -0.5942 C.3     1  UNL1        0.0283
      4 C           3.3005    1.5310    0.1624 C.3     1  UNL1       -0.0176
      5 C           2.2904    0.4618    0.0466 C.ar    1  UNL1       -0.0251
      6 C           1.0171    0.7009    0.4844 C.ar    1  UNL1       -0.0490
      7 C          -0.0109   -0.2196    0.4283 C.ar    1  UNL1       -0.0155
      8 C          -1.3485    0.0327    0.9294 C.ar    1  UNL1        0.0079
      9 C          -1.5691    0.3890    2.2571 C.ar    1  UNL1        0.0359
     10 N          -2.7884    0.5954    2.7715 N.ar    1  UNL1       -0.2620
     11 C          -3.8878    0.4644    2.0069 C.ar    1  UNL1        0.0353
     12 C          -3.7388    0.1158    0.6879 C.ar    1  UNL1        0.0008
     13 C          -4.8373   -0.0238   -0.1520 C.ar    1  UNL1       -0.0526
     14 C          -4.7083   -0.3620   -1.4784 C.ar    1  UNL1       -0.0611
     15 C          -3.4637   -0.5701   -2.0007 C.ar    1  UNL1       -0.0611
     16 C          -2.3400   -0.4393   -1.1884 C.ar    1  UNL1       -0.0534
     17 C          -2.4654   -0.1025    0.1386 C.ar    1  UNL1       -0.0073
     18 C           0.2855   -1.4509   -0.1056 C.ar    1  UNL1       -0.0522
     19 C           1.5729   -1.7460   -0.5680 C.ar    1  UNL1       -0.0396
     20 C           2.5545   -0.7849   -0.4844 C.ar    1  UNL1        0.0366
     21 N           3.8510   -1.1193   -0.9637 N.am    1  UNL1       -0.2852
     22 H           5.4060    1.6911    0.0263 H       1  UNL1        0.0362
     23 H           4.5954    1.8972   -1.5459 H       1  UNL1        0.0362
     24 H           2.8537    2.5122   -0.1479 H       1  UNL1        0.0318
     25 H           3.4958    1.6581    1.2663 H       1  UNL1        0.0318
     26 H           0.7665    1.6701    0.9096 H       1  UNL1        0.0627
     27 H          -0.7120    0.5014    2.8926 H       1  UNL1        0.0836
     28 H          -4.8804    0.6261    2.4030 H       1  UNL1        0.0836
     29 H          -5.8229    0.1518    0.3037 H       1  UNL1        0.0624
     30 H          -5.6284   -0.4469   -2.0522 H       1  UNL1        0.0618
     31 H          -3.3518   -0.8371   -3.0474 H       1  UNL1        0.0618
     32 H          -1.3507   -0.5901   -1.6047 H       1  UNL1        0.0624
     33 H          -0.4450   -2.2510   -0.1914 H       1  UNL1        0.0624
     34 H           1.8064   -2.7186   -0.9898 H       1  UNL1        0.0636
     35 H           4.1009   -2.0446   -1.3726 H       1  UNL1        0.1548
@<TRIPOS>BOND
     1     1     2    2
     2     2     3    1
     3     3     4    1
     4     4     5    1
     5     5     6   ar
     6     6     7   ar
     7     7     8    1
     8     8     9   ar
     9     9    10   ar
    10    10    11   ar
    11    11    12   ar
    12    12    13   ar
    13    13    14   ar
    14    14    15   ar
    15    15    16   ar
    16    16    17   ar
    17     7    18   ar
    18    18    19   ar
    19    19    20   ar
    20    20    21    1
    21    21     2   am
    22    20     5   ar
    23    17     8   ar
    24    17    12   ar
    25     3    22    1
    26     3    23    1
    27     4    24    1
    28     4    25    1
    29     6    26    1
    30     9    27    1
    31    11    28    1
    32    13    29    1
    33    14    30    1
    34    15    31    1
    35    16    32    1
    36    18    33    1
    37    19    34    1
    38    21    35    1
