
     RDKit          3D

 35 38  0  0  0  0  0  0  0  0999 V2000
    6.0508   -0.4621   -1.0351 O   0  0  0  0  0  0  0  0  0  0  0  0
    4.8516   -0.1207   -0.8715 C   0  0  0  0  0  0  0  0  0  0  0  0
    4.5505    1.2906   -0.5942 C   0  0  0  0  0  0  0  0  0  0  0  0
    3.3005    1.5310    0.1624 C   0  0  0  0  0  0  0  0  0  0  0  0
    2.2904    0.4618    0.0466 C   0  0  0  0  0  0  0  0  0  0  0  0
    1.0171    0.7009    0.4844 C   0  0  0  0  0  0  0  0  0  0  0  0
   -0.0109   -0.2196    0.4283 C   0  0  0  0  0  0  0  0  0  0  0  0
   -1.3485    0.0327    0.9294 C   0  0  0  0  0  0  0  0  0  0  0  0
   -1.5691    0.3890    2.2571 C   0  0  0  0  0  0  0  0  0  0  0  0
   -2.7884    0.5954    2.7715 N   0  0  0  0  0  0  0  0  0  0  0  0
   -3.8878    0.4644    2.0069 C   0  0  0  0  0  0  0  0  0  0  0  0
   -3.7388    0.1158    0.6879 C   0  0  0  0  0  0  0  0  0  0  0  0
   -4.8373   -0.0238   -0.1520 C   0  0  0  0  0  0  0  0  0  0  0  0
   -4.7083   -0.3620   -1.4784 C   0  0  0  0  0  0  0  0  0  0  0  0
   -3.4637   -0.5701   -2.0007 C   0  0  0  0  0  0  0  0  0  0  0  0
   -2.3400   -0.4393   -1.1884 C   0  0  0  0  0  0  0  0  0  0  0  0
   -2.4654   -0.1025    0.1386 C   0  0  0  0  0  0  0  0  0  0  0  0
    0.2855   -1.4509   -0.1056 C   0  0  0  0  0  0  0  0  0  0  0  0
    1.5729   -1.7460   -0.5680 C   0  0  0  0  0  0  0  0  0  0  0  0
    2.5545   -0.7849   -0.4844 C   0  0  0  0  0  0  0  0  0  0  0  0
    3.8510   -1.1193   -0.9637 N   0  0  0  0  0  0  0  0  0  0  0  0
    5.4060    1.6911    0.0263 H   0  0  0  0  0  0  0  0  0  0  0  0
    4.5954    1.8972   -1.5459 H   0  0  0  0  0  0  0  0  0  0  0  0
    2.8537    2.5122   -0.1479 H   0  0  0  0  0  0  0  0  0  0  0  0
    3.4958    1.6581    1.2663 H   0  0  0  0  0  0  0  0  0  0  0  0
    0.7665    1.6701    0.9096 H   0  0  0  0  0  0  0  0  0  0  0  0
   -0.7120    0.5014    2.8926 H   0  0  0  0  0  0  0  0  0  0  0  0
   -4.8804    0.6261    2.4030 H   0  0  0  0  0  0  0  0  0  0  0  0
   -5.8229    0.1518    0.3037 H   0  0  0  0  0  0  0  0  0  0  0  0
   -5.6284   -0.4469   -2.0522 H   0  0  0  0  0  0  0  0  0  0  0  0
   -3.3518   -0.8371   -3.0474 H   0  0  0  0  0  0  0  0  0  0  0  0
   -1.3507   -0.5901   -1.6047 H   0  0  0  0  0  0  0  0  0  0  0  0
   -0.4450   -2.2510   -0.1914 H   0  0  0  0  0  0  0  0  0  0  0  0
    1.8064   -2.7186   -0.9898 H   0  0  0  0  0  0  0  0  0  0  0  0
    4.1009   -2.0446   -1.3726 H   0  0  0  0  0  0  0  0  0  0  0  0
  1  2  2  0
  2  3  1  0
  3  4  1  0
  4  5  1  0
  5  6  2  0
  6  7  1  0
  7  8  1  0
  8  9  2  0
  9 10  1  0
 10 11  2  0
 11 12  1  0
 12 13  2  0
 13 14  1  0
 14 15  2  0
 15 16  1  0
 16 17  2  0
  7 18  2  0
 18 19  1  0
 19 20  2  0
 20 21  1  0
 21  2  1  0
 20  5  1  0
 17  8  1  0
 17 12  1  0
  3 22  1  0
  3 23  1  0
  4 24  1  0
  4 25  1  0
  6 26  1  0
  9 27  1  0
 11 28  1  0
 13 29  1  0
 14 30  1  0
 15 31  1  0
 16 32  1  0
 18 33  1  0
 19 34  1  0
 21 35  1  0
M  END
$$$$
