@<TRIPOS>MOLECULE
*****
 56 60 0 0 0
SMALL
GASTEIGER

@<TRIPOS>ATOM
      1 O          -1.2882   -2.9051   -1.1681 O.2     1  UNL1       -0.2705
      2 C          -1.9745   -1.8265   -1.2258 C.2     1  UNL1        0.2411
      3 C          -3.3160   -1.8638   -0.6258 C.2     1  UNL1        0.0011
      4 C          -4.1285   -0.8479   -0.6082 C.2     1  UNL1       -0.0469
      5 C          -5.4668   -0.7153   -0.0750 C.ar    1  UNL1        0.0146
      6 CA         -6.4234   -1.6113    0.2509 C.ar    1  UNL1        0.1325
      7 C          -6.4797   -3.0401   -0.0281 C.2     1  UNL1        0.3539
      8 O          -5.6601   -3.7413   -0.6260 O.2     1  UNL1       -0.2435
      9 OXT        -7.6129   -3.7593    0.4333 O.3     1  UNL1       -0.4761
     10 N          -7.4491   -0.9354    0.8727 N.ar    1  UNL1       -0.3486
     11 C          -7.1848    0.3642    0.9517 C.ar    1  UNL1        0.0476
     12 C          -7.8785    1.4625    1.4737 C.ar    1  UNL1       -0.0378
     13 C          -7.3619    2.7183    1.4193 C.ar    1  UNL1       -0.0598
     14 C          -6.1288    2.8864    0.8332 C.ar    1  UNL1       -0.0611
     15 C          -5.4212    1.8011    0.3064 C.ar    1  UNL1       -0.0520
     16 C          -5.9631    0.5505    0.3743 C.ar    1  UNL1        0.0076
     17 N          -1.4598   -0.6630   -1.8379 N.am    1  UNL1       -0.2820
     18 C          -0.1383   -0.7046   -2.4030 C.ar    1  UNL1        0.0342
     19 C          -0.0154   -1.0775   -3.7216 C.ar    1  UNL1       -0.0404
     20 C           1.2722   -1.1044   -4.2260 C.ar    1  UNL1       -0.0595
     21 C           2.3517   -0.7738   -3.4373 C.ar    1  UNL1       -0.0545
     22 C           2.1977   -0.4024   -2.1137 C.ar    1  UNL1       -0.0232
     23 C           3.3913   -0.0710   -1.3589 C.2     1  UNL1       -0.0525
     24 C           3.4055    0.3003   -0.0895 C.2     1  UNL1       -0.0357
     25 C           4.6889    0.6144    0.5773 C.ar    1  UNL1        0.0646
     26 C           4.6888    0.9995    1.8984 C.ar    1  UNL1       -0.0357
     27 C           5.8849    1.3037    2.5591 C.ar    1  UNL1       -0.0506
     28 C           7.0832    1.2158    1.8744 C.ar    1  UNL1        0.0005
     29 C           8.2973    1.5044    2.4763 C.ar    1  UNL1       -0.0512
     30 C           9.4971    1.4186    1.7983 C.ar    1  UNL1       -0.0427
     31 C           9.4511    1.0276    0.4719 C.ar    1  UNL1        0.0430
     32 CL         10.9764    0.9216   -0.3793 Cl      1  UNL1       -0.0835
     33 C           8.2447    0.7432   -0.1179 C.ar    1  UNL1       -0.0174
     34 C           7.0414    0.8262    0.5517 C.ar    1  UNL1        0.0730
     35 N           5.8638    0.5384   -0.0589 N.ar    1  UNL1       -0.2472
     36 C           0.9307   -0.3703   -1.5983 C.ar    1  UNL1       -0.0333
     37 H          -3.6270   -2.7558   -0.1231 H       1  UNL1        0.0670
     38 H          -3.7042    0.0654   -1.1070 H       1  UNL1        0.0626
     39 HXT        -7.5129   -4.7639    0.5909 H       1  UNL1        0.2955
     40 H          -8.3292   -1.3936    1.2380 H       1  UNL1        0.1661
     41 H          -8.8436    1.2591    1.9209 H       1  UNL1        0.0638
     42 H          -7.9299    3.5488    1.8356 H       1  UNL1        0.0618
     43 H          -5.6942    3.8648    0.7748 H       1  UNL1        0.0618
     44 H          -4.4500    1.9519   -0.1525 H       1  UNL1        0.0624
     45 H          -1.9598    0.2431   -1.9196 H       1  UNL1        0.1551
     46 H          -0.8676   -1.3390   -4.3460 H       1  UNL1        0.0636
     47 H           1.4009   -1.3955   -5.2655 H       1  UNL1        0.0618
     48 H           3.3308   -0.8176   -3.9004 H       1  UNL1        0.0623
     49 H           4.3741   -0.1172   -1.8316 H       1  UNL1        0.0624
     50 H           2.4812    0.3682    0.4392 H       1  UNL1        0.0639
     51 H           3.7610    1.0683    2.4308 H       1  UNL1        0.0639
     52 H           5.8925    1.6093    3.6049 H       1  UNL1        0.0625
     53 H           8.3329    1.8123    3.5206 H       1  UNL1        0.0625
     54 H          10.4325    1.6516    2.2983 H       1  UNL1        0.0632
     55 H           8.2147    0.4341   -1.1685 H       1  UNL1        0.0653
     56 H           0.7819   -0.0781   -0.5485 H       1  UNL1        0.0642
@<TRIPOS>BOND
     1     1     2    2
     2     2     3    1
     3     3     4    2
     4     4     5    1
     5     5     6   ar
     6     6     7    1
     7     7     8    2
     8     7     9    1
     9     6    10   ar
    10    10    11   ar
    11    11    12   ar
    12    12    13   ar
    13    13    14   ar
    14    14    15   ar
    15    15    16   ar
    16     2    17   am
    17    17    18    1
    18    18    19   ar
    19    19    20   ar
    20    20    21   ar
    21    21    22   ar
    22    22    23    1
    23    23    24    2
    24    24    25    1
    25    25    26   ar
    26    26    27   ar
    27    27    28   ar
    28    28    29   ar
    29    29    30   ar
    30    30    31   ar
    31    31    32    1
    32    31    33   ar
    33    33    34   ar
    34    34    35   ar
    35    22    36   ar
    36    16     5   ar
    37    36    18   ar
    38    16    11   ar
    39    35    25   ar
    40    34    28   ar
    41     3    37    1
    42     4    38    1
    43     9    39    1
    44    10    40    1
    45    12    41    1
    46    13    42    1
    47    14    43    1
    48    15    44    1
    49    17    45    1
    50    19    46    1
    51    20    47    1
    52    21    48    1
    53    23    49    1
    54    24    50    1
    55    26    51    1
    56    27    52    1
    57    29    53    1
    58    30    54    1
    59    33    55    1
    60    36    56    1
