@<TRIPOS>MOLECULE
*****
 34 34 0 0 0
SMALL
GASTEIGER

@<TRIPOS>ATOM
      1 C          -3.9751    0.2005    0.1093 C.3     1  UNL1        0.0000
      2 C          -2.6131   -0.1955   -0.4335 C.3     1  UNL1        0.0000
      3 C          -2.5949   -1.7071   -0.4354 C.3     1  UNL1        0.0000
      4 C          -1.4973    0.4035    0.4064 C.3     1  UNL1        0.0000
      5 N          -1.5529    1.8250    0.4335 N.3     1  UNL1        0.0000
      6 C          -0.2162   -0.2008    0.0662 C.2     1  UNL1        0.0000
      7 O          -0.1964   -1.4921    0.1135 O.2     1  UNL1        0.0000
      8 N           0.9885    0.3901   -0.3015 N.am    1  UNL1        0.0000
      9 C           1.2964    1.7867   -0.4456 C.3     1  UNL1        0.0000
     10 C           2.5384    1.8925    0.4499 C.3     1  UNL1        0.0000
     11 C           3.2457    0.5997    0.1121 C.3     1  UNL1        0.0000
     12 C           2.2646   -0.2458   -0.6425 C.3     1  UNL1        0.0000
     13 B           2.3026   -1.7582   -0.2075 B       1  UNL1        0.0000
     14 O           3.3414   -2.1699    0.7336 O.3     1  UNL1        0.0000
     15 O           1.8639   -2.7526   -1.1836 O.3     1  UNL1        0.0000
     16 H          -4.7213   -0.3694   -0.4913 H       1  UNL1        0.0000
     17 H          -4.1097   -0.1270    1.1592 H       1  UNL1        0.0000
     18 H          -4.1987    1.2670   -0.0536 H       1  UNL1        0.0000
     19 H          -2.5692    0.1593   -1.4826 H       1  UNL1        0.0000
     20 H          -3.6484   -2.0713   -0.6505 H       1  UNL1        0.0000
     21 H          -2.3734   -2.1252    0.5655 H       1  UNL1        0.0000
     22 H          -1.9586   -2.1253   -1.2434 H       1  UNL1        0.0000
     23 H          -1.7344    0.0628    1.4603 H       1  UNL1        0.0000
     24 H          -2.3678    2.2454   -0.0349 H       1  UNL1        0.0000
     25 H          -1.3064    2.2495    1.3483 H       1  UNL1        0.0000
     26 H           1.6740    1.9099   -1.4908 H       1  UNL1        0.0000
     27 H           0.5361    2.4991   -0.1725 H       1  UNL1        0.0000
     28 H           2.1469    1.8379    1.4906 H       1  UNL1        0.0000
     29 H           3.1257    2.7849    0.2434 H       1  UNL1        0.0000
     30 H           3.6788    0.0965    0.9905 H       1  UNL1        0.0000
     31 H           4.0577    0.8812   -0.6206 H       1  UNL1        0.0000
     32 H           2.3583   -0.1622   -1.7451 H       1  UNL1        0.0000
     33 H           4.2376   -1.9088    0.4531 H       1  UNL1        0.0000
     34 H           1.9772   -3.6804   -0.8614 H       1  UNL1        0.0000
@<TRIPOS>BOND
     1     1     2    1
     2     2     3    1
     3     2     4    1
     4     4     5    1
     5     4     6    1
     6     6     7    2
     7     6     8   am
     8     8     9    1
     9     9    10    1
    10    10    11    1
    11    11    12    1
    12    12    13    1
    13    13    14    1
    14    13    15    1
    15    12     8    1
    16     1    16    1
    17     1    17    1
    18     1    18    1
    19     2    19    1
    20     3    20    1
    21     3    21    1
    22     3    22    1
    23     4    23    1
    24     5    24    1
    25     5    25    1
    26     9    26    1
    27     9    27    1
    28    10    28    1
    29    10    29    1
    30    11    30    1
    31    11    31    1
    32    12    32    1
    33    14    33    1
    34    15    34    1
