
     RDKit          3D

 34 34  0  0  0  0  0  0  0  0999 V2000
   -3.9751    0.2005    0.1093 C   0  0  0  0  0  0  0  0  0  0  0  0
   -2.6131   -0.1955   -0.4335 C   0  0  0  0  0  0  0  0  0  0  0  0
   -2.5949   -1.7071   -0.4354 C   0  0  0  0  0  0  0  0  0  0  0  0
   -1.4973    0.4035    0.4064 C   0  0  2  0  0  0  0  0  0  0  0  0
   -1.5529    1.8250    0.4335 N   0  0  0  0  0  0  0  0  0  0  0  0
   -0.2162   -0.2008    0.0662 C   0  0  0  0  0  0  0  0  0  0  0  0
   -0.1964   -1.4921    0.1135 O   0  0  0  0  0  0  0  0  0  0  0  0
    0.9885    0.3901   -0.3015 N   0  0  0  0  0  0  0  0  0  0  0  0
    1.2964    1.7867   -0.4456 C   0  0  0  0  0  0  0  0  0  0  0  0
    2.5384    1.8925    0.4499 C   0  0  0  0  0  0  0  0  0  0  0  0
    3.2457    0.5997    0.1121 C   0  0  0  0  0  0  0  0  0  0  0  0
    2.2646   -0.2458   -0.6425 C   0  0  1  0  0  0  0  0  0  0  0  0
    2.3026   -1.7582   -0.2075 B   0  0  0  0  0  0  0  0  0  0  0  0
    3.3414   -2.1699    0.7336 O   0  0  0  0  0  0  0  0  0  0  0  0
    1.8639   -2.7526   -1.1836 O   0  0  0  0  0  0  0  0  0  0  0  0
   -4.7213   -0.3694   -0.4913 H   0  0  0  0  0  0  0  0  0  0  0  0
   -4.1097   -0.1270    1.1592 H   0  0  0  0  0  0  0  0  0  0  0  0
   -4.1987    1.2670   -0.0536 H   0  0  0  0  0  0  0  0  0  0  0  0
   -2.5692    0.1593   -1.4826 H   0  0  0  0  0  0  0  0  0  0  0  0
   -3.6484   -2.0713   -0.6505 H   0  0  0  0  0  0  0  0  0  0  0  0
   -2.3734   -2.1252    0.5655 H   0  0  0  0  0  0  0  0  0  0  0  0
   -1.9586   -2.1253   -1.2434 H   0  0  0  0  0  0  0  0  0  0  0  0
   -1.7344    0.0628    1.4603 H   0  0  0  0  0  0  0  0  0  0  0  0
   -2.3678    2.2454   -0.0349 H   0  0  0  0  0  0  0  0  0  0  0  0
   -1.3064    2.2495    1.3483 H   0  0  0  0  0  0  0  0  0  0  0  0
    1.6740    1.9099   -1.4908 H   0  0  0  0  0  0  0  0  0  0  0  0
    0.5361    2.4991   -0.1725 H   0  0  0  0  0  0  0  0  0  0  0  0
    2.1469    1.8379    1.4906 H   0  0  0  0  0  0  0  0  0  0  0  0
    3.1257    2.7849    0.2434 H   0  0  0  0  0  0  0  0  0  0  0  0
    3.6788    0.0965    0.9905 H   0  0  0  0  0  0  0  0  0  0  0  0
    4.0577    0.8812   -0.6206 H   0  0  0  0  0  0  0  0  0  0  0  0
    2.3583   -0.1622   -1.7451 H   0  0  0  0  0  0  0  0  0  0  0  0
    4.2376   -1.9088    0.4531 H   0  0  0  0  0  0  0  0  0  0  0  0
    1.9772   -3.6804   -0.8614 H   0  0  0  0  0  0  0  0  0  0  0  0
  1  2  1  0
  2  3  1  0
  2  4  1  0
  4  5  1  0
  4  6  1  0
  6  7  2  0
  6  8  1  0
  8  9  1  0
  9 10  1  0
 10 11  1  0
 11 12  1  0
 12 13  1  0
 13 14  1  0
 13 15  1  0
 12  8  1  0
  1 16  1  0
  1 17  1  0
  1 18  1  0
  2 19  1  0
  3 20  1  0
  3 21  1  0
  3 22  1  0
  4 23  1  1
  5 24  1  0
  5 25  1  0
  9 26  1  0
  9 27  1  0
 10 28  1  0
 10 29  1  0
 11 30  1  0
 11 31  1  0
 12 32  1  6
 14 33  1  0
 15 34  1  0
M  END
$$$$
