@<TRIPOS>MOLECULE
*****
 50 51 0 0 0
SMALL
GASTEIGER

@<TRIPOS>ATOM
      1 C          -1.4646   -3.4763   -0.9269 C.3     1  UNL1        0.0788
      2 O          -2.2425   -2.4014   -0.4562 O.3     1  UNL1       -0.4947
      3 C          -1.6148   -1.2279   -0.0867 C.ar    1  UNL1        0.1285
      4 C          -0.2215   -1.1797   -0.2020 C.ar    1  UNL1       -0.0116
      5 C           0.5222   -0.0734    0.1360 C.ar    1  UNL1       -0.0093
      6 C           1.9864   -0.0820   -0.0107 C.ar    1  UNL1        0.0019
      7 C           2.5692   -0.5649   -1.1846 C.ar    1  UNL1       -0.0443
      8 C           3.9170   -0.5780   -1.3411 C.ar    1  UNL1        0.0146
      9 C           4.5106   -1.0990   -2.6049 C.3     1  UNL1       -0.0346
     10 C           4.7131   -0.1056   -0.3207 C.ar    1  UNL1        0.2542
     11 O           5.9602   -0.1192   -0.4692 O.2     1  UNL1       -0.2674
     12 N           4.1758    0.3634    0.8170 N.ar    1  UNL1       -0.3149
     13 C           5.0454    0.8610    1.8885 C.3     1  UNL1        0.0150
     14 C           2.8364    0.3752    0.9699 C.ar    1  UNL1        0.0263
     15 C           2.2663    0.9035    2.2583 C.3     1  UNL1       -0.0236
     16 C          -0.1854    1.0114    0.6045 C.ar    1  UNL1       -0.0116
     17 C          -1.5533    1.0115    0.7348 C.ar    1  UNL1        0.1285
     18 O          -2.2455    2.1342    1.2160 O.3     1  UNL1       -0.4947
     19 C          -1.4816    3.2744    1.5651 C.3     1  UNL1        0.0788
     20 C          -2.2817   -0.1289    0.3823 C.ar    1  UNL1        0.0497
     21 C          -3.7398   -0.1102    0.4985 C.3     1  UNL1        0.0304
     22 N          -4.3717    0.1785   -0.7253 N.3     1  UNL1       -0.3039
     23 C          -4.1945   -0.6742   -1.8336 C.3     1  UNL1       -0.0127
     24 C          -5.6252    0.8599   -0.6332 C.3     1  UNL1       -0.0127
     25 H          -2.1594   -4.3509   -1.0507 H       1  UNL1        0.0660
     26 H          -0.9690   -3.2131   -1.8839 H       1  UNL1        0.0660
     27 H          -0.7357   -3.7320   -0.1205 H       1  UNL1        0.0660
     28 H           0.3467   -2.0359   -0.5729 H       1  UNL1        0.0660
     29 H           1.9085   -0.9315   -1.9728 H       1  UNL1        0.0628
     30 H           5.5092   -0.6745   -2.7113 H       1  UNL1        0.0279
     31 H           4.5455   -2.2031   -2.6172 H       1  UNL1        0.0279
     32 H           3.8127   -0.8040   -3.4240 H       1  UNL1        0.0279
     33 H           6.0589    0.9756    1.4871 H       1  UNL1        0.0457
     34 H           4.7022    1.8530    2.2404 H       1  UNL1        0.0457
     35 H           5.0915    0.1592    2.7373 H       1  UNL1        0.0457
     36 H           1.3138    0.4397    2.5172 H       1  UNL1        0.0292
     37 H           2.2983    1.9968    2.2818 H       1  UNL1        0.0292
     38 H           2.9922    0.5632    3.0512 H       1  UNL1        0.0292
     39 H           0.3610    1.9042    0.8806 H       1  UNL1        0.0660
     40 H          -2.1083    4.1069    1.9178 H       1  UNL1        0.0660
     41 H          -0.7519    3.0062    2.3769 H       1  UNL1        0.0660
     42 H          -0.9560    3.6082    0.6566 H       1  UNL1        0.0660
     43 H          -4.0486    0.6653    1.2626 H       1  UNL1        0.0478
     44 H          -4.1366   -1.0664    0.9585 H       1  UNL1        0.0478
     45 H          -4.5236   -1.7232   -1.7134 H       1  UNL1        0.0391
     46 H          -4.8614   -0.2818   -2.6623 H       1  UNL1        0.0391
     47 H          -3.1524   -0.5758   -2.2193 H       1  UNL1        0.0391
     48 H          -6.1572    0.4950    0.2710 H       1  UNL1        0.0391
     49 H          -6.2704    0.7184   -1.5163 H       1  UNL1        0.0391
     50 H          -5.3903    1.9478   -0.4503 H       1  UNL1        0.0391
@<TRIPOS>BOND
     1     1     2    1
     2     2     3    1
     3     3     4   ar
     4     4     5   ar
     5     5     6    1
     6     6     7   ar
     7     7     8   ar
     8     8     9    1
     9     8    10   ar
    10    10    11    2
    11    10    12   ar
    12    12    13    1
    13    12    14   ar
    14    14    15    1
    15     5    16   ar
    16    16    17   ar
    17    17    18    1
    18    18    19    1
    19    17    20   ar
    20    20    21    1
    21    21    22    1
    22    22    23    1
    23    22    24    1
    24    20     3   ar
    25    14     6   ar
    26     1    25    1
    27     1    26    1
    28     1    27    1
    29     4    28    1
    30     7    29    1
    31     9    30    1
    32     9    31    1
    33     9    32    1
    34    13    33    1
    35    13    34    1
    36    13    35    1
    37    15    36    1
    38    15    37    1
    39    15    38    1
    40    16    39    1
    41    19    40    1
    42    19    41    1
    43    19    42    1
    44    21    43    1
    45    21    44    1
    46    23    45    1
    47    23    46    1
    48    23    47    1
    49    24    48    1
    50    24    49    1
    51    24    50    1
