
     RDKit          3D

 59 61  0  0  0  0  0  0  0  0999 V2000
   -6.0049    0.0823    1.3405 C   0  0  2  0  0  0  0  0  0  0  0  0
   -6.8692    0.8294    0.3586 C   0  0  0  0  0  0  0  0  0  0  0  0
   -8.3103    0.8499    0.7540 C   0  0  0  0  0  0  0  0  0  0  0  0
   -8.9010    2.0249    1.2256 O   0  0  0  0  0  0  0  0  0  0  0  0
   -8.9535   -0.2184    0.6445 O   0  0  0  0  0  0  0  0  0  0  0  0
   -4.6354    0.1356    0.8449 N   0  0  0  0  0  0  0  0  0  0  0  0
   -3.4658    0.6979    1.3752 C   0  0  0  0  0  0  0  0  0  0  0  0
   -3.6479    1.2591    2.4920 O   0  0  0  0  0  0  0  0  0  0  0  0
   -2.1846    0.5913    0.6240 C   0  0  1  0  0  0  0  0  0  0  0  0
   -1.8018   -0.8728    0.4330 C   0  0  0  0  0  0  0  0  0  0  0  0
   -0.4720   -0.8573   -0.3361 C   0  0  0  0  0  0  0  0  0  0  0  0
   -0.0078   -2.2749   -0.5945 C   0  0  0  0  0  0  0  0  0  0  0  0
    1.3053   -2.2106   -1.3343 C   0  0  0  0  0  0  0  0  0  0  0  0
    2.3214   -1.5129   -0.5314 N   0  0  0  0  0  0  0  0  0  0  0  0
    3.5252   -1.4943   -1.2639 C   0  0  0  0  0  0  0  0  0  0  0  0
    3.4007   -2.0734   -2.3962 O   0  0  0  0  0  0  0  0  0  0  0  0
    4.7795   -0.8991   -0.8187 C   0  0  0  0  0  0  0  0  0  0  0  0
    4.9490   -0.2719    0.3734 N   0  0  0  0  0  0  0  0  0  0  0  0
    6.1529    0.2368    0.6871 C   0  0  0  0  0  0  0  0  0  0  0  0
    7.2555    0.1489   -0.1701 C   0  0  0  0  0  0  0  0  0  0  0  0
    8.4932    0.6658    0.1421 C   0  0  0  0  0  0  0  0  0  0  0  0
    8.6201    1.2890    1.3539 C   0  0  0  0  0  0  0  0  0  0  0  0
    7.5508    1.4056    2.2495 C   0  0  0  0  0  0  0  0  0  0  0  0
    6.3076    0.8700    1.9023 C   0  0  0  0  0  0  0  0  0  0  0  0
    5.2666    1.0012    2.8108 O   0  0  0  0  0  0  0  0  0  0  0  0
    7.1036   -0.4840   -1.3856 C   0  0  0  0  0  0  0  0  0  0  0  0
    5.8605   -0.9992   -1.6885 C   0  0  0  0  0  0  0  0  0  0  0  0
   -2.2653    1.2898   -0.6832 C   0  0  0  0  0  0  0  0  0  0  0  0
   -1.6157    2.4261   -1.2602 C   0  0  0  0  0  0  0  0  0  0  0  0
   -1.9789    2.7527   -2.5172 C   0  0  0  0  0  0  0  0  0  0  0  0
   -2.9540    2.0131   -3.2385 C   0  0  0  0  0  0  0  0  0  0  0  0
   -3.4134    0.6751   -1.9528 S   0  0  0  0  0  0  0  0  0  0  0  0
   -6.4553   -1.3433    1.4706 C   0  0  0  0  0  0  0  0  0  0  0  0
   -6.1427   -2.5125    1.3260 O   0  0  0  0  0  0  0  0  0  0  0  0
   -6.1179    0.5796    2.3232 H   0  0  0  0  0  0  0  0  0  0  0  0
   -6.5362    1.8651    0.2177 H   0  0  0  0  0  0  0  0  0  0  0  0
   -6.7964    0.3188   -0.6342 H   0  0  0  0  0  0  0  0  0  0  0  0
   -9.6751    1.8613    1.8862 H   0  0  0  0  0  0  0  0  0  0  0  0
   -4.7029   -0.3740   -0.0574 H   0  0  0  0  0  0  0  0  0  0  0  0
   -1.4008    1.0487    1.2507 H   0  0  0  0  0  0  0  0  0  0  0  0
   -2.5688   -1.4342   -0.1406 H   0  0  0  0  0  0  0  0  0  0  0  0
   -1.6623   -1.2898    1.4277 H   0  0  0  0  0  0  0  0  0  0  0  0
    0.2782   -0.3370    0.2669 H   0  0  0  0  0  0  0  0  0  0  0  0
   -0.5574   -0.3311   -1.2852 H   0  0  0  0  0  0  0  0  0  0  0  0
    0.1012   -2.8413    0.3380 H   0  0  0  0  0  0  0  0  0  0  0  0
   -0.7144   -2.8038   -1.2792 H   0  0  0  0  0  0  0  0  0  0  0  0
    1.1667   -1.7148   -2.3211 H   0  0  0  0  0  0  0  0  0  0  0  0
    1.6888   -3.2244   -1.5078 H   0  0  0  0  0  0  0  0  0  0  0  0
    2.3195   -1.0555    0.4230 H   0  0  0  0  0  0  0  0  0  0  0  0
    9.3184    0.5653   -0.5704 H   0  0  0  0  0  0  0  0  0  0  0  0
    9.6204    1.6891    1.5707 H   0  0  0  0  0  0  0  0  0  0  0  0
    7.7536    1.9247    3.1996 H   0  0  0  0  0  0  0  0  0  0  0  0
    5.2005    1.8299    3.3811 H   0  0  0  0  0  0  0  0  0  0  0  0
    7.9464   -0.5568   -2.0505 H   0  0  0  0  0  0  0  0  0  0  0  0
    5.7567   -1.4929   -2.6438 H   0  0  0  0  0  0  0  0  0  0  0  0
   -0.8895    2.9366   -0.6568 H   0  0  0  0  0  0  0  0  0  0  0  0
   -1.5486    3.5913   -3.0410 H   0  0  0  0  0  0  0  0  0  0  0  0
   -3.3374    2.1151   -4.1673 H   0  0  0  0  0  0  0  0  0  0  0  0
   -7.4553   -1.5423    1.8338 H   0  0  0  0  0  0  0  0  0  0  0  0
  1  2  1  0
  2  3  1  0
  3  4  1  0
  3  5  2  0
  1  6  1  0
  6  7  1  0
  7  8  2  0
  7  9  1  0
  9 10  1  0
 10 11  1  0
 11 12  1  0
 12 13  1  0
 13 14  1  0
 14 15  1  0
 15 16  2  0
 15 17  1  0
 17 18  2  0
 18 19  1  0
 19 20  2  0
 20 21  1  0
 21 22  2  0
 22 23  1  0
 23 24  2  0
 24 25  1  0
 20 26  1  0
 26 27  2  0
  9 28  1  0
 28 29  2  0
 29 30  1  0
 30 31  2  0
 31 32  1  0
  1 33  1  0
 33 34  2  0
 27 17  1  0
 32 28  1  0
 24 19  1  0
  1 35  1  1
  2 36  1  0
  2 37  1  0
  4 38  1  0
  6 39  1  0
  9 40  1  1
 10 41  1  0
 10 42  1  0
 11 43  1  0
 11 44  1  0
 12 45  1  0
 12 46  1  0
 13 47  1  0
 13 48  1  0
 14 49  1  0
 21 50  1  0
 22 51  1  0
 23 52  1  0
 25 53  1  0
 26 54  1  0
 27 55  1  0
 29 56  1  0
 30 57  1  0
 31 58  1  0
 33 59  1  0
M  END
$$$$
