@<TRIPOS>MOLECULE
*****
 59 61 0 0 0
SMALL
GASTEIGER

@<TRIPOS>ATOM
      1 CA         -6.0049    0.0823    1.3405 C.3     1  ASP1        0.0884
      2 CB         -6.8692    0.8294    0.3586 C.3     1  ASP1        0.0697
      3 CG         -8.3103    0.8499    0.7540 C.2     1  ASP1        0.3069
      4 OD1        -8.9010    2.0249    1.2256 O.3     1  ASP1       -0.4806
      5 OD2        -8.9535   -0.2184    0.6445 O.2     1  ASP1       -0.2509
      6 N          -4.6354    0.1356    0.8449 N.am    1  ASP1       -0.3049
      7 C          -3.4658    0.6979    1.3752 C.2     0  UNK0        0.2215
      8 O          -3.6479    1.2591    2.4920 O.2     0  UNK0       -0.2751
      9 C          -2.1846    0.5913    0.6240 C.3     0  UNK0        0.0667
     10 C          -1.8018   -0.8728    0.4330 C.3     0  UNK0       -0.0373
     11 C          -0.4720   -0.8573   -0.3361 C.3     0  UNK0       -0.0506
     12 C          -0.0078   -2.2749   -0.5945 C.3     0  UNK0       -0.0373
     13 C           1.3053   -2.2106   -1.3343 C.3     0  UNK0        0.0119
     14 N           2.3214   -1.5129   -0.5314 N.am    0  UNK0       -0.3101
     15 C           3.5252   -1.4943   -1.2639 C.2     0  UNK0        0.2624
     16 O           3.4007   -2.0734   -2.3962 O.2     0  UNK0       -0.2685
     17 C           4.7795   -0.8991   -0.8187 C.ar    0  UNK0        0.1262
     18 N           4.9490   -0.2719    0.3734 N.ar    0  UNK0       -0.2384
     19 C           6.1529    0.2368    0.6871 C.ar    0  UNK0        0.1131
     20 C           7.2555    0.1489   -0.1701 C.ar    0  UNK0        0.0040
     21 C           8.4932    0.6658    0.1421 C.ar    0  UNK0       -0.0523
     22 C           8.6201    1.2890    1.3539 C.ar    0  UNK0       -0.0576
     23 C           7.5508    1.4056    2.2495 C.ar    0  UNK0       -0.0180
     24 C           6.3076    0.8700    1.9023 C.ar    0  UNK0        0.1427
     25 O           5.2666    1.0012    2.8108 O.3     0  UNK0       -0.5046
     26 C           7.1036   -0.4840   -1.3856 C.ar    0  UNK0       -0.0503
     27 C           5.8605   -0.9992   -1.6885 C.ar    0  UNK0       -0.0306
     28 C          -2.2653    1.2898   -0.6832 C.ar    0  UNK0        0.0016
     29 C          -1.6157    2.4261   -1.2602 C.ar    0  UNK0       -0.0508
     30 C          -1.9789    2.7527   -2.5172 C.ar    0  UNK0       -0.0544
     31 C          -2.9540    2.0131   -3.2385 C.ar    0  UNK0       -0.0240
     32 S          -3.4134    0.6751   -1.9528 S.2     0  UNK0       -0.1008
     33 C          -6.4553   -1.3433    1.4706 C.2     1  ASP1        0.1409
     34 O          -6.1427   -2.5125    1.3260 O.2     1  ASP1       -0.2991
     35 HA         -6.1179    0.5796    2.3232 H       1  ASP1        0.0580
     36 HB1        -6.5362    1.8651    0.2177 H       1  ASP1        0.0400
     37 HB2        -6.7964    0.3188   -0.6342 H       1  ASP1        0.0400
     38 HD1        -9.6751    1.8613    1.8862 H       1  ASP1        0.2951
     39 H          -4.7029   -0.3740   -0.0574 H       1  ASP1        0.1494
     40 H          -1.4008    1.0487    1.2507 H       0  UNK0        0.0448
     41 H          -2.5688   -1.4342   -0.1406 H       0  UNK0        0.0276
     42 H          -1.6623   -1.2898    1.4277 H       0  UNK0        0.0276
     43 H           0.2782   -0.3370    0.2669 H       0  UNK0        0.0266
     44 H          -0.5574   -0.3311   -1.2852 H       0  UNK0        0.0266
     45 H           0.1012   -2.8413    0.3380 H       0  UNK0        0.0280
     46 H          -0.7144   -2.8038   -1.2792 H       0  UNK0        0.0280
     47 H           1.1667   -1.7148   -2.3211 H       0  UNK0        0.0462
     48 H           1.6888   -3.2244   -1.5078 H       0  UNK0        0.0462
     49 H           2.3195   -1.0555    0.4230 H       0  UNK0        0.1490
     50 H           9.3184    0.5653   -0.5704 H       0  UNK0        0.0624
     51 H           9.6204    1.6891    1.5707 H       0  UNK0        0.0619
     52 H           7.7536    1.9247    3.1996 H       0  UNK0        0.0655
     53 H           5.2005    1.8299    3.3811 H       0  UNK0        0.2922
     54 H           7.9464   -0.5568   -2.0505 H       0  UNK0        0.0625
     55 H           5.7567   -1.4929   -2.6438 H       0  UNK0        0.0641
     56 H          -0.8895    2.9366   -0.6568 H       0  UNK0        0.0626
     57 H          -1.5486    3.5913   -3.0410 H       0  UNK0        0.0623
     58 H          -3.3374    2.1151   -4.1673 H       0  UNK0        0.0693
     59 H          -7.4553   -1.5423    1.8338 H       1  ASP1        0.1046
@<TRIPOS>BOND
     1     1     2    1
     2     2     3    1
     3     3     4    1
     4     3     5    2
     5     1     6    1
     6     6     7   am
     7     7     8    2
     8     7     9    1
     9     9    10    1
    10    10    11    1
    11    11    12    1
    12    12    13    1
    13    13    14    1
    14    14    15   am
    15    15    16    2
    16    15    17    1
    17    17    18   ar
    18    18    19   ar
    19    19    20   ar
    20    20    21   ar
    21    21    22   ar
    22    22    23   ar
    23    23    24   ar
    24    24    25    1
    25    20    26   ar
    26    26    27   ar
    27     9    28    1
    28    28    29   ar
    29    29    30   ar
    30    30    31   ar
    31    31    32   ar
    32     1    33    1
    33    33    34    2
    34    27    17   ar
    35    32    28   ar
    36    24    19   ar
    37     1    35    1
    38     2    36    1
    39     2    37    1
    40     4    38    1
    41     6    39    1
    42     9    40    1
    43    10    41    1
    44    10    42    1
    45    11    43    1
    46    11    44    1
    47    12    45    1
    48    12    46    1
    49    13    47    1
    50    13    48    1
    51    14    49    1
    52    21    50    1
    53    22    51    1
    54    23    52    1
    55    25    53    1
    56    26    54    1
    57    27    55    1
    58    29    56    1
    59    30    57    1
    60    31    58    1
    61    33    59    1
