@<TRIPOS>MOLECULE
*****
 35 37 0 0 0
SMALL
GASTEIGER

@<TRIPOS>ATOM
      1 C           5.7983    1.7887    1.2484 C.3     1  UNL1       -0.0397
      2 C           4.5583    1.0678    0.8257 C.ar    1  UNL1       -0.0503
      3 C           3.9579    0.1069    1.6084 C.ar    1  UNL1       -0.0569
      4 C           2.8141   -0.5169    1.1522 C.ar    1  UNL1       -0.0369
      5 C           2.2486   -0.2095   -0.0675 C.ar    1  UNL1        0.0583
      6 N           1.0256   -0.8986   -0.5197 N.ar    1  UNL1       -0.2273
      7 S           0.7081   -2.5749   -0.4904 S.2     1  UNL1        0.0597
      8 C          -0.8948   -2.4756   -1.1814 C.ar    1  UNL1        0.3113
      9 O          -1.7041   -3.4431   -1.4307 O.2     1  UNL1       -0.2578
     10 N          -1.0370   -1.1697   -1.3698 N.ar    1  UNL1       -0.2489
     11 C          -2.3125   -0.6955   -1.9593 C.3     1  UNL1        0.0565
     12 C          -3.3141   -0.4019   -0.9154 C.ar    1  UNL1       -0.0274
     13 C          -3.3913    0.8583   -0.3676 C.ar    1  UNL1       -0.0555
     14 C          -4.3140    1.1910    0.6174 C.ar    1  UNL1       -0.0431
     15 C          -5.2002    0.2432    1.0850 C.ar    1  UNL1        0.0410
     16 CL         -6.3818    0.6164    2.3265 Cl      1  UNL1       -0.0835
     17 C          -5.1297   -1.0203    0.5422 C.ar    1  UNL1       -0.0431
     18 C          -4.2068   -1.3508   -0.4422 C.ar    1  UNL1       -0.0555
     19 C          -0.0596   -0.3847   -1.0313 C.ar    1  UNL1        0.3435
     20 O          -0.1078    0.8981   -1.1776 O.2     1  UNL1       -0.2453
     21 C           2.8575    0.7446   -0.8285 C.ar    1  UNL1       -0.0369
     22 C           4.0158    1.4021   -0.4079 C.ar    1  UNL1       -0.0569
     23 H           6.6920    1.2005    0.9495 H       1  UNL1        0.0278
     24 H           5.7981    2.7866    0.7880 H       1  UNL1        0.0278
     25 H           5.8224    1.8768    2.3495 H       1  UNL1        0.0278
     26 H           4.3917   -0.1367    2.5565 H       1  UNL1        0.0621
     27 H           2.3028   -1.2867    1.7405 H       1  UNL1        0.0638
     28 H          -2.1306    0.2675   -2.5016 H       1  UNL1        0.0544
     29 H          -2.6732   -1.3965   -2.7393 H       1  UNL1        0.0544
     30 H          -2.7071    1.6497   -0.7067 H       1  UNL1        0.0621
     31 H          -4.3510    2.2026    1.0339 H       1  UNL1        0.0632
     32 H          -5.8185   -1.7604    0.9042 H       1  UNL1        0.0632
     33 H          -4.1533   -2.3368   -0.8650 H       1  UNL1        0.0621
     34 H           2.4504    1.0133   -1.7827 H       1  UNL1        0.0638
     35 H           4.4457    2.1442   -1.0556 H       1  UNL1        0.0621
@<TRIPOS>BOND
     1     1     2    1
     2     2     3   ar
     3     3     4   ar
     4     4     5   ar
     5     5     6    1
     6     6     7   ar
     7     7     8   ar
     8     8     9    2
     9     8    10   ar
    10    10    11    1
    11    11    12    1
    12    12    13   ar
    13    13    14   ar
    14    14    15   ar
    15    15    16    1
    16    15    17   ar
    17    17    18   ar
    18    10    19   ar
    19    19    20    2
    20     5    21   ar
    21    21    22   ar
    22    22     2   ar
    23    19     6   ar
    24    18    12   ar
    25     1    23    1
    26     1    24    1
    27     1    25    1
    28     3    26    1
    29     4    27    1
    30    11    28    1
    31    11    29    1
    32    13    30    1
    33    14    31    1
    34    17    32    1
    35    18    33    1
    36    21    34    1
    37    22    35    1
