
     RDKit          3D

 35 37  0  0  0  0  0  0  0  0999 V2000
    5.7983    1.7887    1.2484 C   0  0  0  0  0  0  0  0  0  0  0  0
    4.5583    1.0678    0.8257 C   0  0  0  0  0  0  0  0  0  0  0  0
    3.9579    0.1069    1.6084 C   0  0  0  0  0  0  0  0  0  0  0  0
    2.8141   -0.5169    1.1522 C   0  0  0  0  0  0  0  0  0  0  0  0
    2.2486   -0.2095   -0.0675 C   0  0  0  0  0  0  0  0  0  0  0  0
    1.0256   -0.8986   -0.5197 N   0  0  0  0  0  0  0  0  0  0  0  0
    0.7081   -2.5749   -0.4904 S   0  0  0  0  0  0  0  0  0  0  0  0
   -0.8948   -2.4756   -1.1814 C   0  0  0  0  0  0  0  0  0  0  0  0
   -1.7041   -3.4431   -1.4307 O   0  0  0  0  0  0  0  0  0  0  0  0
   -1.0370   -1.1697   -1.3698 N   0  0  0  0  0  0  0  0  0  0  0  0
   -2.3125   -0.6955   -1.9593 C   0  0  0  0  0  0  0  0  0  0  0  0
   -3.3141   -0.4019   -0.9154 C   0  0  0  0  0  0  0  0  0  0  0  0
   -3.3913    0.8583   -0.3676 C   0  0  0  0  0  0  0  0  0  0  0  0
   -4.3140    1.1910    0.6174 C   0  0  0  0  0  0  0  0  0  0  0  0
   -5.2002    0.2432    1.0850 C   0  0  0  0  0  0  0  0  0  0  0  0
   -6.3818    0.6164    2.3265 Cl  0  0  0  0  0  0  0  0  0  0  0  0
   -5.1297   -1.0203    0.5422 C   0  0  0  0  0  0  0  0  0  0  0  0
   -4.2068   -1.3508   -0.4422 C   0  0  0  0  0  0  0  0  0  0  0  0
   -0.0596   -0.3847   -1.0313 C   0  0  0  0  0  0  0  0  0  0  0  0
   -0.1078    0.8981   -1.1776 O   0  0  0  0  0  0  0  0  0  0  0  0
    2.8575    0.7446   -0.8285 C   0  0  0  0  0  0  0  0  0  0  0  0
    4.0158    1.4021   -0.4079 C   0  0  0  0  0  0  0  0  0  0  0  0
    6.6920    1.2005    0.9495 H   0  0  0  0  0  0  0  0  0  0  0  0
    5.7981    2.7866    0.7880 H   0  0  0  0  0  0  0  0  0  0  0  0
    5.8224    1.8768    2.3495 H   0  0  0  0  0  0  0  0  0  0  0  0
    4.3917   -0.1367    2.5565 H   0  0  0  0  0  0  0  0  0  0  0  0
    2.3028   -1.2867    1.7405 H   0  0  0  0  0  0  0  0  0  0  0  0
   -2.1306    0.2675   -2.5016 H   0  0  0  0  0  0  0  0  0  0  0  0
   -2.6732   -1.3965   -2.7393 H   0  0  0  0  0  0  0  0  0  0  0  0
   -2.7071    1.6497   -0.7067 H   0  0  0  0  0  0  0  0  0  0  0  0
   -4.3510    2.2026    1.0339 H   0  0  0  0  0  0  0  0  0  0  0  0
   -5.8185   -1.7604    0.9042 H   0  0  0  0  0  0  0  0  0  0  0  0
   -4.1533   -2.3368   -0.8650 H   0  0  0  0  0  0  0  0  0  0  0  0
    2.4504    1.0133   -1.7827 H   0  0  0  0  0  0  0  0  0  0  0  0
    4.4457    2.1442   -1.0556 H   0  0  0  0  0  0  0  0  0  0  0  0
  1  2  1  0
  2  3  2  0
  3  4  1  0
  4  5  2  0
  5  6  1  0
  6  7  1  0
  7  8  1  0
  8  9  2  0
  8 10  1  0
 10 11  1  0
 11 12  1  0
 12 13  2  0
 13 14  1  0
 14 15  2  0
 15 16  1  0
 15 17  1  0
 17 18  2  0
 10 19  1  0
 19 20  2  0
  5 21  1  0
 21 22  2  0
 22  2  1  0
 19  6  1  0
 18 12  1  0
  1 23  1  0
  1 24  1  0
  1 25  1  0
  3 26  1  0
  4 27  1  0
 11 28  1  0
 11 29  1  0
 13 30  1  0
 14 31  1  0
 17 32  1  0
 18 33  1  0
 21 34  1  0
 22 35  1  0
M  END
$$$$
