
     RDKit          3D

 46 50  0  0  0  0  0  0  0  0999 V2000
    8.5536    2.9686   -1.0831 N   0  0  0  0  0  0  0  0  0  0  0  0
    7.5239    2.4560   -1.1396 C   0  0  0  0  0  0  0  0  0  0  0  0
    6.2291    1.8105   -1.1909 C   0  0  0  0  0  0  0  0  0  0  0  0
    5.1363    2.2930   -0.5004 C   0  0  0  0  0  0  0  0  0  0  0  0
    3.9424    1.6533   -0.5800 N   0  0  0  0  0  0  0  0  0  0  0  0
    3.8354    0.5469   -1.3369 C   0  0  0  0  0  0  0  0  0  0  0  0
    2.6025   -0.1295   -1.4303 C   0  0  0  0  0  0  0  0  0  0  0  0
    1.5181    0.3753   -0.7090 N   0  0  0  0  0  0  0  0  0  0  0  0
    0.1947   -0.1085   -0.7085 C   0  0  0  0  0  0  0  0  0  0  0  0
   -0.2634   -0.8781   -1.7410 C   0  0  0  0  0  0  0  0  0  0  0  0
   -1.5843   -1.3381   -1.6660 C   0  0  0  0  0  0  0  0  0  0  0  0
   -2.3944   -1.0298   -0.5965 C   0  0  0  0  0  0  0  0  0  0  0  0
   -3.6710   -1.4994   -0.5670 F   0  0  0  0  0  0  0  0  0  0  0  0
   -1.9481   -0.2530    0.4554 C   0  0  0  0  0  0  0  0  0  0  0  0
   -2.8671    0.0569    1.5893 C   0  0  1  0  0  0  0  0  0  0  0  0
   -2.1136    0.9801    2.5320 C   0  0  0  0  0  0  0  0  0  0  0  0
   -2.9121    1.3292    3.6252 F   0  0  0  0  0  0  0  0  0  0  0  0
   -3.9999    0.7633    1.0807 N   0  0  0  0  0  0  0  0  0  0  0  0
   -5.2194    0.4216    1.1096 C   0  0  0  0  0  0  0  0  0  0  0  0
   -6.2144    1.2895    0.5333 N   0  0  0  0  0  0  0  0  0  0  0  0
   -5.5536   -0.7898    1.7021 O   0  0  0  0  0  0  0  0  0  0  0  0
   -4.5926   -1.6977    2.1649 C   0  0  2  0  0  0  0  0  0  0  0  0
   -3.9633   -1.3507    3.5117 C   0  0  0  0  0  0  0  0  0  0  0  0
   -3.2140   -1.2426    2.2587 C   0  0  2  0  0  0  0  0  0  0  0  0
   -0.6536    0.1917    0.3716 C   0  0  0  0  0  0  0  0  0  0  0  0
    2.5545   -1.2131   -2.1895 N   0  0  0  0  0  0  0  0  0  0  0  0
    3.5713   -1.7244   -2.8766 C   0  0  0  0  0  0  0  0  0  0  0  0
    4.7851   -1.0963   -2.8116 C   0  0  0  0  0  0  0  0  0  0  0  0
    4.9034    0.0493   -2.0303 C   0  0  0  0  0  0  0  0  0  0  0  0
    6.1268    0.6900   -1.9594 C   0  0  0  0  0  0  0  0  0  0  0  0
    5.2773    3.1905    0.0965 H   0  0  0  0  0  0  0  0  0  0  0  0
    1.6741    1.2261   -0.0774 H   0  0  0  0  0  0  0  0  0  0  0  0
    0.3326   -1.1386   -2.6067 H   0  0  0  0  0  0  0  0  0  0  0  0
   -1.9163   -1.9440   -2.4973 H   0  0  0  0  0  0  0  0  0  0  0  0
   -1.1999    0.4772    2.9223 H   0  0  0  0  0  0  0  0  0  0  0  0
   -1.8623    1.8936    1.9716 H   0  0  0  0  0  0  0  0  0  0  0  0
   -6.6307    1.9901    1.1851 H   0  0  0  0  0  0  0  0  0  0  0  0
   -6.5058    1.2334   -0.4563 H   0  0  0  0  0  0  0  0  0  0  0  0
   -4.7874   -2.7547    1.9249 H   0  0  0  0  0  0  0  0  0  0  0  0
   -3.7944   -2.2163    4.1837 H   0  0  0  0  0  0  0  0  0  0  0  0
   -4.3203   -0.4169    3.9837 H   0  0  0  0  0  0  0  0  0  0  0  0
   -2.4136   -2.0321    2.1370 H   0  0  0  0  0  0  0  0  0  0  0  0
   -0.2582    0.8112    1.1791 H   0  0  0  0  0  0  0  0  0  0  0  0
    3.4974   -2.6170   -3.4910 H   0  0  0  0  0  0  0  0  0  0  0  0
    5.6284   -1.4998   -3.3667 H   0  0  0  0  0  0  0  0  0  0  0  0
    6.9670    0.2730   -2.5232 H   0  0  0  0  0  0  0  0  0  0  0  0
  1  2  3  0
  2  3  1  0
  3  4  2  0
  4  5  1  0
  5  6  2  0
  6  7  1  0
  7  8  1  0
  8  9  1  0
  9 10  2  0
 10 11  1  0
 11 12  2  0
 12 13  1  0
 12 14  1  0
 14 15  1  0
 15 16  1  1
 16 17  1  0
 15 18  1  0
 18 19  2  0
 19 20  1  0
 19 21  1  0
 21 22  1  0
 22 23  1  0
 23 24  1  0
 14 25  2  0
  7 26  2  0
 26 27  1  0
 27 28  2  0
 28 29  1  0
 29 30  2  0
 30  3  1  0
 29  6  1  0
 25  9  1  0
 24 15  1  0
 24 22  1  0
  4 31  1  0
  8 32  1  0
 10 33  1  0
 11 34  1  0
 16 35  1  0
 16 36  1  0
 20 37  1  0
 20 38  1  0
 22 39  1  1
 23 40  1  0
 23 41  1  0
 24 42  1  1
 25 43  1  0
 27 44  1  0
 28 45  1  0
 30 46  1  0
M  END
$$$$
