@<TRIPOS>MOLECULE
*****
 46 50 0 0 0
SMALL
GASTEIGER

@<TRIPOS>ATOM
      1 N           8.5536    2.9686   -1.0831 N.1     1  UNL1       -0.1908
      2 C           7.5239    2.4560   -1.1396 C.1     1  UNL1        0.1007
      3 C           6.2291    1.8105   -1.1909 C.ar    1  UNL1        0.0704
      4 C           5.1363    2.2930   -0.5004 C.ar    1  UNL1        0.0458
      5 N           3.9424    1.6533   -0.5800 N.ar    1  UNL1       -0.2503
      6 C           3.8354    0.5469   -1.3369 C.ar    1  UNL1        0.1109
      7 C           2.6025   -0.1295   -1.4303 C.ar    1  UNL1        0.1490
      8 N           1.5181    0.3753   -0.7090 N.pl3   1  UNL1       -0.2977
      9 C           0.1947   -0.1085   -0.7085 C.ar    1  UNL1        0.0329
     10 C          -0.2634   -0.8781   -1.7410 C.ar    1  UNL1       -0.0378
     11 C          -1.5843   -1.3381   -1.6660 C.ar    1  UNL1       -0.0243
     12 C          -2.3944   -1.0298   -0.5965 C.ar    1  UNL1        0.1291
     13 F          -3.6710   -1.4994   -0.5670 F       1  UNL1       -0.2051
     14 C          -1.9481   -0.2530    0.4554 C.ar    1  UNL1        0.0198
     15 C          -2.8671    0.0569    1.5893 C.3     1  UNL1        0.1284
     16 C          -2.1136    0.9801    2.5320 C.3     1  UNL1        0.1199
     17 F          -2.9121    1.3292    3.6252 F       1  UNL1       -0.2462
     18 N          -3.9999    0.7633    1.0807 N.2     1  UNL1       -0.2225
     19 C          -5.2194    0.4216    1.1096 C.2     1  UNL1        0.2763
     20 N          -6.2144    1.2895    0.5333 N.pl3   1  UNL1       -0.3134
     21 O          -5.5536   -0.7898    1.7021 O.2     1  UNL1       -0.4622
     22 C          -4.5926   -1.6977    2.1649 C.3     1  UNL1        0.1090
     23 C          -3.9633   -1.3507    3.5117 C.3     1  UNL1       -0.0065
     24 C          -3.2140   -1.2426    2.2587 C.3     1  UNL1        0.0315
     25 C          -0.6536    0.1917    0.3716 C.ar    1  UNL1       -0.0322
     26 N           2.5545   -1.2131   -2.1895 N.ar    1  UNL1       -0.2380
     27 C           3.5713   -1.7244   -2.8766 C.ar    1  UNL1        0.0304
     28 C           4.7851   -1.0963   -2.8116 C.ar    1  UNL1       -0.0342
     29 C           4.9034    0.0493   -2.0303 C.ar    1  UNL1        0.0064
     30 C           6.1268    0.6900   -1.9594 C.ar    1  UNL1       -0.0335
     31 H           5.2773    3.1905    0.0965 H       1  UNL1        0.0843
     32 H           1.6741    1.2261   -0.0774 H       1  UNL1        0.1536
     33 H           0.3326   -1.1386   -2.6067 H       1  UNL1        0.0637
     34 H          -1.9163   -1.9440   -2.4973 H       1  UNL1        0.0647
     35 H          -1.1999    0.4772    2.9223 H       1  UNL1        0.0643
     36 H          -1.8623    1.8936    1.9716 H       1  UNL1        0.0643
     37 H          -6.6307    1.9901    1.1851 H       1  UNL1        0.1466
     38 H          -6.5058    1.2334   -0.4563 H       1  UNL1        0.1466
     39 H          -4.7874   -2.7547    1.9249 H       1  UNL1        0.0737
     40 H          -3.7944   -2.2163    4.1837 H       1  UNL1        0.0306
     41 H          -4.3203   -0.4169    3.9837 H       1  UNL1        0.0306
     42 H          -2.4136   -2.0321    2.1370 H       1  UNL1        0.0365
     43 H          -0.2582    0.8112    1.1791 H       1  UNL1        0.0640
     44 H           3.4974   -2.6170   -3.4910 H       1  UNL1        0.0830
     45 H           5.6284   -1.4998   -3.3667 H       1  UNL1        0.0639
     46 H           6.9670    0.2730   -2.5232 H       1  UNL1        0.0637
@<TRIPOS>BOND
     1     1     2    3
     2     2     3    1
     3     3     4   ar
     4     4     5   ar
     5     5     6   ar
     6     6     7   ar
     7     7     8    1
     8     8     9    1
     9     9    10   ar
    10    10    11   ar
    11    11    12   ar
    12    12    13    1
    13    12    14   ar
    14    14    15    1
    15    15    16    1
    16    16    17    1
    17    15    18    1
    18    18    19    2
    19    19    20    1
    20    19    21    1
    21    21    22    1
    22    22    23    1
    23    23    24    1
    24    14    25   ar
    25     7    26   ar
    26    26    27   ar
    27    27    28   ar
    28    28    29   ar
    29    29    30   ar
    30    30     3   ar
    31    29     6   ar
    32    25     9   ar
    33    24    15    1
    34    24    22    1
    35     4    31    1
    36     8    32    1
    37    10    33    1
    38    11    34    1
    39    16    35    1
    40    16    36    1
    41    20    37    1
    42    20    38    1
    43    22    39    1
    44    23    40    1
    45    23    41    1
    46    24    42    1
    47    25    43    1
    48    27    44    1
    49    28    45    1
    50    30    46    1
