@<TRIPOS>MOLECULE
*****
 31 31 0 0 0
SMALL
GASTEIGER

@<TRIPOS>ATOM
      1 C          -4.3756   -0.4585   -1.5382 C.3     1  UNL1       -0.0465
      2 C          -2.9142   -0.7028   -1.2482 C.2     1  UNL1       -0.0864
      3 C          -2.2331    0.1797   -0.5498 C.2     1  UNL1       -0.0552
      4 C          -0.8326    0.0200   -0.2298 C.ar    1  UNL1        0.0200
      5 C          -0.0598   -1.0539   -0.6106 C.ar    1  UNL1       -0.0057
      6 C           1.2929   -1.1195   -0.2515 C.ar    1  UNL1        0.1623
      7 O           2.0327   -2.2045   -0.6483 O.3     1  UNL1       -0.4914
      8 C           1.4715   -3.2595   -1.4092 C.3     1  UNL1        0.0790
      9 C           1.8860   -0.1204    0.4871 C.ar    1  UNL1        0.1650
     10 O           3.2243   -0.2541    0.8035 O.3     1  UNL1       -0.4913
     11 C           3.8573    0.7709    1.5685 C.3     1  UNL1        0.0790
     12 C           1.1153    0.9554    0.8696 C.ar    1  UNL1        0.0260
     13 C          -0.2193    1.0296    0.5206 C.ar    1  UNL1        0.1309
     14 O          -0.9985    2.1085    0.9024 O.3     1  UNL1       -0.4944
     15 C          -0.4030    3.1327    1.6559 C.3     1  UNL1        0.0788
     16 H          -4.9895   -0.9261   -0.7384 H       1  UNL1        0.0272
     17 H          -4.5232    0.6205   -1.5040 H       1  UNL1        0.0272
     18 H          -4.6730   -0.9370   -2.4934 H       1  UNL1        0.0272
     19 H          -2.4211   -1.5899   -1.6055 H       1  UNL1        0.0569
     20 H          -2.8071    1.0595   -0.2204 H       1  UNL1        0.0621
     21 H          -0.4983   -1.8466   -1.1872 H       1  UNL1        0.0662
     22 H           0.8766   -2.8917   -2.2724 H       1  UNL1        0.0660
     23 H           2.2533   -3.9218   -1.8201 H       1  UNL1        0.0660
     24 H           0.8677   -3.8740   -0.7108 H       1  UNL1        0.0660
     25 H           3.2844    1.0259    2.4639 H       1  UNL1        0.0660
     26 H           4.8977    0.4600    1.7852 H       1  UNL1        0.0660
     27 H           3.9177    1.7020    0.9516 H       1  UNL1        0.0660
     28 H           1.5733    1.7454    1.4504 H       1  UNL1        0.0692
     29 H          -1.1148    3.9352    1.9321 H       1  UNL1        0.0660
     30 H           0.1012    2.7593    2.5730 H       1  UNL1        0.0660
     31 H           0.4112    3.6557    1.0739 H       1  UNL1        0.0660
@<TRIPOS>BOND
     1     1     2    1
     2     2     3    2
     3     3     4    1
     4     4     5   ar
     5     5     6   ar
     6     6     7    1
     7     7     8    1
     8     6     9   ar
     9     9    10    1
    10    10    11    1
    11     9    12   ar
    12    12    13   ar
    13    13    14    1
    14    14    15    1
    15    13     4   ar
    16     1    16    1
    17     1    17    1
    18     1    18    1
    19     2    19    1
    20     3    20    1
    21     5    21    1
    22     8    22    1
    23     8    23    1
    24     8    24    1
    25    11    25    1
    26    11    26    1
    27    11    27    1
    28    12    28    1
    29    15    29    1
    30    15    30    1
    31    15    31    1
