
     RDKit          3D

 31 31  0  0  0  0  0  0  0  0999 V2000
   -4.3756   -0.4585   -1.5382 C   0  0  0  0  0  0  0  0  0  0  0  0
   -2.9142   -0.7028   -1.2482 C   0  0  0  0  0  0  0  0  0  0  0  0
   -2.2331    0.1797   -0.5498 C   0  0  0  0  0  0  0  0  0  0  0  0
   -0.8326    0.0200   -0.2298 C   0  0  0  0  0  0  0  0  0  0  0  0
   -0.0598   -1.0539   -0.6106 C   0  0  0  0  0  0  0  0  0  0  0  0
    1.2929   -1.1195   -0.2515 C   0  0  0  0  0  0  0  0  0  0  0  0
    2.0327   -2.2045   -0.6483 O   0  0  0  0  0  0  0  0  0  0  0  0
    1.4715   -3.2595   -1.4092 C   0  0  0  0  0  0  0  0  0  0  0  0
    1.8860   -0.1204    0.4871 C   0  0  0  0  0  0  0  0  0  0  0  0
    3.2243   -0.2541    0.8035 O   0  0  0  0  0  0  0  0  0  0  0  0
    3.8573    0.7709    1.5685 C   0  0  0  0  0  0  0  0  0  0  0  0
    1.1153    0.9554    0.8696 C   0  0  0  0  0  0  0  0  0  0  0  0
   -0.2193    1.0296    0.5206 C   0  0  0  0  0  0  0  0  0  0  0  0
   -0.9985    2.1085    0.9024 O   0  0  0  0  0  0  0  0  0  0  0  0
   -0.4030    3.1327    1.6559 C   0  0  0  0  0  0  0  0  0  0  0  0
   -4.9895   -0.9261   -0.7384 H   0  0  0  0  0  0  0  0  0  0  0  0
   -4.5232    0.6205   -1.5040 H   0  0  0  0  0  0  0  0  0  0  0  0
   -4.6730   -0.9370   -2.4934 H   0  0  0  0  0  0  0  0  0  0  0  0
   -2.4211   -1.5899   -1.6055 H   0  0  0  0  0  0  0  0  0  0  0  0
   -2.8071    1.0595   -0.2204 H   0  0  0  0  0  0  0  0  0  0  0  0
   -0.4983   -1.8466   -1.1872 H   0  0  0  0  0  0  0  0  0  0  0  0
    0.8766   -2.8917   -2.2724 H   0  0  0  0  0  0  0  0  0  0  0  0
    2.2533   -3.9218   -1.8201 H   0  0  0  0  0  0  0  0  0  0  0  0
    0.8677   -3.8740   -0.7108 H   0  0  0  0  0  0  0  0  0  0  0  0
    3.2844    1.0259    2.4639 H   0  0  0  0  0  0  0  0  0  0  0  0
    4.8977    0.4600    1.7852 H   0  0  0  0  0  0  0  0  0  0  0  0
    3.9177    1.7020    0.9516 H   0  0  0  0  0  0  0  0  0  0  0  0
    1.5733    1.7454    1.4504 H   0  0  0  0  0  0  0  0  0  0  0  0
   -1.1148    3.9352    1.9321 H   0  0  0  0  0  0  0  0  0  0  0  0
    0.1012    2.7593    2.5730 H   0  0  0  0  0  0  0  0  0  0  0  0
    0.4112    3.6557    1.0739 H   0  0  0  0  0  0  0  0  0  0  0  0
  1  2  1  0
  2  3  2  0
  3  4  1  0
  4  5  2  0
  5  6  1  0
  6  7  1  0
  7  8  1  0
  6  9  2  0
  9 10  1  0
 10 11  1  0
  9 12  1  0
 12 13  2  0
 13 14  1  0
 14 15  1  0
 13  4  1  0
  1 16  1  0
  1 17  1  0
  1 18  1  0
  2 19  1  0
  3 20  1  0
  5 21  1  0
  8 22  1  0
  8 23  1  0
  8 24  1  0
 11 25  1  0
 11 26  1  0
 11 27  1  0
 12 28  1  0
 15 29  1  0
 15 30  1  0
 15 31  1  0
M  END
$$$$
