@<TRIPOS>MOLECULE
*****
 36 38 0 0 0
SMALL
GASTEIGER

@<TRIPOS>ATOM
      1 C          -1.2479    3.4947   -0.0201 C.3     1  UNL1       -0.0465
      2 C          -0.7060    2.4383   -0.8867 C.2     1  UNL1       -0.0852
      3 C          -0.4935    1.2497   -0.3853 C.2     1  UNL1       -0.0422
      4 C          -0.8021    0.9912    1.0426 C.3     1  UNL1        0.0058
      5 C          -1.6101   -0.2824    1.0728 C.2     1  UNL1       -0.0774
      6 C          -1.7907   -1.0494    0.0325 C.2     1  UNL1       -0.0736
      7 C          -2.7734   -2.1792    0.1472 C.3     1  UNL1       -0.0437
      8 C          -1.0974   -0.8995   -1.2764 C.3     1  UNL1       -0.0057
      9 C           0.0486    0.0852   -1.1352 C.3     1  UNL1        0.0694
     10 N           0.5124    0.5223   -2.4349 N.3     1  UNL1       -0.3174
     11 C           1.1630   -0.4827   -0.3434 C.ar    1  UNL1       -0.0038
     12 C           2.0527   -1.3719   -0.9627 C.ar    1  UNL1       -0.0497
     13 C           3.0989   -1.9228   -0.2635 C.ar    1  UNL1        0.0031
     14 C           3.2755   -1.5974    1.0618 C.ar    1  UNL1        0.2489
     15 O           4.2156   -2.0701    1.7547 O.2     1  UNL1       -0.2679
     16 N           2.4386   -0.7513    1.6718 N.ar    1  UNL1       -0.3259
     17 C           1.3950   -0.2005    0.9780 C.ar    1  UNL1        0.0252
     18 C           0.5100    0.7379    1.7430 C.3     1  UNL1       -0.0020
     19 H          -1.3468    4.4303   -0.6287 H       1  UNL1        0.0272
     20 H          -0.5772    3.7312    0.8309 H       1  UNL1        0.0272
     21 H          -2.2675    3.2863    0.3556 H       1  UNL1        0.0272
     22 H          -0.4736    2.6153   -1.9427 H       1  UNL1        0.0570
     23 H          -1.3576    1.7790    1.5353 H       1  UNL1        0.0392
     24 H          -2.0566   -0.5527    2.0301 H       1  UNL1        0.0578
     25 H          -2.3669   -2.9581    0.8334 H       1  UNL1        0.0274
     26 H          -3.7635   -1.8089    0.5163 H       1  UNL1        0.0274
     27 H          -2.9655   -2.6699   -0.8146 H       1  UNL1        0.0274
     28 H          -1.8249   -0.4350   -1.9734 H       1  UNL1        0.0334
     29 H          -0.7546   -1.8899   -1.6379 H       1  UNL1        0.0334
     30 H           0.4812   -0.2500   -3.1428 H       1  UNL1        0.1193
     31 H           1.5488    0.7316   -2.3164 H       1  UNL1        0.1193
     32 H           1.8615   -1.5877   -2.0039 H       1  UNL1        0.0623
     33 H           3.7815   -2.6051   -0.7389 H       1  UNL1        0.0672
     34 H           2.5831   -0.5079    2.6903 H       1  UNL1        0.1686
     35 H           0.2524    0.2831    2.7398 H       1  UNL1        0.0336
     36 H           1.0569    1.6964    1.8713 H       1  UNL1        0.0336
@<TRIPOS>BOND
     1     1     2    1
     2     2     3    2
     3     3     4    1
     4     4     5    1
     5     5     6    2
     6     6     7    1
     7     6     8    1
     8     8     9    1
     9     9    10    1
    10     9    11    1
    11    11    12   ar
    12    12    13   ar
    13    13    14   ar
    14    14    15    2
    15    14    16   ar
    16    16    17   ar
    17    17    18    1
    18     9     3    1
    19    17    11   ar
    20    18     4    1
    21     1    19    1
    22     1    20    1
    23     1    21    1
    24     2    22    1
    25     4    23    1
    26     5    24    1
    27     7    25    1
    28     7    26    1
    29     7    27    1
    30     8    28    1
    31     8    29    1
    32    10    30    1
    33    10    31    1
    34    12    32    1
    35    13    33    1
    36    16    34    1
    37    18    35    1
    38    18    36    1
