
     RDKit          3D

 36 38  0  0  0  0  0  0  0  0999 V2000
   -1.2479    3.4947   -0.0201 C   0  0  0  0  0  0  0  0  0  0  0  0
   -0.7060    2.4383   -0.8867 C   0  0  0  0  0  0  0  0  0  0  0  0
   -0.4935    1.2497   -0.3853 C   0  0  0  0  0  0  0  0  0  0  0  0
   -0.8021    0.9912    1.0426 C   0  0  0  0  0  0  0  0  0  0  0  0
   -1.6101   -0.2824    1.0728 C   0  0  0  0  0  0  0  0  0  0  0  0
   -1.7907   -1.0494    0.0325 C   0  0  0  0  0  0  0  0  0  0  0  0
   -2.7734   -2.1792    0.1472 C   0  0  0  0  0  0  0  0  0  0  0  0
   -1.0974   -0.8995   -1.2764 C   0  0  0  0  0  0  0  0  0  0  0  0
    0.0486    0.0852   -1.1352 C   0  0  0  0  0  0  0  0  0  0  0  0
    0.5124    0.5223   -2.4349 N   0  0  0  0  0  0  0  0  0  0  0  0
    1.1630   -0.4827   -0.3434 C   0  0  0  0  0  0  0  0  0  0  0  0
    2.0527   -1.3719   -0.9627 C   0  0  0  0  0  0  0  0  0  0  0  0
    3.0989   -1.9228   -0.2635 C   0  0  0  0  0  0  0  0  0  0  0  0
    3.2755   -1.5974    1.0618 C   0  0  0  0  0  0  0  0  0  0  0  0
    4.2156   -2.0701    1.7547 O   0  0  0  0  0  0  0  0  0  0  0  0
    2.4386   -0.7513    1.6718 N   0  0  0  0  0  0  0  0  0  0  0  0
    1.3950   -0.2005    0.9780 C   0  0  0  0  0  0  0  0  0  0  0  0
    0.5100    0.7379    1.7430 C   0  0  0  0  0  0  0  0  0  0  0  0
   -1.3468    4.4303   -0.6287 H   0  0  0  0  0  0  0  0  0  0  0  0
   -0.5772    3.7312    0.8309 H   0  0  0  0  0  0  0  0  0  0  0  0
   -2.2675    3.2863    0.3556 H   0  0  0  0  0  0  0  0  0  0  0  0
   -0.4736    2.6153   -1.9427 H   0  0  0  0  0  0  0  0  0  0  0  0
   -1.3576    1.7790    1.5353 H   0  0  0  0  0  0  0  0  0  0  0  0
   -2.0566   -0.5527    2.0301 H   0  0  0  0  0  0  0  0  0  0  0  0
   -2.3669   -2.9581    0.8334 H   0  0  0  0  0  0  0  0  0  0  0  0
   -3.7635   -1.8089    0.5163 H   0  0  0  0  0  0  0  0  0  0  0  0
   -2.9655   -2.6699   -0.8146 H   0  0  0  0  0  0  0  0  0  0  0  0
   -1.8249   -0.4350   -1.9734 H   0  0  0  0  0  0  0  0  0  0  0  0
   -0.7546   -1.8899   -1.6379 H   0  0  0  0  0  0  0  0  0  0  0  0
    0.4812   -0.2500   -3.1428 H   0  0  0  0  0  0  0  0  0  0  0  0
    1.5488    0.7316   -2.3164 H   0  0  0  0  0  0  0  0  0  0  0  0
    1.8615   -1.5877   -2.0039 H   0  0  0  0  0  0  0  0  0  0  0  0
    3.7815   -2.6051   -0.7389 H   0  0  0  0  0  0  0  0  0  0  0  0
    2.5831   -0.5079    2.6903 H   0  0  0  0  0  0  0  0  0  0  0  0
    0.2524    0.2831    2.7398 H   0  0  0  0  0  0  0  0  0  0  0  0
    1.0569    1.6964    1.8713 H   0  0  0  0  0  0  0  0  0  0  0  0
  1  2  1  0
  2  3  2  0
  3  4  1  0
  4  5  1  0
  5  6  2  0
  6  7  1  0
  6  8  1  0
  8  9  1  0
  9 10  1  0
  9 11  1  0
 11 12  1  0
 12 13  2  0
 13 14  1  0
 14 15  2  0
 14 16  1  0
 16 17  1  0
 17 18  1  0
  9  3  1  0
 17 11  2  0
 18  4  1  0
  1 19  1  0
  1 20  1  0
  1 21  1  0
  2 22  1  0
  4 23  1  0
  5 24  1  0
  7 25  1  0
  7 26  1  0
  7 27  1  0
  8 28  1  0
  8 29  1  0
 10 30  1  0
 10 31  1  0
 12 32  1  0
 13 33  1  0
 16 34  1  0
 18 35  1  0
 18 36  1  0
M  END
$$$$
