@<TRIPOS>MOLECULE
*****
 43 46 0 0 0
SMALL
GASTEIGER

@<TRIPOS>ATOM
      1 N           8.0459   -0.8281   -4.5855 N.1     1  UNL1       -0.1908
      2 C           7.1627   -0.4786   -3.9494 C.1     1  UNL1        0.1007
      3 C           6.0418   -0.0335   -3.1266 C.ar    1  UNL1        0.0699
      4 C           6.2145    1.0235   -2.2479 C.ar    1  UNL1       -0.0407
      5 C           5.1441    1.4310   -1.4913 C.ar    1  UNL1       -0.0300
      6 C           3.8908    0.8373   -1.5579 C.ar    1  UNL1        0.1257
      7 C           2.7855    1.3375   -0.7106 C.2     1  UNL1        0.2666
      8 O           3.0262    2.3074    0.0814 O.2     1  UNL1       -0.2682
      9 N           1.4895    0.8056   -0.7321 N.am    1  UNL1       -0.2802
     10 C           0.3690    1.2242    0.0295 C.ar    1  UNL1        0.0341
     11 C           0.3384    2.4212    0.7011 C.ar    1  UNL1       -0.0391
     12 C          -0.7511    2.7570    1.4411 C.ar    1  UNL1       -0.0413
     13 C          -1.8532    1.8901    1.5308 C.ar    1  UNL1        0.0467
     14 CL         -3.1595    2.4364    2.5147 Cl      1  UNL1       -0.0832
     15 C          -1.8673    0.6918    0.8824 C.ar    1  UNL1        0.0059
     16 C          -3.0129   -0.2492    0.9918 C.3     1  UNL1        0.1590
     17 C          -4.2677    0.2689    0.2679 C.3     1  UNL1        0.2685
     18 F          -3.9957    0.4605   -1.0807 F       1  UNL1       -0.2062
     19 F          -4.8966    1.2926    0.8636 F       1  UNL1       -0.2062
     20 N          -2.6144   -1.3815    0.1555 N.2     1  UNL1       -0.2194
     21 C          -2.6705   -2.5882    0.4958 C.2     1  UNL1        0.2764
     22 N          -2.2401   -3.5979   -0.4588 N.pl3   1  UNL1       -0.3134
     23 O          -3.1244   -2.9486    1.7424 O.2     1  UNL1       -0.4622
     24 C          -3.2090   -2.0244    2.7877 C.3     1  UNL1        0.1091
     25 C          -4.5218   -1.2682    2.8497 C.3     1  UNL1       -0.0064
     26 C          -3.3013   -0.6136    2.4060 C.3     1  UNL1        0.0344
     27 C          -0.7478    0.3810    0.1387 C.ar    1  UNL1       -0.0334
     28 N           3.7502   -0.1788   -2.4123 N.ar    1  UNL1       -0.2491
     29 C           4.7941   -0.6119   -3.1823 C.ar    1  UNL1        0.0458
     30 H           7.1963    1.5107   -2.1727 H       1  UNL1        0.0631
     31 H           5.2513    2.2662   -0.7912 H       1  UNL1        0.0641
     32 H           1.3426   -0.0075   -1.4256 H       1  UNL1        0.1552
     33 H           1.1618    3.1413    0.6540 H       1  UNL1        0.0636
     34 H          -0.7861    3.7220    1.9862 H       1  UNL1        0.0633
     35 H          -5.0296   -0.5786    0.2506 H       1  UNL1        0.1047
     36 H          -2.8629   -4.3980   -0.6782 H       1  UNL1        0.1466
     37 H          -1.3075   -3.4735   -0.8845 H       1  UNL1        0.1466
     38 H          -2.7145   -2.3339    3.7224 H       1  UNL1        0.0737
     39 H          -4.8841   -1.0994    3.9072 H       1  UNL1        0.0306
     40 H          -5.3468   -1.5966    2.1848 H       1  UNL1        0.0306
     41 H          -2.8062    0.0706    3.1684 H       1  UNL1        0.0366
     42 H          -0.6945   -0.5461   -0.3951 H       1  UNL1        0.0640
     43 H           4.6608   -1.4409   -3.8709 H       1  UNL1        0.0843
@<TRIPOS>BOND
     1     1     2    3
     2     2     3    1
     3     3     4   ar
     4     4     5   ar
     5     5     6   ar
     6     6     7    1
     7     7     8    2
     8     7     9   am
     9     9    10    1
    10    10    11   ar
    11    11    12   ar
    12    12    13   ar
    13    13    14    1
    14    13    15   ar
    15    15    16    1
    16    16    17    1
    17    17    18    1
    18    17    19    1
    19    16    20    1
    20    20    21    2
    21    21    22    1
    22    21    23    1
    23    23    24    1
    24    24    25    1
    25    25    26    1
    26    15    27   ar
    27     6    28   ar
    28    28    29   ar
    29    29     3   ar
    30    27    10   ar
    31    26    16    1
    32    26    24    1
    33     4    30    1
    34     5    31    1
    35     9    32    1
    36    11    33    1
    37    12    34    1
    38    17    35    1
    39    22    36    1
    40    22    37    1
    41    24    38    1
    42    25    39    1
    43    25    40    1
    44    26    41    1
    45    27    42    1
    46    29    43    1
