
     RDKit          3D

 43 46  0  0  0  0  0  0  0  0999 V2000
    8.0459   -0.8281   -4.5855 N   0  0  0  0  0  0  0  0  0  0  0  0
    7.1627   -0.4786   -3.9494 C   0  0  0  0  0  0  0  0  0  0  0  0
    6.0418   -0.0335   -3.1266 C   0  0  0  0  0  0  0  0  0  0  0  0
    6.2145    1.0235   -2.2479 C   0  0  0  0  0  0  0  0  0  0  0  0
    5.1441    1.4310   -1.4913 C   0  0  0  0  0  0  0  0  0  0  0  0
    3.8908    0.8373   -1.5579 C   0  0  0  0  0  0  0  0  0  0  0  0
    2.7855    1.3375   -0.7106 C   0  0  0  0  0  0  0  0  0  0  0  0
    3.0262    2.3074    0.0814 O   0  0  0  0  0  0  0  0  0  0  0  0
    1.4895    0.8056   -0.7321 N   0  0  0  0  0  0  0  0  0  0  0  0
    0.3690    1.2242    0.0295 C   0  0  0  0  0  0  0  0  0  0  0  0
    0.3384    2.4212    0.7011 C   0  0  0  0  0  0  0  0  0  0  0  0
   -0.7511    2.7570    1.4411 C   0  0  0  0  0  0  0  0  0  0  0  0
   -1.8532    1.8901    1.5308 C   0  0  0  0  0  0  0  0  0  0  0  0
   -3.1595    2.4364    2.5147 Cl  0  0  0  0  0  0  0  0  0  0  0  0
   -1.8673    0.6918    0.8824 C   0  0  0  0  0  0  0  0  0  0  0  0
   -3.0129   -0.2492    0.9918 C   0  0  1  0  0  0  0  0  0  0  0  0
   -4.2677    0.2689    0.2679 C   0  0  0  0  0  0  0  0  0  0  0  0
   -3.9957    0.4605   -1.0807 F   0  0  0  0  0  0  0  0  0  0  0  0
   -4.8966    1.2926    0.8636 F   0  0  0  0  0  0  0  0  0  0  0  0
   -2.6144   -1.3815    0.1555 N   0  0  0  0  0  0  0  0  0  0  0  0
   -2.6705   -2.5882    0.4958 C   0  0  0  0  0  0  0  0  0  0  0  0
   -2.2401   -3.5979   -0.4588 N   0  0  0  0  0  0  0  0  0  0  0  0
   -3.1244   -2.9486    1.7424 O   0  0  0  0  0  0  0  0  0  0  0  0
   -3.2090   -2.0244    2.7877 C   0  0  2  0  0  0  0  0  0  0  0  0
   -4.5218   -1.2682    2.8497 C   0  0  0  0  0  0  0  0  0  0  0  0
   -3.3013   -0.6136    2.4060 C   0  0  2  0  0  0  0  0  0  0  0  0
   -0.7478    0.3810    0.1387 C   0  0  0  0  0  0  0  0  0  0  0  0
    3.7502   -0.1788   -2.4123 N   0  0  0  0  0  0  0  0  0  0  0  0
    4.7941   -0.6119   -3.1823 C   0  0  0  0  0  0  0  0  0  0  0  0
    7.1963    1.5107   -2.1727 H   0  0  0  0  0  0  0  0  0  0  0  0
    5.2513    2.2662   -0.7912 H   0  0  0  0  0  0  0  0  0  0  0  0
    1.3426   -0.0075   -1.4256 H   0  0  0  0  0  0  0  0  0  0  0  0
    1.1618    3.1413    0.6540 H   0  0  0  0  0  0  0  0  0  0  0  0
   -0.7861    3.7220    1.9862 H   0  0  0  0  0  0  0  0  0  0  0  0
   -5.0296   -0.5786    0.2506 H   0  0  0  0  0  0  0  0  0  0  0  0
   -2.8629   -4.3980   -0.6782 H   0  0  0  0  0  0  0  0  0  0  0  0
   -1.3075   -3.4735   -0.8845 H   0  0  0  0  0  0  0  0  0  0  0  0
   -2.7145   -2.3339    3.7224 H   0  0  0  0  0  0  0  0  0  0  0  0
   -4.8841   -1.0994    3.9072 H   0  0  0  0  0  0  0  0  0  0  0  0
   -5.3468   -1.5966    2.1848 H   0  0  0  0  0  0  0  0  0  0  0  0
   -2.8062    0.0706    3.1684 H   0  0  0  0  0  0  0  0  0  0  0  0
   -0.6945   -0.5461   -0.3951 H   0  0  0  0  0  0  0  0  0  0  0  0
    4.6608   -1.4409   -3.8709 H   0  0  0  0  0  0  0  0  0  0  0  0
  1  2  3  0
  2  3  1  0
  3  4  2  0
  4  5  1  0
  5  6  2  0
  6  7  1  0
  7  8  2  0
  7  9  1  0
  9 10  1  0
 10 11  2  0
 11 12  1  0
 12 13  2  0
 13 14  1  0
 13 15  1  0
 15 16  1  0
 16 17  1  6
 17 18  1  0
 17 19  1  0
 16 20  1  0
 20 21  2  0
 21 22  1  0
 21 23  1  0
 23 24  1  0
 24 25  1  0
 25 26  1  0
 15 27  2  0
  6 28  1  0
 28 29  2  0
 29  3  1  0
 27 10  1  0
 26 16  1  0
 26 24  1  0
  4 30  1  0
  5 31  1  0
  9 32  1  0
 11 33  1  0
 12 34  1  0
 17 35  1  0
 22 36  1  0
 22 37  1  0
 24 38  1  1
 25 39  1  0
 25 40  1  0
 26 41  1  1
 27 42  1  0
 29 43  1  0
M  END
$$$$
