
     RDKit          3D

 69 72  0  0  0  0  0  0  0  0999 V2000
    8.3911    1.5943   -2.6075 C   0  0  0  0  0  0  0  0  0  0  0  0
    7.8074    0.5805   -1.6152 C   0  0  0  0  0  0  0  0  0  0  0  0
    8.4570    0.8728   -0.2930 C   0  0  0  0  0  0  0  0  0  0  0  0
    8.0239    0.0054    0.7820 N   0  0  0  0  0  0  0  0  0  0  0  0
    6.6274    0.1261    0.9938 N   0  0  0  0  0  0  0  0  0  0  0  0
    5.6864   -0.7270    0.3776 C   0  0  0  0  0  0  0  0  0  0  0  0
    6.1190   -1.6461   -0.3980 O   0  0  0  0  0  0  0  0  0  0  0  0
    4.2260   -0.6060    0.5880 C   0  0  0  0  0  0  0  0  0  0  0  0
    3.6579    0.3468    1.3892 C   0  0  0  0  0  0  0  0  0  0  0  0
    2.2919    0.4473    1.5743 C   0  0  0  0  0  0  0  0  0  0  0  0
    1.4645   -0.4318    0.9392 C   0  0  0  0  0  0  0  0  0  0  0  0
    0.0745   -0.3469    1.1096 N   0  0  0  0  0  0  0  0  0  0  0  0
   -0.5531   -1.0696    2.1708 C   0  0  0  0  0  0  0  0  0  0  0  0
    0.1580   -1.7686    2.9302 O   0  0  0  0  0  0  0  0  0  0  0  0
   -2.0317   -0.9478    2.3137 C   0  0  2  0  0  0  0  0  0  0  0  0
   -2.7217   -2.2623    2.3568 C   0  0  0  0  0  0  0  0  0  0  0  0
   -2.5777   -3.1385    1.2026 C   0  0  0  0  0  0  0  0  0  0  0  0
   -1.6685   -4.1787    1.0959 C   0  0  0  0  0  0  0  0  0  0  0  0
   -1.8433   -4.7087   -0.1166 N   0  0  0  0  0  0  0  0  0  0  0  0
   -2.8169   -4.0746   -0.8109 C   0  0  0  0  0  0  0  0  0  0  0  0
   -3.3574   -4.2506   -2.0652 C   0  0  0  0  0  0  0  0  0  0  0  0
   -4.3672   -3.4443   -2.5081 C   0  0  0  0  0  0  0  0  0  0  0  0
   -4.8568   -2.4502   -1.7130 C   0  0  0  0  0  0  0  0  0  0  0  0
   -4.3147   -2.2760   -0.4599 C   0  0  0  0  0  0  0  0  0  0  0  0
   -3.2823   -3.0789    0.0270 C   0  0  0  0  0  0  0  0  0  0  0  0
   -2.5915   -0.0895    1.3011 N   0  0  0  0  0  0  0  0  0  0  0  0
   -3.3559    1.0824    1.6272 C   0  0  0  0  0  0  0  0  0  0  0  0
   -3.5136    1.3232    2.8398 O   0  0  0  0  0  0  0  0  0  0  0  0
   -3.9342    1.9712    0.6415 C   0  0  0  0  0  0  0  0  0  0  0  0
   -4.6361    3.0709    1.0766 C   0  0  0  0  0  0  0  0  0  0  0  0
   -5.2143    3.9622    0.1701 C   0  0  0  0  0  0  0  0  0  0  0  0
   -5.0932    3.7578   -1.1742 C   0  0  0  0  0  0  0  0  0  0  0  0
   -5.6678    4.6443   -2.0741 O   0  0  0  0  0  0  0  0  0  0  0  0
   -6.3865    5.7721   -1.5906 C   0  0  0  0  0  0  0  0  0  0  0  0
   -4.3943    2.6624   -1.6211 C   0  0  0  0  0  0  0  0  0  0  0  0
   -3.8191    1.7758   -0.7121 C   0  0  0  0  0  0  0  0  0  0  0  0
    2.0031   -1.3962    0.1313 C   0  0  0  0  0  0  0  0  0  0  0  0
    3.3760   -1.5053   -0.0612 C   0  0  0  0  0  0  0  0  0  0  0  0
    8.1989    1.2614   -3.6286 H   0  0  0  0  0  0  0  0  0  0  0  0
    7.9604    2.5805   -2.3505 H   0  0  0  0  0  0  0  0  0  0  0  0
    9.4830    1.6606   -2.3620 H   0  0  0  0  0  0  0  0  0  0  0  0
    6.7150    0.7324   -1.6005 H   0  0  0  0  0  0  0  0  0  0  0  0
    8.0352   -0.4496   -1.9290 H   0  0  0  0  0  0  0  0  0  0  0  0
    9.5561    0.9357   -0.3613 H   0  0  0  0  0  0  0  0  0  0  0  0
    8.1297    1.9229   -0.0250 H   0  0  0  0  0  0  0  0  0  0  0  0
    8.4697    0.3257    1.6501 H   0  0  0  0  0  0  0  0  0  0  0  0
    6.2610    0.8766    1.6329 H   0  0  0  0  0  0  0  0  0  0  0  0
    4.2973    1.0459    1.8959 H   0  0  0  0  0  0  0  0  0  0  0  0
    1.8931    1.2354    2.2315 H   0  0  0  0  0  0  0  0  0  0  0  0
   -0.4981    0.2442    0.4607 H   0  0  0  0  0  0  0  0  0  0  0  0
   -2.1963   -0.5029    3.3464 H   0  0  0  0  0  0  0  0  0  0  0  0
   -2.4722   -2.8074    3.3187 H   0  0  0  0  0  0  0  0  0  0  0  0
   -3.8223   -2.0261    2.5038 H   0  0  0  0  0  0  0  0  0  0  0  0
   -0.9454   -4.5115    1.8463 H   0  0  0  0  0  0  0  0  0  0  0  0
   -1.3208   -5.5211   -0.5414 H   0  0  0  0  0  0  0  0  0  0  0  0
   -2.9830   -5.0264   -2.6995 H   0  0  0  0  0  0  0  0  0  0  0  0
   -4.8046   -3.5678   -3.4913 H   0  0  0  0  0  0  0  0  0  0  0  0
   -5.6554   -1.7794   -2.0069 H   0  0  0  0  0  0  0  0  0  0  0  0
   -4.7054   -1.4850    0.1835 H   0  0  0  0  0  0  0  0  0  0  0  0
   -2.4639   -0.2638    0.2826 H   0  0  0  0  0  0  0  0  0  0  0  0
   -4.7823    3.3106    2.1216 H   0  0  0  0  0  0  0  0  0  0  0  0
   -5.7617    4.8206    0.5349 H   0  0  0  0  0  0  0  0  0  0  0  0
   -6.7879    6.3314   -2.4597 H   0  0  0  0  0  0  0  0  0  0  0  0
   -5.6427    6.4706   -1.1054 H   0  0  0  0  0  0  0  0  0  0  0  0
   -7.1237    5.5244   -0.8265 H   0  0  0  0  0  0  0  0  0  0  0  0
   -4.3089    2.5166   -2.6887 H   0  0  0  0  0  0  0  0  0  0  0  0
   -3.2818    0.9325   -1.1194 H   0  0  0  0  0  0  0  0  0  0  0  0
    1.3748   -2.1234   -0.3984 H   0  0  0  0  0  0  0  0  0  0  0  0
    3.8154   -2.2616   -0.6960 H   0  0  0  0  0  0  0  0  0  0  0  0
  1  2  1  0
  2  3  1  0
  3  4  1  0
  4  5  1  0
  5  6  1  0
  6  7  2  0
  6  8  1  0
  8  9  2  0
  9 10  1  0
 10 11  2  0
 11 12  1  0
 12 13  1  0
 13 14  2  0
 13 15  1  0
 15 16  1  0
 16 17  1  0
 17 18  2  0
 18 19  1  0
 19 20  1  0
 20 21  2  0
 21 22  1  0
 22 23  2  0
 23 24  1  0
 24 25  2  0
 15 26  1  0
 26 27  1  0
 27 28  2  0
 27 29  1  0
 29 30  2  0
 30 31  1  0
 31 32  2  0
 32 33  1  0
 33 34  1  0
 32 35  1  0
 35 36  2  0
 11 37  1  0
 37 38  2  0
 38  8  1  0
 25 17  1  0
 36 29  1  0
 25 20  1  0
  1 39  1  0
  1 40  1  0
  1 41  1  0
  2 42  1  0
  2 43  1  0
  3 44  1  0
  3 45  1  0
  4 46  1  0
  5 47  1  0
  9 48  1  0
 10 49  1  0
 12 50  1  0
 15 51  1  1
 16 52  1  0
 16 53  1  0
 18 54  1  0
 19 55  1  0
 21 56  1  0
 22 57  1  0
 23 58  1  0
 24 59  1  0
 26 60  1  0
 30 61  1  0
 31 62  1  0
 34 63  1  0
 34 64  1  0
 34 65  1  0
 35 66  1  0
 36 67  1  0
 37 68  1  0
 38 69  1  0
M  END
$$$$
