@<TRIPOS>MOLECULE
*****
 69 72 0 0 0
SMALL
GASTEIGER

@<TRIPOS>ATOM
      1 C           8.3911    1.5943   -2.6075 C.3     1  UNL1       -0.0641
      2 C           7.8074    0.5805   -1.6152 C.3     1  UNL1       -0.0417
      3 C           8.4570    0.8728   -0.2930 C.3     1  UNL1        0.0134
      4 N           8.0239    0.0054    0.7820 N.3     1  UNL1       -0.2404
      5 N           6.6274    0.1261    0.9938 N.am    1  UNL1       -0.2469
      6 C           5.6864   -0.7270    0.3776 C.2     1  UNL1        0.2576
      7 O           6.1190   -1.6461   -0.3980 O.2     1  UNL1       -0.2689
      8 C           4.2260   -0.6060    0.5880 C.ar    1  UNL1        0.0380
      9 C           3.6579    0.3468    1.3892 C.ar    1  UNL1       -0.0478
     10 C           2.2919    0.4473    1.5743 C.ar    1  UNL1       -0.0398
     11 C           1.4645   -0.4318    0.9392 C.ar    1  UNL1        0.0335
     12 N           0.0745   -0.3469    1.1096 N.am    1  UNL1       -0.2840
     13 C          -0.5531   -1.0696    2.1708 C.2     1  UNL1        0.2379
     14 O           0.1580   -1.7686    2.9302 O.2     1  UNL1       -0.2734
     15 C          -2.0317   -0.9478    2.3137 C.3     1  UNL1        0.1040
     16 C          -2.7217   -2.2623    2.3568 C.3     1  UNL1        0.0013
     17 C          -2.5777   -3.1385    1.2026 C.ar    1  UNL1       -0.0201
     18 C          -1.6685   -4.1787    1.0959 C.ar    1  UNL1        0.0060
     19 N          -1.8433   -4.7087   -0.1166 N.ar    1  UNL1       -0.3604
     20 C          -2.8169   -4.0746   -0.8109 C.ar    1  UNL1        0.0467
     21 C          -3.3574   -4.2506   -2.0652 C.ar    1  UNL1       -0.0378
     22 C          -4.3672   -3.4443   -2.5081 C.ar    1  UNL1       -0.0598
     23 C          -4.8568   -2.4502   -1.7130 C.ar    1  UNL1       -0.0611
     24 C          -4.3147   -2.2760   -0.4599 C.ar    1  UNL1       -0.0523
     25 C          -3.2823   -3.0789    0.0270 C.ar    1  UNL1        0.0029
     26 N          -2.5915   -0.0895    1.3011 N.am    1  UNL1       -0.2997
     27 C          -3.3559    1.0824    1.6272 C.2     1  UNL1        0.2447
     28 O          -3.5136    1.3232    2.8398 O.2     1  UNL1       -0.2702
     29 C          -3.9342    1.9712    0.6415 C.ar    1  UNL1        0.0369
     30 C          -4.6361    3.0709    1.0766 C.ar    1  UNL1       -0.0462
     31 C          -5.2143    3.9622    0.1701 C.ar    1  UNL1       -0.0192
     32 C          -5.0932    3.7578   -1.1742 C.ar    1  UNL1        0.1201
     33 O          -5.6678    4.6443   -2.0741 O.3     1  UNL1       -0.4951
     34 C          -6.3865    5.7721   -1.5906 C.3     1  UNL1        0.0788
     35 C          -4.3943    2.6624   -1.6211 C.ar    1  UNL1       -0.0192
     36 C          -3.8191    1.7758   -0.7121 C.ar    1  UNL1       -0.0462
     37 C           2.0031   -1.3962    0.1313 C.ar    1  UNL1       -0.0398
     38 C           3.3760   -1.5053   -0.0612 C.ar    1  UNL1       -0.0478
     39 H           8.1989    1.2614   -3.6286 H       1  UNL1        0.0230
     40 H           7.9604    2.5805   -2.3505 H       1  UNL1        0.0230
     41 H           9.4830    1.6606   -2.3620 H       1  UNL1        0.0230
     42 H           6.7150    0.7324   -1.6005 H       1  UNL1        0.0275
     43 H           8.0352   -0.4496   -1.9290 H       1  UNL1        0.0275
     44 H           9.5561    0.9357   -0.3613 H       1  UNL1        0.0441
     45 H           8.1297    1.9229   -0.0250 H       1  UNL1        0.0441
     46 H           8.4697    0.3257    1.6501 H       1  UNL1        0.1442
     47 H           6.2610    0.8766    1.6329 H       1  UNL1        0.1693
     48 H           4.2973    1.0459    1.8959 H       1  UNL1        0.0626
     49 H           1.8931    1.2354    2.2315 H       1  UNL1        0.0636
     50 H          -0.4981    0.2442    0.4607 H       1  UNL1        0.1549
     51 H          -2.1963   -0.5029    3.3464 H       1  UNL1        0.0598
     52 H          -2.4722   -2.8074    3.3187 H       1  UNL1        0.0337
     53 H          -3.8223   -2.0261    2.5038 H       1  UNL1        0.0337
     54 H          -0.9454   -4.5115    1.8463 H       1  UNL1        0.0810
     55 H          -1.3208   -5.5211   -0.5414 H       1  UNL1        0.1653
     56 H          -2.9830   -5.0264   -2.6995 H       1  UNL1        0.0638
     57 H          -4.8046   -3.5678   -3.4913 H       1  UNL1        0.0618
     58 H          -5.6554   -1.7794   -2.0069 H       1  UNL1        0.0618
     59 H          -4.7054   -1.4850    0.1835 H       1  UNL1        0.0624
     60 H          -2.4639   -0.2638    0.2826 H       1  UNL1        0.1498
     61 H          -4.7823    3.3106    2.1216 H       1  UNL1        0.0626
     62 H          -5.7617    4.8206    0.5349 H       1  UNL1        0.0654
     63 H          -6.7879    6.3314   -2.4597 H       1  UNL1        0.0660
     64 H          -5.6427    6.4706   -1.1054 H       1  UNL1        0.0660
     65 H          -7.1237    5.5244   -0.8265 H       1  UNL1        0.0660
     66 H          -4.3089    2.5166   -2.6887 H       1  UNL1        0.0654
     67 H          -3.2818    0.9325   -1.1194 H       1  UNL1        0.0626
     68 H           1.3748   -2.1234   -0.3984 H       1  UNL1        0.0636
     69 H           3.8154   -2.2616   -0.6960 H       1  UNL1        0.0626
@<TRIPOS>BOND
     1     1     2    1
     2     2     3    1
     3     3     4    1
     4     4     5    1
     5     5     6   am
     6     6     7    2
     7     6     8    1
     8     8     9   ar
     9     9    10   ar
    10    10    11   ar
    11    11    12    1
    12    12    13   am
    13    13    14    2
    14    13    15    1
    15    15    16    1
    16    16    17    1
    17    17    18   ar
    18    18    19   ar
    19    19    20   ar
    20    20    21   ar
    21    21    22   ar
    22    22    23   ar
    23    23    24   ar
    24    24    25   ar
    25    15    26    1
    26    26    27   am
    27    27    28    2
    28    27    29    1
    29    29    30   ar
    30    30    31   ar
    31    31    32   ar
    32    32    33    1
    33    33    34    1
    34    32    35   ar
    35    35    36   ar
    36    11    37   ar
    37    37    38   ar
    38    38     8   ar
    39    25    17   ar
    40    36    29   ar
    41    25    20   ar
    42     1    39    1
    43     1    40    1
    44     1    41    1
    45     2    42    1
    46     2    43    1
    47     3    44    1
    48     3    45    1
    49     4    46    1
    50     5    47    1
    51     9    48    1
    52    10    49    1
    53    12    50    1
    54    15    51    1
    55    16    52    1
    56    16    53    1
    57    18    54    1
    58    19    55    1
    59    21    56    1
    60    22    57    1
    61    23    58    1
    62    24    59    1
    63    26    60    1
    64    30    61    1
    65    31    62    1
    66    34    63    1
    67    34    64    1
    68    34    65    1
    69    35    66    1
    70    36    67    1
    71    37    68    1
    72    38    69    1
