@<TRIPOS>MOLECULE
*****
 64 69 0 0 0
SMALL
GASTEIGER

@<TRIPOS>ATOM
      1 C          -2.6876    2.9368    0.5670 C.3     1  UNL1       -0.0411
      2 C          -2.5133    1.6976   -0.3650 C.3     1  UNL1        0.0614
      3 N          -3.1201    0.5352    0.1749 N.am    1  UNL1       -0.3032
      4 C          -3.9904    0.0086    1.0121 C.2     1  UNL1        0.2516
      5 O          -4.6013    0.9132    1.8112 O.2     1  UNL1       -0.2699
      6 C          -4.4288   -1.3348    1.2617 C.ar    1  UNL1        0.1218
      7 C          -4.9427   -1.9750    2.3558 C.ar    1  UNL1        0.1529
      8 N          -5.2041   -1.3347    3.5825 N.pl3   1  UNL1       -0.3411
      9 N          -5.2427   -3.2922    2.0598 N.ar    1  UNL1       -0.1495
     10 N          -4.8760   -3.4148    0.6733 N.ar    1  UNL1       -0.2192
     11 C          -5.0568   -4.6067   -0.0047 C.ar    1  UNL1        0.0329
     12 C          -4.6392   -4.4164   -1.3885 C.ar    1  UNL1       -0.0253
     13 C          -4.1994   -3.2786   -1.7417 C.ar    1  UNL1        0.0314
     14 N          -4.0087   -2.1073   -1.0675 N.ar    1  UNL1       -0.2354
     15 C          -4.4533   -2.3723    0.3180 C.ar    1  UNL1        0.1695
     16 C          -1.1494    1.4727   -0.8073 C.ar    1  UNL1        0.0477
     17 C          -0.9484    1.5487   -2.2529 C.ar    1  UNL1       -0.0321
     18 C           0.2301    1.3072   -2.8204 C.ar    1  UNL1       -0.0098
     19 C           0.4768    1.3220   -4.0830 C.ar    1  UNL1       -0.0537
     20 C           1.6099    1.0544   -4.7806 C.ar    1  UNL1       -0.0600
     21 C           2.6345    0.7125   -3.9819 C.ar    1  UNL1       -0.0455
     22 C           2.4516    0.6720   -2.4836 C.ar    1  UNL1        0.0382
     23 C           3.7041    0.4223   -1.9340 C.1     1  UNL1       -0.0602
     24 C           4.9256    0.1923   -1.4143 C.1     1  UNL1       -0.0579
     25 C           6.3183   -0.0454   -0.8257 C.ar    1  UNL1        0.0626
     26 C           7.0231    0.9188   -0.2485 C.ar    1  UNL1        0.0648
     27 N           8.0776    0.2790    0.3533 N.ar    1  UNL1       -0.1787
     28 N           8.0230   -1.0115    0.1590 N.ar    1  UNL1       -0.2733
     29 C           8.8661   -2.0653    0.5935 C.3     1  UNL1        0.0302
     30 C           6.8723   -1.2693   -0.6083 C.ar    1  UNL1        0.0406
     31 C           1.3258    0.9536   -1.9640 C.ar    1  UNL1        0.0624
     32 C           1.1876    0.8681   -0.5487 C.ar    1  UNL1        0.2649
     33 O           2.0512    0.5584    0.2012 O.2     1  UNL1       -0.2666
     34 N          -0.0585    1.1545   -0.1693 N.ar    1  UNL1       -0.2789
     35 C          -0.2063    1.3395    1.3086 C.ar    1  UNL1        0.0498
     36 C           0.2762    2.5773    1.6915 C.ar    1  UNL1       -0.0377
     37 C           0.0771    2.9988    2.9874 C.ar    1  UNL1       -0.0598
     38 C          -0.5712    2.2362    3.9199 C.ar    1  UNL1       -0.0616
     39 C          -1.0721    0.9645    3.5087 C.ar    1  UNL1       -0.0598
     40 C          -0.8644    0.5637    2.2126 C.ar    1  UNL1       -0.0377
     41 H          -3.7023    3.3020    0.4003 H       1  UNL1        0.0251
     42 H          -2.5548    2.6769    1.6153 H       1  UNL1        0.0251
     43 H          -2.0204    3.7426    0.1516 H       1  UNL1        0.0251
     44 H          -3.2012    2.0027   -1.2457 H       1  UNL1        0.0560
     45 H          -2.5367   -0.3780   -0.4585 H       1  UNL1        0.1497
     46 H          -4.7348   -1.7326    4.5238 H       1  UNL1        0.1438
     47 H          -5.8289   -0.5151    3.6057 H       1  UNL1        0.1438
     48 H          -5.3688   -5.5034    0.3231 H       1  UNL1        0.0831
     49 H          -4.7821   -5.3643   -2.0235 H       1  UNL1        0.0648
     50 H          -3.8980   -3.1241   -2.8404 H       1  UNL1        0.0831
     51 H          -1.8428    1.8038   -2.8657 H       1  UNL1        0.0642
     52 H          -0.3745    1.7139   -4.7553 H       1  UNL1        0.0624
     53 H           1.6758    1.0997   -5.8429 H       1  UNL1        0.0618
     54 H           3.5896    0.4084   -4.3336 H       1  UNL1        0.0630
     55 H           6.8348    1.9974   -0.2196 H       1  UNL1        0.0860
     56 H           9.7802   -2.2242    0.0072 H       1  UNL1        0.0473
     57 H           8.2810   -3.0708    0.6124 H       1  UNL1        0.0473
     58 H           9.1796   -1.9065    1.7031 H       1  UNL1        0.0473
     59 H           6.4984   -2.2034   -0.9441 H       1  UNL1        0.0838
     60 H           0.8367    3.2027    0.9879 H       1  UNL1        0.0638
     61 H           0.4763    3.9645    3.3529 H       1  UNL1        0.0618
     62 H          -0.7914    2.5025    4.9257 H       1  UNL1        0.0618
     63 H          -1.5938    0.3624    4.2089 H       1  UNL1        0.0618
     64 H          -1.2181   -0.4410    1.8493 H       1  UNL1        0.0638
@<TRIPOS>BOND
     1     1     2    1
     2     2     3    1
     3     3     4   am
     4     4     5    2
     5     4     6    1
     6     6     7   ar
     7     7     8    1
     8     7     9   ar
     9     9    10   ar
    10    10    11   ar
    11    11    12   ar
    12    12    13   ar
    13    13    14   ar
    14    14    15   ar
    15     2    16    1
    16    16    17   ar
    17    17    18   ar
    18    18    19   ar
    19    19    20   ar
    20    20    21   ar
    21    21    22   ar
    22    22    23    1
    23    23    24    3
    24    24    25    1
    25    25    26   ar
    26    26    27   ar
    27    27    28   ar
    28    28    29    1
    29    28    30   ar
    30    22    31   ar
    31    31    32   ar
    32    32    33    2
    33    32    34   ar
    34    34    35    1
    35    35    36   ar
    36    36    37   ar
    37    37    38   ar
    38    38    39   ar
    39    39    40   ar
    40    15     6   ar
    41    34    16   ar
    42    40    35   ar
    43    15    10   ar
    44    31    18   ar
    45    30    25   ar
    46     1    41    1
    47     1    42    1
    48     1    43    1
    49     2    44    1
    50     3    45    1
    51     8    46    1
    52     8    47    1
    53    11    48    1
    54    12    49    1
    55    13    50    1
    56    17    51    1
    57    19    52    1
    58    20    53    1
    59    21    54    1
    60    26    55    1
    61    29    56    1
    62    29    57    1
    63    29    58    1
    64    30    59    1
    65    36    60    1
    66    37    61    1
    67    38    62    1
    68    39    63    1
    69    40    64    1
