@<TRIPOS>MOLECULE
*****
 61 65 0 0 0
SMALL
GASTEIGER

@<TRIPOS>ATOM
      1 O          -2.5389   -0.3536    2.0532 O.2     1  UNL1       -0.2866
      2 C          -2.4669    0.1898    0.8777 C.2     1  UNL1        0.1948
      3 C          -1.2305    0.1150    0.2036 C.ar    1  UNL1        0.0225
      4 C          -0.2851   -0.8046    0.6827 C.ar    1  UNL1       -0.0475
      5 C           0.9380   -0.9845    0.0721 C.ar    1  UNL1       -0.0193
      6 C           1.2929   -0.2725   -1.0340 C.ar    1  UNL1        0.1206
      7 O           2.4975   -0.4070   -1.6826 O.3     1  UNL1       -0.4907
      8 C           3.5947   -1.1814   -1.4719 C.3     1  UNL1        0.1022
      9 C           4.3495   -1.0345   -0.1901 C.3     1  UNL1        0.0331
     10 N           4.8695    0.2720    0.0709 N.3     1  UNL1       -0.2991
     11 C           5.5679    0.2161    1.3386 C.3     1  UNL1       -0.0010
     12 C           6.8474   -0.5970    1.2581 C.3     1  UNL1       -0.0402
     13 C           7.7618   -0.1078    0.1685 C.3     1  UNL1       -0.0507
     14 C           7.0256    0.1299   -1.1310 C.3     1  UNL1       -0.0402
     15 C           5.7229    0.8275   -0.9181 C.3     1  UNL1       -0.0010
     16 C           0.3665    0.6535   -1.5351 C.ar    1  UNL1       -0.0193
     17 C          -0.8338    0.7964   -0.8968 C.ar    1  UNL1       -0.0475
     18 C          -3.7455    0.8123    0.4197 C.ar    1  UNL1        0.0447
     19 C          -4.8384   -0.0221    0.3370 C.ar    1  UNL1        0.0313
     20 C          -5.0219   -1.4431    0.5002 C.ar    1  UNL1       -0.0104
     21 C          -6.3201   -1.9410    0.6872 C.ar    1  UNL1       -0.0501
     22 C          -6.5950   -3.2871    0.7948 C.ar    1  UNL1       -0.0196
     23 C          -5.5742   -4.2111    0.7201 C.ar    1  UNL1        0.1169
     24 O          -5.8066   -5.5773    0.8245 O.3     1  UNL1       -0.5068
     25 C          -4.2998   -3.7338    0.5362 C.ar    1  UNL1       -0.0196
     26 C          -4.0433   -2.3539    0.4285 C.ar    1  UNL1       -0.0501
     27 S          -6.1961    1.0472   -0.0435 S.2     1  UNL1       -0.0874
     28 C          -5.2205    2.5615   -0.0747 C.ar    1  UNL1        0.0241
     29 C          -5.5941    3.8834   -0.2953 C.ar    1  UNL1       -0.0058
     30 C          -4.6188    4.8724   -0.2275 C.ar    1  UNL1        0.1180
     31 O          -4.9340    6.1862   -0.4357 O.3     1  UNL1       -0.5067
     32 C          -3.3421    4.4712    0.0552 C.ar    1  UNL1       -0.0195
     33 C          -3.0205    3.1623    0.2636 C.ar    1  UNL1       -0.0494
     34 C          -3.9674    2.1265    0.2047 C.ar    1  UNL1        0.0008
     35 H          -0.4801   -1.4109    1.5588 H       1  UNL1        0.0626
     36 H           1.6213   -1.7309    0.4956 H       1  UNL1        0.0654
     37 H           4.2931   -1.0323   -2.3575 H       1  UNL1        0.0709
     38 H           3.3346   -2.2873   -1.5342 H       1  UNL1        0.0709
     39 H           5.2637   -1.7003   -0.3053 H       1  UNL1        0.0460
     40 H           3.8663   -1.3944    0.7122 H       1  UNL1        0.0460
     41 H           4.8954   -0.3384    2.0543 H       1  UNL1        0.0427
     42 H           5.7397    1.2167    1.7871 H       1  UNL1        0.0427
     43 H           6.6198   -1.6640    1.2000 H       1  UNL1        0.0278
     44 H           7.3749   -0.4373    2.2347 H       1  UNL1        0.0278
     45 H           8.5155   -0.9009   -0.0115 H       1  UNL1        0.0266
     46 H           8.3072    0.8024    0.4820 H       1  UNL1        0.0266
     47 H           6.9254   -0.7928   -1.7317 H       1  UNL1        0.0278
     48 H           7.6718    0.8247   -1.7226 H       1  UNL1        0.0278
     49 H           5.9813    1.8700   -0.5641 H       1  UNL1        0.0427
     50 H           5.2310    0.9611   -1.9036 H       1  UNL1        0.0427
     51 H           0.6499    1.2199   -2.4160 H       1  UNL1        0.0654
     52 H          -1.5166    1.5114   -1.3469 H       1  UNL1        0.0626
     53 H          -7.1403   -1.2306    0.7498 H       1  UNL1        0.0625
     54 H          -7.6082   -3.6594    0.9410 H       1  UNL1        0.0654
     55 H          -6.4782   -6.0746    0.2659 H       1  UNL1        0.2921
     56 H          -3.4940   -4.4673    0.4782 H       1  UNL1        0.0654
     57 H          -3.0261   -2.0885    0.2527 H       1  UNL1        0.0625
     58 H          -6.6223    4.1047   -0.5115 H       1  UNL1        0.0665
     59 H          -5.7224    6.4866   -1.0133 H       1  UNL1        0.2921
     60 H          -2.5443    5.2518    0.1121 H       1  UNL1        0.0654
     61 H          -1.9990    2.9496    0.4937 H       1  UNL1        0.0625
@<TRIPOS>BOND
     1     1     2    2
     2     2     3    1
     3     3     4   ar
     4     4     5   ar
     5     5     6   ar
     6     6     7    1
     7     7     8    1
     8     8     9    1
     9     9    10    1
    10    10    11    1
    11    11    12    1
    12    12    13    1
    13    13    14    1
    14    14    15    1
    15     6    16   ar
    16    16    17   ar
    17     2    18    1
    18    18    19   ar
    19    19    20    1
    20    20    21   ar
    21    21    22   ar
    22    22    23   ar
    23    23    24    1
    24    23    25   ar
    25    25    26   ar
    26    19    27   ar
    27    27    28   ar
    28    28    29   ar
    29    29    30   ar
    30    30    31    1
    31    30    32   ar
    32    32    33   ar
    33    33    34   ar
    34    17     3   ar
    35    34    18   ar
    36    15    10    1
    37    26    20   ar
    38    34    28   ar
    39     4    35    1
    40     5    36    1
    41     8    37    1
    42     8    38    1
    43     9    39    1
    44     9    40    1
    45    11    41    1
    46    11    42    1
    47    12    43    1
    48    12    44    1
    49    13    45    1
    50    13    46    1
    51    14    47    1
    52    14    48    1
    53    15    49    1
    54    15    50    1
    55    16    51    1
    56    17    52    1
    57    21    53    1
    58    22    54    1
    59    24    55    1
    60    25    56    1
    61    26    57    1
    62    29    58    1
    63    31    59    1
    64    32    60    1
    65    33    61    1
