@<TRIPOS>MOLECULE
*****
 69 74 0 0 0
SMALL
GASTEIGER

@<TRIPOS>ATOM
      1 C          -4.9520   -1.2176   -2.0794 C.3     1  UNL1       -0.0380
      2 C          -5.9451   -1.4261   -0.9958 C.ar    1  UNL1       -0.0279
      3 C          -7.2857   -1.1722   -1.2824 C.ar    1  UNL1       -0.0557
      4 C          -8.2232   -1.3850   -0.3006 C.ar    1  UNL1       -0.0433
      5 C          -7.8351   -1.8439    0.9499 C.ar    1  UNL1        0.0279
      6 N          -6.5378   -2.0675    1.1621 N.ar    1  UNL1       -0.2583
      7 C          -5.5614   -1.8749    0.2297 C.ar    1  UNL1        0.0581
      8 C          -4.1335   -2.1274    0.5794 C.3     1  UNL1        0.0415
      9 N          -3.3768   -1.0210    0.9371 N.3     1  UNL1       -0.2965
     10 C          -1.9948   -1.1639    1.2189 C.3     1  UNL1        0.0017
     11 C          -1.3685    0.1882    1.5716 C.3     1  UNL1       -0.0095
     12 C          -1.3540    1.0179    0.3103 C.3     1  UNL1        0.1254
     13 C          -2.6708    0.9100   -0.3718 C.3     1  UNL1       -0.0095
     14 C          -3.7171    0.2952    0.5834 C.3     1  UNL1        0.0017
     15 C          -0.2448    0.4317   -0.5302 C.2     1  UNL1        0.2517
     16 O          -0.3910   -0.4033   -1.4629 O.2     1  UNL1       -0.2724
     17 N           0.9447    1.0216   -0.0374 N.am    1  UNL1       -0.1920
     18 C           2.2387    0.4800   -0.1951 C.ar    1  UNL1        0.0455
     19 C           2.7901   -0.3965    0.7301 C.ar    1  UNL1       -0.0392
     20 C           4.0451   -0.9244    0.5800 C.ar    1  UNL1       -0.0523
     21 C           4.8219   -0.6017   -0.5119 C.ar    1  UNL1       -0.0178
     22 C           6.1710   -1.1733   -0.6769 C.ar    1  UNL1       -0.0178
     23 C           6.9173   -1.4609    0.4345 C.ar    1  UNL1       -0.0533
     24 C           8.1988   -2.0082    0.3173 C.ar    1  UNL1       -0.0472
     25 C           8.7489   -2.2741   -0.9188 C.ar    1  UNL1        0.0589
     26 C          10.0842   -2.8490   -1.0697 C.2     1  UNL1        0.3368
     27 O          10.5303   -3.0670   -2.2204 O.2     1  UNL1       -0.2451
     28 O          10.9033   -3.1747   -0.0016 O.3     1  UNL1       -0.4771
     29 C           7.9918   -1.9816   -2.0314 C.ar    1  UNL1       -0.0472
     30 C           6.7149   -1.4364   -1.9136 C.ar    1  UNL1       -0.0533
     31 C           4.2963    0.2653   -1.4426 C.ar    1  UNL1       -0.0523
     32 C           3.0113    0.8036   -1.2850 C.ar    1  UNL1       -0.0392
     33 C           0.5522    2.2140    0.6234 C.2     1  UNL1        0.3230
     34 O           1.3399    3.0331    1.2023 O.2     1  UNL1       -0.2511
     35 N          -0.8801    2.3522    0.5360 N.am    1  UNL1       -0.2083
     36 C          -1.5626    3.5961    0.6700 C.ar    1  UNL1        0.2263
     37 N          -2.8924    3.6914    0.5877 N.ar    1  UNL1       -0.2224
     38 C          -3.5998    4.8153    0.7078 C.ar    1  UNL1        0.0326
     39 C          -2.9154    6.0136    0.9411 C.ar    1  UNL1       -0.0253
     40 C          -1.5411    5.9061    1.0243 C.ar    1  UNL1        0.0326
     41 N          -0.8788    4.7484    0.8957 N.ar    1  UNL1       -0.2224
     42 H          -3.9828   -1.6835   -1.9087 H       1  UNL1        0.0278
     43 H          -5.3813   -1.6844   -3.0126 H       1  UNL1        0.0278
     44 H          -4.9003   -0.1249   -2.3400 H       1  UNL1        0.0278
     45 H          -7.5406   -0.8089   -2.2907 H       1  UNL1        0.0621
     46 H          -9.2743   -1.1936   -0.5019 H       1  UNL1        0.0633
     47 H          -8.5936   -2.0124    1.7313 H       1  UNL1        0.0829
     48 H          -4.1669   -2.8324    1.4720 H       1  UNL1        0.0491
     49 H          -3.6486   -2.7679   -0.2074 H       1  UNL1        0.0491
     50 H          -1.4317   -1.5521    0.3370 H       1  UNL1        0.0427
     51 H          -1.8481   -1.8695    2.0586 H       1  UNL1        0.0427
     52 H          -0.3084   -0.0410    1.8315 H       1  UNL1        0.0303
     53 H          -1.8818    0.6757    2.4032 H       1  UNL1        0.0303
     54 H          -2.5800    0.1593   -1.2105 H       1  UNL1        0.0303
     55 H          -3.0723    1.8112   -0.8252 H       1  UNL1        0.0303
     56 H          -4.6920    0.4939    0.1480 H       1  UNL1        0.0427
     57 H          -3.7099    0.8988    1.5457 H       1  UNL1        0.0427
     58 H           2.1967   -0.6620    1.5938 H       1  UNL1        0.0636
     59 H           4.4269   -1.5990    1.3251 H       1  UNL1        0.0624
     60 H           6.5223   -1.2669    1.4316 H       1  UNL1        0.0624
     61 H           8.7943   -2.2386    1.1959 H       1  UNL1        0.0626
     62 H          11.7268   -3.7651   -0.0802 H       1  UNL1        0.2954
     63 H           8.4322   -2.1943   -3.0046 H       1  UNL1        0.0626
     64 H           6.1328   -1.2122   -2.7954 H       1  UNL1        0.0624
     65 H           4.8561    0.5558   -2.3188 H       1  UNL1        0.0624
     66 H           2.5884    1.4898   -2.0167 H       1  UNL1        0.0636
     67 H          -4.6768    4.8921    0.6406 H       1  UNL1        0.0831
     68 H          -3.4293    6.9541    1.0478 H       1  UNL1        0.0648
     69 H          -0.9969    6.8456    1.2076 H       1  UNL1        0.0831
@<TRIPOS>BOND
     1     1     2    1
     2     2     3   ar
     3     3     4   ar
     4     4     5   ar
     5     5     6   ar
     6     6     7   ar
     7     7     8    1
     8     8     9    1
     9     9    10    1
    10    10    11    1
    11    11    12    1
    12    12    13    1
    13    13    14    1
    14    12    15    1
    15    15    16    2
    16    15    17   am
    17    17    18    1
    18    18    19   ar
    19    19    20   ar
    20    20    21   ar
    21    21    22    1
    22    22    23   ar
    23    23    24   ar
    24    24    25   ar
    25    25    26    1
    26    26    27    2
    27    26    28    1
    28    25    29   ar
    29    29    30   ar
    30    21    31   ar
    31    31    32   ar
    32    17    33   am
    33    33    34    2
    34    33    35   am
    35    35    36    1
    36    36    37   ar
    37    37    38   ar
    38    38    39   ar
    39    39    40   ar
    40    40    41   ar
    41     7     2   ar
    42    14     9    1
    43    32    18   ar
    44    41    36   ar
    45    35    12    1
    46    30    22   ar
    47     1    42    1
    48     1    43    1
    49     1    44    1
    50     3    45    1
    51     4    46    1
    52     5    47    1
    53     8    48    1
    54     8    49    1
    55    10    50    1
    56    10    51    1
    57    11    52    1
    58    11    53    1
    59    13    54    1
    60    13    55    1
    61    14    56    1
    62    14    57    1
    63    19    58    1
    64    20    59    1
    65    23    60    1
    66    24    61    1
    67    28    62    1
    68    29    63    1
    69    30    64    1
    70    31    65    1
    71    32    66    1
    72    38    67    1
    73    39    68    1
    74    40    69    1
