
     RDKit          3D

 53 55  0  0  0  0  0  0  0  0999 V2000
   -6.5294    2.8008   -0.1523 C   0  0  0  0  0  0  0  0  0  0  0  0
   -5.2754    3.5576   -0.4475 C   0  0  0  0  0  0  0  0  0  0  0  0
   -4.0855    2.7200   -0.4876 N   0  0  0  0  0  0  0  0  0  0  0  0
   -3.7689    2.2066    0.8342 C   0  0  0  0  0  0  0  0  0  0  0  0
   -4.2663    1.6322   -1.4403 C   0  0  0  0  0  0  0  0  0  0  0  0
   -2.9955    0.8556   -1.4722 C   0  0  0  0  0  0  0  0  0  0  0  0
   -1.9746    1.2094   -2.3661 C   0  0  0  0  0  0  0  0  0  0  0  0
   -0.7961    0.4963   -2.4105 C   0  0  0  0  0  0  0  0  0  0  0  0
   -0.5572   -0.5850   -1.5949 C   0  0  0  0  0  0  0  0  0  0  0  0
    0.7092   -1.3008   -1.6856 C   0  0  0  0  0  0  0  0  0  0  0  0
    1.5838   -0.9117   -2.5147 O   0  0  0  0  0  0  0  0  0  0  0  0
    1.0523   -2.4210   -0.9067 N   0  0  0  0  0  0  0  0  0  0  0  0
    2.2939   -3.1049   -1.0093 C   0  0  0  0  0  0  0  0  0  0  0  0
    2.4356   -4.1619   -1.8942 C   0  0  0  0  0  0  0  0  0  0  0  0
    3.6479   -4.8322   -1.9980 C   0  0  0  0  0  0  0  0  0  0  0  0
    4.7039   -4.4290   -1.2081 C   0  0  0  0  0  0  0  0  0  0  0  0
    6.2403   -5.2620   -1.3252 Cl  0  0  0  0  0  0  0  0  0  0  0  0
    4.5497   -3.3747   -0.3305 C   0  0  0  0  0  0  0  0  0  0  0  0
    3.3369   -2.6885   -0.2127 C   0  0  0  0  0  0  0  0  0  0  0  0
    3.1324   -1.5846    0.6907 C   0  0  0  0  0  0  0  0  0  0  0  0
    2.0192   -1.0193    0.7311 O   0  0  0  0  0  0  0  0  0  0  0  0
    4.1522   -1.1002    1.5520 N   0  0  0  0  0  0  0  0  0  0  0  0
    3.8874    0.0055    2.4339 C   0  0  0  0  0  0  0  0  0  0  0  0
    4.8686    0.4715    3.2780 C   0  0  0  0  0  0  0  0  0  0  0  0
    4.6083    1.5464    4.1374 C   0  0  0  0  0  0  0  0  0  0  0  0
    3.3635    2.1153    4.1148 C   0  0  0  0  0  0  0  0  0  0  0  0
    2.9645    3.4778    5.1726 Cl  0  0  0  0  0  0  0  0  0  0  0  0
    2.3931    1.6360    3.2631 C   0  0  0  0  0  0  0  0  0  0  0  0
    2.6677    0.6023    2.4473 N   0  0  0  0  0  0  0  0  0  0  0  0
   -1.5514   -0.9425   -0.7128 C   0  0  0  0  0  0  0  0  0  0  0  0
   -2.7463   -0.2278   -0.6603 C   0  0  0  0  0  0  0  0  0  0  0  0
   -7.1477    3.4292    0.5386 H   0  0  0  0  0  0  0  0  0  0  0  0
   -7.1689    2.6981   -1.0760 H   0  0  0  0  0  0  0  0  0  0  0  0
   -6.3884    1.8225    0.3127 H   0  0  0  0  0  0  0  0  0  0  0  0
   -5.3705    3.9884   -1.4788 H   0  0  0  0  0  0  0  0  0  0  0  0
   -5.0754    4.4035    0.2222 H   0  0  0  0  0  0  0  0  0  0  0  0
   -3.8772    3.0272    1.5813 H   0  0  0  0  0  0  0  0  0  0  0  0
   -2.7722    1.7488    0.8032 H   0  0  0  0  0  0  0  0  0  0  0  0
   -4.5252    1.4024    1.0309 H   0  0  0  0  0  0  0  0  0  0  0  0
   -4.4212    2.0312   -2.4599 H   0  0  0  0  0  0  0  0  0  0  0  0
   -5.1252    1.0060   -1.1462 H   0  0  0  0  0  0  0  0  0  0  0  0
   -2.1458    2.0588   -3.0165 H   0  0  0  0  0  0  0  0  0  0  0  0
    0.0095    0.7718   -3.1123 H   0  0  0  0  0  0  0  0  0  0  0  0
    0.3680   -2.7835   -0.2099 H   0  0  0  0  0  0  0  0  0  0  0  0
    1.6281   -4.5016   -2.5258 H   0  0  0  0  0  0  0  0  0  0  0  0
    3.7369   -5.6566   -2.6969 H   0  0  0  0  0  0  0  0  0  0  0  0
    5.3617   -3.0427    0.2954 H   0  0  0  0  0  0  0  0  0  0  0  0
    5.1054   -1.5127    1.5796 H   0  0  0  0  0  0  0  0  0  0  0  0
    5.8641    0.0081    3.2876 H   0  0  0  0  0  0  0  0  0  0  0  0
    5.3856    1.9138    4.8060 H   0  0  0  0  0  0  0  0  0  0  0  0
    1.4251    2.1194    3.2831 H   0  0  0  0  0  0  0  0  0  0  0  0
   -1.4033   -1.7866   -0.0540 H   0  0  0  0  0  0  0  0  0  0  0  0
   -3.5273   -0.5325    0.0530 H   0  0  0  0  0  0  0  0  0  0  0  0
  1  2  1  0
  2  3  1  0
  3  4  1  0
  3  5  1  0
  5  6  1  0
  6  7  2  0
  7  8  1  0
  8  9  2  0
  9 10  1  0
 10 11  2  0
 10 12  1  0
 12 13  1  0
 13 14  2  0
 14 15  1  0
 15 16  2  0
 16 17  1  0
 16 18  1  0
 18 19  2  0
 19 20  1  0
 20 21  2  0
 20 22  1  0
 22 23  1  0
 23 24  2  0
 24 25  1  0
 25 26  2  0
 26 27  1  0
 26 28  1  0
 28 29  2  0
  9 30  1  0
 30 31  2  0
 31  6  1  0
 19 13  1  0
 29 23  1  0
  1 32  1  0
  1 33  1  0
  1 34  1  0
  2 35  1  0
  2 36  1  0
  4 37  1  0
  4 38  1  0
  4 39  1  0
  5 40  1  0
  5 41  1  0
  7 42  1  0
  8 43  1  0
 12 44  1  0
 14 45  1  0
 15 46  1  0
 18 47  1  0
 22 48  1  0
 24 49  1  0
 25 50  1  0
 28 51  1  0
 30 52  1  0
 31 53  1  0
M  END
$$$$
