@<TRIPOS>MOLECULE
*****
 53 55 0 0 0
SMALL
GASTEIGER

@<TRIPOS>ATOM
      1 C          -6.5294    2.8008   -0.1523 C.3     1  UNL1       -0.0524
      2 C          -5.2754    3.5576   -0.4475 C.3     1  UNL1       -0.0039
      3 N          -4.0855    2.7200   -0.4876 N.3     1  UNL1       -0.3014
      4 C          -3.7689    2.2066    0.8342 C.3     1  UNL1       -0.0124
      5 C          -4.2663    1.6322   -1.4403 C.3     1  UNL1        0.0237
      6 C          -2.9955    0.8556   -1.4722 C.ar    1  UNL1       -0.0333
      7 C          -1.9746    1.2094   -2.3661 C.ar    1  UNL1       -0.0566
      8 C          -0.7961    0.4963   -2.4105 C.ar    1  UNL1       -0.0493
      9 C          -0.5572   -0.5850   -1.5949 C.ar    1  UNL1        0.0370
     10 C           0.7092   -1.3008   -1.6856 C.2     1  UNL1        0.2483
     11 O           1.5838   -0.9117   -2.5147 O.2     1  UNL1       -0.2699
     12 N           1.0523   -2.4210   -0.9067 N.am    1  UNL1       -0.2808
     13 C           2.2939   -3.1049   -1.0093 C.ar    1  UNL1        0.0459
     14 C           2.4356   -4.1619   -1.8942 C.ar    1  UNL1       -0.0384
     15 C           3.6479   -4.8322   -1.9980 C.ar    1  UNL1       -0.0416
     16 C           4.7039   -4.4290   -1.2081 C.ar    1  UNL1        0.0418
     17 CL          6.2403   -5.2620   -1.3252 Cl      1  UNL1       -0.0835
     18 C           4.5497   -3.3747   -0.3305 C.ar    1  UNL1       -0.0295
     19 C           3.3369   -2.6885   -0.2127 C.ar    1  UNL1        0.0596
     20 C           3.1324   -1.5846    0.6907 C.2     1  UNL1        0.2511
     21 O           2.0192   -1.0193    0.7311 O.2     1  UNL1       -0.2697
     22 N           4.1522   -1.1002    1.5520 N.am    1  UNL1       -0.2663
     23 C           3.8874    0.0055    2.4339 C.ar    1  UNL1        0.1252
     24 C           4.8686    0.4715    3.2780 C.ar    1  UNL1       -0.0201
     25 C           4.6083    1.5464    4.1374 C.ar    1  UNL1       -0.0387
     26 C           3.3635    2.1153    4.1148 C.ar    1  UNL1        0.0592
     27 CL          2.9645    3.4778    5.1726 Cl      1  UNL1       -0.0820
     28 C           2.3931    1.6360    3.2631 C.ar    1  UNL1        0.0480
     29 N           2.6677    0.6023    2.4473 N.ar    1  UNL1       -0.2387
     30 C          -1.5514   -0.9425   -0.7128 C.ar    1  UNL1       -0.0493
     31 C          -2.7463   -0.2278   -0.6603 C.ar    1  UNL1       -0.0566
     32 H          -7.1477    3.4292    0.5386 H       1  UNL1        0.0242
     33 H          -7.1689    2.6981   -1.0760 H       1  UNL1        0.0242
     34 H          -6.3884    1.8225    0.3127 H       1  UNL1        0.0242
     35 H          -5.3705    3.9884   -1.4788 H       1  UNL1        0.0424
     36 H          -5.0754    4.4035    0.2222 H       1  UNL1        0.0424
     37 H          -3.8772    3.0272    1.5813 H       1  UNL1        0.0391
     38 H          -2.7722    1.7488    0.8032 H       1  UNL1        0.0391
     39 H          -4.5252    1.4024    1.0309 H       1  UNL1        0.0391
     40 H          -4.4212    2.0312   -2.4599 H       1  UNL1        0.0476
     41 H          -5.1252    1.0060   -1.1462 H       1  UNL1        0.0476
     42 H          -2.1458    2.0588   -3.0165 H       1  UNL1        0.0621
     43 H           0.0095    0.7718   -3.1123 H       1  UNL1        0.0625
     44 H           0.3680   -2.7835   -0.2099 H       1  UNL1        0.1552
     45 H           1.6281   -4.5016   -2.5258 H       1  UNL1        0.0637
     46 H           3.7369   -5.6566   -2.6969 H       1  UNL1        0.0633
     47 H           5.3617   -3.0427    0.2954 H       1  UNL1        0.0640
     48 H           5.1054   -1.5127    1.5796 H       1  UNL1        0.1566
     49 H           5.8641    0.0081    3.2876 H       1  UNL1        0.0652
     50 H           5.3856    1.9138    4.8060 H       1  UNL1        0.0634
     51 H           1.4251    2.1194    3.2831 H       1  UNL1        0.0845
     52 H          -1.4033   -1.7866   -0.0540 H       1  UNL1        0.0625
     53 H          -3.5273   -0.5325    0.0530 H       1  UNL1        0.0621
@<TRIPOS>BOND
     1     1     2    1
     2     2     3    1
     3     3     4    1
     4     3     5    1
     5     5     6    1
     6     6     7   ar
     7     7     8   ar
     8     8     9   ar
     9     9    10    1
    10    10    11    2
    11    10    12   am
    12    12    13    1
    13    13    14   ar
    14    14    15   ar
    15    15    16   ar
    16    16    17    1
    17    16    18   ar
    18    18    19   ar
    19    19    20    1
    20    20    21    2
    21    20    22   am
    22    22    23    1
    23    23    24   ar
    24    24    25   ar
    25    25    26   ar
    26    26    27    1
    27    26    28   ar
    28    28    29   ar
    29     9    30   ar
    30    30    31   ar
    31    31     6   ar
    32    19    13   ar
    33    29    23   ar
    34     1    32    1
    35     1    33    1
    36     1    34    1
    37     2    35    1
    38     2    36    1
    39     4    37    1
    40     4    38    1
    41     4    39    1
    42     5    40    1
    43     5    41    1
    44     7    42    1
    45     8    43    1
    46    12    44    1
    47    14    45    1
    48    15    46    1
    49    18    47    1
    50    22    48    1
    51    24    49    1
    52    25    50    1
    53    28    51    1
    54    30    52    1
    55    31    53    1
