@<TRIPOS>MOLECULE
*****
 55 59 0 0 0
SMALL
GASTEIGER

@<TRIPOS>ATOM
      1 N1         -7.2005   -3.4559    1.3664 N.3     1  <1>        -0.2035
      2 S1         -5.9290   -3.6483    2.5175 S.O2    1  <1>         0.0559
      3 O1         -6.1986   -2.8128    3.7352 O.2     1  <1>        -0.1533
      4 O2         -5.7788   -5.0824    2.8836 O.2     1  <1>        -0.1533
      5 C1         -4.4272   -3.0800    1.8035 C.ar    1  <1>         0.1051
      6 C2         -3.5927   -3.9014    1.0975 C.ar    1  <1>        -0.0336
      7 C3         -2.4268   -3.4000    0.5596 C.ar    1  <1>        -0.0387
      8 C4         -2.0688   -2.0790    0.7116 C.ar    1  <1>         0.0315
      9 N2         -0.8610   -1.6074    0.1738 N.pl3   1  <1>        -0.3116
     10 C5         -0.6404   -0.3721   -0.4715 C.ar    1  <1>         0.0778
     11 C6         -1.5602    0.6098   -0.7467 C.ar    1  <1>         0.0552
     12 N3         -0.9310    1.6247   -1.3441 N.ar    1  <1>        -0.2134
     13 C7         -1.5792    2.8773   -1.7986 C.ar    1  <1>         0.1945
     14 N4         -2.1037    3.8217   -1.4816 N.ar    1  <1>        -0.2145
     15 C8         -2.6019    4.8189   -2.1701 C.ar    1  <1>         0.1568
     16 C9         -3.2793    6.0238   -1.6115 C.2     1  <1>         0.3559
     17 O3         -3.7233    6.9260   -2.3600 O.2     1  <1>        -0.2434
     18 O4         -3.4542    6.2121   -0.2505 O.3     1  <1>        -0.4761
     19 C10        -2.4520    4.6798   -3.5566 C.ar    1  <1>         0.0116
     20 S2         -1.5961    3.0992   -3.6816 S.2     1  <1>        -0.0554
     21 N5          0.3291    1.3379   -1.4611 N.ar    1  <1>        -0.1627
     22 C11         0.5682    0.1051   -0.9351 C.ar    1  <1>         0.1143
     23 C12         1.8625   -0.5728   -0.8655 C.ar    1  <1>         0.0045
     24 C13         2.0685   -1.8728   -1.2631 C.ar    1  <1>        -0.0524
     25 C14         3.2982   -2.5005   -1.1756 C.ar    1  <1>        -0.0606
     26 C15         4.3763   -1.8120   -0.6720 C.ar    1  <1>        -0.0540
     27 C16         4.2171   -0.4934   -0.2569 C.ar    1  <1>        -0.0173
     28 C17         5.3790    0.2271    0.2786 C.ar    1  <1>        -0.0179
     29 C18         6.6649   -0.0193   -0.1571 C.ar    1  <1>        -0.0540
     30 C19         7.7593    0.6619    0.3501 C.ar    1  <1>        -0.0612
     31 C20         7.5746    1.6206    1.3228 C.ar    1  <1>        -0.0617
     32 C21         6.2937    1.8863    1.7768 C.ar    1  <1>        -0.0612
     33 C22         5.2109    1.1897    1.2526 C.ar    1  <1>        -0.0540
     34 C23         2.9776    0.0940   -0.3605 C.ar    1  <1>        -0.0447
     35 C24        -2.8961   -1.2506    1.4162 C.ar    1  <1>        -0.0387
     36 C25        -4.0677   -1.7601    1.9548 C.ar    1  <1>        -0.0336
     37 H1         -7.6009   -4.3906    1.1342 H       1  <1>         0.1442
     38 H2         -6.8431   -3.0050    0.4912 H       1  <1>         0.1442
     39 H3         -3.8929   -4.9448    0.9876 H       1  <1>         0.0638
     40 H4         -1.7812   -4.0892   -0.0011 H       1  <1>         0.0637
     41 H5         -0.0152   -2.2515    0.2706 H       1  <1>         0.1523
     42 H6         -2.6256    0.6367   -0.5595 H       1  <1>         0.0850
     43 H7         -3.6699    7.1204    0.1567 H       1  <1>         0.2955
     44 H8         -2.7513    5.3189   -4.3659 H       1  <1>         0.0718
     45 H9          1.2652   -2.4569   -1.6752 H       1  <1>         0.0624
     46 H10         3.4529   -3.5252   -1.4905 H       1  <1>         0.0618
     47 H11         5.3667   -2.2579   -0.5809 H       1  <1>         0.0624
     48 H12         6.8047   -0.7688   -0.9168 H       1  <1>         0.0624
     49 H13         8.7731    0.4811    0.0199 H       1  <1>         0.0618
     50 H14         8.4437    2.1564    1.7205 H       1  <1>         0.0618
     51 H15         6.1740    2.6427    2.5403 H       1  <1>         0.0618
     52 H16         4.2343    1.4299    1.6360 H       1  <1>         0.0624
     53 H17         2.8357    1.1109   -0.0450 H       1  <1>         0.0630
     54 H18        -2.6624   -0.2069    1.5847 H       1  <1>         0.0637
     55 H19        -4.7194   -1.0956    2.5124 H       1  <1>         0.0638
@<TRIPOS>BOND
     1     1     2    1
     2     2     3    2
     3     2     4    2
     4     2     5    1
     5     5     6   ar
     6     6     7   ar
     7     7     8   ar
     8     8     9    1
     9     9    10    1
    10    10    11   ar
    11    11    12   ar
    12    12    13    1
    13    13    14   ar
    14    14    15   ar
    15    15    16    1
    16    16    17    2
    17    16    18    1
    18    15    19   ar
    19    19    20   ar
    20    12    21   ar
    21    21    22   ar
    22    22    23    1
    23    23    24   ar
    24    24    25   ar
    25    25    26   ar
    26    26    27   ar
    27    27    28    1
    28    28    29   ar
    29    29    30   ar
    30    30    31   ar
    31    31    32   ar
    32    32    33   ar
    33    27    34   ar
    34     8    35   ar
    35    35    36   ar
    36    36     5   ar
    37    22    10   ar
    38    34    23   ar
    39    20    13   ar
    40    33    28   ar
    41     1    37    1
    42     1    38    1
    43     6    39    1
    44     7    40    1
    45     9    41    1
    46    11    42    1
    47    18    43    1
    48    19    44    1
    49    24    45    1
    50    25    46    1
    51    26    47    1
    52    29    48    1
    53    30    49    1
    54    31    50    1
    55    32    51    1
    56    33    52    1
    57    34    53    1
    58    35    54    1
    59    36    55    1
