
     RDKit          3D

 55 59  0  0  0  0  0  0  0  0999 V2000
   -7.2005   -3.4559    1.3664 N   0  0  0  0  0  0  0  0  0  0  0  0
   -5.9290   -3.6483    2.5175 S   0  0  0  0  0  6  0  0  0  0  0  0
   -6.1986   -2.8128    3.7352 O   0  0  0  0  0  0  0  0  0  0  0  0
   -5.7788   -5.0824    2.8836 O   0  0  0  0  0  0  0  0  0  0  0  0
   -4.4272   -3.0800    1.8035 C   0  0  0  0  0  0  0  0  0  0  0  0
   -3.5927   -3.9014    1.0975 C   0  0  0  0  0  0  0  0  0  0  0  0
   -2.4268   -3.4000    0.5596 C   0  0  0  0  0  0  0  0  0  0  0  0
   -2.0688   -2.0790    0.7116 C   0  0  0  0  0  0  0  0  0  0  0  0
   -0.8610   -1.6074    0.1738 N   0  0  0  0  0  0  0  0  0  0  0  0
   -0.6404   -0.3721   -0.4715 C   0  0  0  0  0  0  0  0  0  0  0  0
   -1.5602    0.6098   -0.7467 C   0  0  0  0  0  0  0  0  0  0  0  0
   -0.9310    1.6247   -1.3441 N   0  0  0  0  0  0  0  0  0  0  0  0
   -1.5792    2.8773   -1.7986 C   0  0  0  0  0  0  0  0  0  0  0  0
   -2.1037    3.8217   -1.4816 N   0  0  0  0  0  0  0  0  0  0  0  0
   -2.6019    4.8189   -2.1701 C   0  0  0  0  0  0  0  0  0  0  0  0
   -3.2793    6.0238   -1.6115 C   0  0  0  0  0  0  0  0  0  0  0  0
   -3.7233    6.9260   -2.3600 O   0  0  0  0  0  0  0  0  0  0  0  0
   -3.4542    6.2121   -0.2505 O   0  0  0  0  0  0  0  0  0  0  0  0
   -2.4520    4.6798   -3.5566 C   0  0  0  0  0  0  0  0  0  0  0  0
   -1.5961    3.0992   -3.6816 S   0  0  0  0  0  0  0  0  0  0  0  0
    0.3291    1.3379   -1.4611 N   0  0  0  0  0  0  0  0  0  0  0  0
    0.5682    0.1051   -0.9351 C   0  0  0  0  0  0  0  0  0  0  0  0
    1.8625   -0.5728   -0.8655 C   0  0  0  0  0  0  0  0  0  0  0  0
    2.0685   -1.8728   -1.2631 C   0  0  0  0  0  0  0  0  0  0  0  0
    3.2982   -2.5005   -1.1756 C   0  0  0  0  0  0  0  0  0  0  0  0
    4.3763   -1.8120   -0.6720 C   0  0  0  0  0  0  0  0  0  0  0  0
    4.2171   -0.4934   -0.2569 C   0  0  0  0  0  0  0  0  0  0  0  0
    5.3790    0.2271    0.2786 C   0  0  0  0  0  0  0  0  0  0  0  0
    6.6649   -0.0193   -0.1571 C   0  0  0  0  0  0  0  0  0  0  0  0
    7.7593    0.6619    0.3501 C   0  0  0  0  0  0  0  0  0  0  0  0
    7.5746    1.6206    1.3228 C   0  0  0  0  0  0  0  0  0  0  0  0
    6.2937    1.8863    1.7768 C   0  0  0  0  0  0  0  0  0  0  0  0
    5.2109    1.1897    1.2526 C   0  0  0  0  0  0  0  0  0  0  0  0
    2.9776    0.0940   -0.3605 C   0  0  0  0  0  0  0  0  0  0  0  0
   -2.8961   -1.2506    1.4162 C   0  0  0  0  0  0  0  0  0  0  0  0
   -4.0677   -1.7601    1.9548 C   0  0  0  0  0  0  0  0  0  0  0  0
   -7.6009   -4.3906    1.1342 H   0  0  0  0  0  0  0  0  0  0  0  0
   -6.8431   -3.0050    0.4912 H   0  0  0  0  0  0  0  0  0  0  0  0
   -3.8929   -4.9448    0.9876 H   0  0  0  0  0  0  0  0  0  0  0  0
   -1.7812   -4.0892   -0.0011 H   0  0  0  0  0  0  0  0  0  0  0  0
   -0.0152   -2.2515    0.2706 H   0  0  0  0  0  0  0  0  0  0  0  0
   -2.6256    0.6367   -0.5595 H   0  0  0  0  0  0  0  0  0  0  0  0
   -3.6699    7.1204    0.1567 H   0  0  0  0  0  0  0  0  0  0  0  0
   -2.7513    5.3189   -4.3659 H   0  0  0  0  0  0  0  0  0  0  0  0
    1.2652   -2.4569   -1.6752 H   0  0  0  0  0  0  0  0  0  0  0  0
    3.4529   -3.5252   -1.4905 H   0  0  0  0  0  0  0  0  0  0  0  0
    5.3667   -2.2579   -0.5809 H   0  0  0  0  0  0  0  0  0  0  0  0
    6.8047   -0.7688   -0.9168 H   0  0  0  0  0  0  0  0  0  0  0  0
    8.7731    0.4811    0.0199 H   0  0  0  0  0  0  0  0  0  0  0  0
    8.4437    2.1564    1.7205 H   0  0  0  0  0  0  0  0  0  0  0  0
    6.1740    2.6427    2.5403 H   0  0  0  0  0  0  0  0  0  0  0  0
    4.2343    1.4299    1.6360 H   0  0  0  0  0  0  0  0  0  0  0  0
    2.8357    1.1109   -0.0450 H   0  0  0  0  0  0  0  0  0  0  0  0
   -2.6624   -0.2069    1.5847 H   0  0  0  0  0  0  0  0  0  0  0  0
   -4.7194   -1.0956    2.5124 H   0  0  0  0  0  0  0  0  0  0  0  0
  1  2  1  0
  2  3  2  0
  2  4  2  0
  2  5  1  0
  5  6  2  0
  6  7  1  0
  7  8  2  0
  8  9  1  0
  9 10  1  0
 10 11  2  0
 11 12  1  0
 12 13  1  0
 13 14  2  0
 14 15  1  0
 15 16  1  0
 16 17  2  0
 16 18  1  0
 15 19  2  0
 19 20  1  0
 12 21  1  0
 21 22  2  0
 22 23  1  0
 23 24  2  0
 24 25  1  0
 25 26  2  0
 26 27  1  0
 27 28  1  0
 28 29  2  0
 29 30  1  0
 30 31  2  0
 31 32  1  0
 32 33  2  0
 27 34  2  0
  8 35  1  0
 35 36  2  0
 36  5  1  0
 22 10  1  0
 34 23  1  0
 20 13  1  0
 33 28  1  0
  1 37  1  0
  1 38  1  0
  6 39  1  0
  7 40  1  0
  9 41  1  0
 11 42  1  0
 18 43  1  0
 19 44  1  0
 24 45  1  0
 25 46  1  0
 26 47  1  0
 29 48  1  0
 30 49  1  0
 31 50  1  0
 32 51  1  0
 33 52  1  0
 34 53  1  0
 35 54  1  0
 36 55  1  0
M  END
$$$$
