
     RDKit          3D

 63 67  0  0  0  0  0  0  0  0999 V2000
   -3.3396    4.2985   -0.2242 C   0  0  0  0  0  0  0  0  0  0  0  0
   -3.0857    2.8259   -0.3600 C   0  0  0  0  0  0  0  0  0  0  0  0
   -2.6774    2.2730   -1.5535 C   0  0  0  0  0  0  0  0  0  0  0  0
   -2.4454    0.9211   -1.6725 C   0  0  0  0  0  0  0  0  0  0  0  0
   -2.6129    0.0524   -0.5923 C   0  0  0  0  0  0  0  0  0  0  0  0
   -2.3756   -1.3724   -0.7785 C   0  0  0  0  0  0  0  0  0  0  0  0
   -3.4271   -2.0323   -1.1862 O   0  0  0  0  0  0  0  0  0  0  0  0
   -1.2176   -2.0978   -0.5867 N   0  0  0  0  0  0  0  0  0  0  0  0
   -1.2417   -3.5480   -0.8620 C   0  0  0  0  0  0  0  0  0  0  0  0
    0.1620   -3.8200   -1.4289 C   0  0  1  0  0  0  0  0  0  0  0  0
    0.0054   -4.9604   -2.4131 C   0  0  0  0  0  0  0  0  0  0  0  0
    0.6339   -2.7274   -2.1439 O   0  0  0  0  0  0  0  0  0  0  0  0
    0.9594   -1.6308   -1.3577 C   0  0  0  0  0  0  0  0  0  0  0  0
    0.0331   -1.6212   -0.1447 C   0  0  1  0  0  0  0  0  0  0  0  0
    0.1054   -0.3502    0.6118 C   0  0  0  0  0  0  0  0  0  0  0  0
    1.5514   -0.0725    0.9815 C   0  0  0  0  0  0  0  0  0  0  0  0
    2.0128   -0.5673    2.1800 C   0  0  0  0  0  0  0  0  0  0  0  0
    3.3227   -0.3508    2.5799 C   0  0  0  0  0  0  0  0  0  0  0  0
    4.1361    0.3769    1.7294 C   0  0  0  0  0  0  0  0  0  0  0  0
    3.7147    0.8889    0.5236 C   0  0  0  0  0  0  0  0  0  0  0  0
    4.5996    1.6485   -0.3423 C   0  0  0  0  0  0  0  0  0  0  0  0
    5.8663    1.8579    0.0441 N   0  0  0  0  0  0  0  0  0  0  0  0
    6.7595    2.5451   -0.6825 C   0  0  0  0  0  0  0  0  0  0  0  0
    6.3645    3.0654   -1.8874 C   0  0  0  0  0  0  0  0  0  0  0  0
    5.0727    2.8646   -2.3052 C   0  0  0  0  0  0  0  0  0  0  0  0
    4.2348    2.1661   -1.5239 N   0  0  0  0  0  0  0  0  0  0  0  0
    2.3882    0.6487    0.1574 C   0  0  0  0  0  0  0  0  0  0  0  0
   -3.0214    0.6132    0.5966 C   0  0  0  0  0  0  0  0  0  0  0  0
   -3.2197   -0.2117    1.7364 N   0  0  0  0  0  0  0  0  0  0  0  0
   -3.8880   -1.3678    1.6508 N   0  0  0  0  0  0  0  0  0  0  0  0
   -3.9311   -1.9396    2.8474 C   0  0  0  0  0  0  0  0  0  0  0  0
   -3.2614   -1.1024    3.7098 C   0  0  0  0  0  0  0  0  0  0  0  0
   -2.8450   -0.0568    2.9772 N   0  0  0  0  0  0  0  0  0  0  0  0
   -3.2525    1.9673    0.7112 C   0  0  0  0  0  0  0  0  0  0  0  0
   -3.6909    2.5227    2.0128 C   0  0  0  0  0  0  0  0  0  0  0  0
   -2.8926    4.7162    0.6855 H   0  0  0  0  0  0  0  0  0  0  0  0
   -3.0555    4.7883   -1.1561 H   0  0  0  0  0  0  0  0  0  0  0  0
   -4.4575    4.3930   -0.1360 H   0  0  0  0  0  0  0  0  0  0  0  0
   -2.5494    2.9628   -2.3929 H   0  0  0  0  0  0  0  0  0  0  0  0
   -2.1273    0.5399   -2.6290 H   0  0  0  0  0  0  0  0  0  0  0  0
   -1.2988   -4.0951    0.0939 H   0  0  0  0  0  0  0  0  0  0  0  0
   -2.0002   -3.8039   -1.5957 H   0  0  0  0  0  0  0  0  0  0  0  0
    0.8568   -4.1096   -0.6372 H   0  0  0  0  0  0  0  0  0  0  0  0
    0.9542   -5.1949   -2.9222 H   0  0  0  0  0  0  0  0  0  0  0  0
   -0.3487   -5.8707   -1.8528 H   0  0  0  0  0  0  0  0  0  0  0  0
   -0.7690   -4.6652   -3.1492 H   0  0  0  0  0  0  0  0  0  0  0  0
    2.0180   -1.5756   -1.0808 H   0  0  0  0  0  0  0  0  0  0  0  0
    0.7162   -0.7206   -1.9440 H   0  0  0  0  0  0  0  0  0  0  0  0
    0.5117   -2.4102    0.5399 H   0  0  0  0  0  0  0  0  0  0  0  0
   -0.4507   -0.3316    1.5491 H   0  0  0  0  0  0  0  0  0  0  0  0
   -0.2254    0.4888   -0.0292 H   0  0  0  0  0  0  0  0  0  0  0  0
    1.3363   -1.1290    2.8067 H   0  0  0  0  0  0  0  0  0  0  0  0
    3.6835   -0.7333    3.5089 H   0  0  0  0  0  0  0  0  0  0  0  0
    5.1851    0.5825    1.9900 H   0  0  0  0  0  0  0  0  0  0  0  0
    7.7672    2.7000   -0.3534 H   0  0  0  0  0  0  0  0  0  0  0  0
    7.0121    3.6319   -2.5407 H   0  0  0  0  0  0  0  0  0  0  0  0
    4.6804    3.2441   -3.2478 H   0  0  0  0  0  0  0  0  0  0  0  0
    2.0284    1.0331   -0.7745 H   0  0  0  0  0  0  0  0  0  0  0  0
   -4.4202   -2.8895    3.0355 H   0  0  0  0  0  0  0  0  0  0  0  0
   -3.1393   -1.3194    4.7609 H   0  0  0  0  0  0  0  0  0  0  0  0
   -2.8509    2.6382    2.7339 H   0  0  0  0  0  0  0  0  0  0  0  0
   -4.1003    3.5569    1.8687 H   0  0  0  0  0  0  0  0  0  0  0  0
   -4.4535    1.8662    2.4447 H   0  0  0  0  0  0  0  0  0  0  0  0
  1  2  1  0
  2  3  2  0
  3  4  1  0
  4  5  2  0
  5  6  1  0
  6  7  2  0
  6  8  1  0
  8  9  1  0
  9 10  1  0
 10 11  1  0
 10 12  1  0
 12 13  1  0
 13 14  1  0
 14 15  1  0
 15 16  1  0
 16 17  2  0
 17 18  1  0
 18 19  2  0
 19 20  1  0
 20 21  1  0
 21 22  2  0
 22 23  1  0
 23 24  2  0
 24 25  1  0
 25 26  2  0
 20 27  2  0
  5 28  1  0
 28 29  1  0
 29 30  1  0
 30 31  2  0
 31 32  1  0
 32 33  2  0
 28 34  2  0
 34 35  1  0
 34  2  1  0
 14  8  1  0
 27 16  1  0
 33 29  1  0
 26 21  1  0
  1 36  1  0
  1 37  1  0
  1 38  1  0
  3 39  1  0
  4 40  1  0
  9 41  1  0
  9 42  1  0
 10 43  1  1
 11 44  1  0
 11 45  1  0
 11 46  1  0
 13 47  1  0
 13 48  1  0
 14 49  1  1
 15 50  1  0
 15 51  1  0
 17 52  1  0
 18 53  1  0
 19 54  1  0
 23 55  1  0
 24 56  1  0
 25 57  1  0
 27 58  1  0
 31 59  1  0
 32 60  1  0
 35 61  1  0
 35 62  1  0
 35 63  1  0
M  END
$$$$
