@<TRIPOS>MOLECULE
*****
 63 67 0 0 0
SMALL
GASTEIGER

@<TRIPOS>ATOM
      1 C          -3.3396    4.2985   -0.2242 C.3     1  UNL1       -0.0394
      2 C          -3.0857    2.8259   -0.3600 C.ar    1  UNL1       -0.0454
      3 C          -2.6774    2.2730   -1.5535 C.ar    1  UNL1       -0.0577
      4 C          -2.4454    0.9211   -1.6725 C.ar    1  UNL1       -0.0472
      5 C          -2.6129    0.0524   -0.5923 C.ar    1  UNL1        0.0642
      6 C          -2.3756   -1.3724   -0.7785 C.2     1  UNL1        0.2491
      7 O          -3.4271   -2.0323   -1.1862 O.2     1  UNL1       -0.2699
      8 N          -1.2176   -2.0978   -0.5867 N.am    1  UNL1       -0.2895
      9 C          -1.2417   -3.5480   -0.8620 C.3     1  UNL1        0.0414
     10 C           0.1620   -3.8200   -1.4289 C.3     1  UNL1        0.0717
     11 C           0.0054   -4.9604   -2.4131 C.3     1  UNL1       -0.0372
     12 O           0.6339   -2.7274   -2.1439 O.3     1  UNL1       -0.3734
     13 C           0.9594   -1.6308   -1.3577 C.3     1  UNL1        0.0669
     14 C           0.0331   -1.6212   -0.1447 C.3     1  UNL1        0.0537
     15 C           0.1054   -0.3502    0.6118 C.3     1  UNL1       -0.0068
     16 C           1.5514   -0.0725    0.9815 C.ar    1  UNL1       -0.0449
     17 C           2.0128   -0.5673    2.1800 C.ar    1  UNL1       -0.0585
     18 C           3.3227   -0.3508    2.5799 C.ar    1  UNL1       -0.0608
     19 C           4.1361    0.3769    1.7294 C.ar    1  UNL1       -0.0510
     20 C           3.7147    0.8889    0.5236 C.ar    1  UNL1        0.0194
     21 C           4.5996    1.6485   -0.3423 C.ar    1  UNL1        0.1597
     22 N           5.8663    1.8579    0.0441 N.ar    1  UNL1       -0.2357
     23 C           6.7595    2.5451   -0.6825 C.ar    1  UNL1        0.0314
     24 C           6.3645    3.0654   -1.8874 C.ar    1  UNL1       -0.0254
     25 C           5.0727    2.8646   -2.3052 C.ar    1  UNL1        0.0314
     26 N           4.2348    2.1661   -1.5239 N.ar    1  UNL1       -0.2357
     27 C           2.3882    0.6487    0.1574 C.ar    1  UNL1       -0.0478
     28 C          -3.0214    0.6132    0.5966 C.ar    1  UNL1        0.1013
     29 N          -3.2197   -0.2117    1.7364 N.ar    1  UNL1       -0.1493
     30 N          -3.8880   -1.3678    1.6508 N.ar    1  UNL1       -0.1556
     31 C          -3.9311   -1.9396    2.8474 C.ar    1  UNL1        0.0697
     32 C          -3.2614   -1.1024    3.7098 C.ar    1  UNL1        0.0697
     33 N          -2.8450   -0.0568    2.9772 N.ar    1  UNL1       -0.1556
     34 C          -3.2525    1.9673    0.7112 C.ar    1  UNL1       -0.0197
     35 C          -3.6909    2.5227    2.0128 C.3     1  UNL1       -0.0374
     36 H          -2.8926    4.7162    0.6855 H       1  UNL1        0.0278
     37 H          -3.0555    4.7883   -1.1561 H       1  UNL1        0.0278
     38 H          -4.4575    4.3930   -0.1360 H       1  UNL1        0.0278
     39 H          -2.5494    2.9628   -2.3929 H       1  UNL1        0.0620
     40 H          -2.1273    0.5399   -2.6290 H       1  UNL1        0.0626
     41 H          -1.2988   -4.0951    0.0939 H       1  UNL1        0.0490
     42 H          -2.0002   -3.8039   -1.5957 H       1  UNL1        0.0490
     43 H           0.8568   -4.1096   -0.6372 H       1  UNL1        0.0609
     44 H           0.9542   -5.1949   -2.9222 H       1  UNL1        0.0255
     45 H          -0.3487   -5.8707   -1.8528 H       1  UNL1        0.0255
     46 H          -0.7690   -4.6652   -3.1492 H       1  UNL1        0.0255
     47 H           2.0180   -1.5756   -1.0808 H       1  UNL1        0.0578
     48 H           0.7162   -0.7206   -1.9440 H       1  UNL1        0.0578
     49 H           0.5117   -2.4102    0.5399 H       1  UNL1        0.0526
     50 H          -0.4507   -0.3316    1.5491 H       1  UNL1        0.0332
     51 H          -0.2254    0.4888   -0.0292 H       1  UNL1        0.0332
     52 H           1.3363   -1.1290    2.8067 H       1  UNL1        0.0620
     53 H           3.6835   -0.7333    3.5089 H       1  UNL1        0.0618
     54 H           5.1851    0.5825    1.9900 H       1  UNL1        0.0625
     55 H           7.7672    2.7000   -0.3534 H       1  UNL1        0.0831
     56 H           7.0121    3.6319   -2.5407 H       1  UNL1        0.0648
     57 H           4.6804    3.2441   -3.2478 H       1  UNL1        0.0831
     58 H           2.0284    1.0331   -0.7745 H       1  UNL1        0.0627
     59 H          -4.4202   -2.8895    3.0355 H       1  UNL1        0.0864
     60 H          -3.1393   -1.3194    4.7609 H       1  UNL1        0.0864
     61 H          -2.8509    2.6382    2.7339 H       1  UNL1        0.0278
     62 H          -4.1003    3.5569    1.8687 H       1  UNL1        0.0278
     63 H          -4.4535    1.8662    2.4447 H       1  UNL1        0.0278
@<TRIPOS>BOND
     1     1     2    1
     2     2     3   ar
     3     3     4   ar
     4     4     5   ar
     5     5     6    1
     6     6     7    2
     7     6     8   am
     8     8     9    1
     9     9    10    1
    10    10    11    1
    11    10    12    1
    12    12    13    1
    13    13    14    1
    14    14    15    1
    15    15    16    1
    16    16    17   ar
    17    17    18   ar
    18    18    19   ar
    19    19    20   ar
    20    20    21    1
    21    21    22   ar
    22    22    23   ar
    23    23    24   ar
    24    24    25   ar
    25    25    26   ar
    26    20    27   ar
    27     5    28   ar
    28    28    29    1
    29    29    30   ar
    30    30    31   ar
    31    31    32   ar
    32    32    33   ar
    33    28    34   ar
    34    34    35    1
    35    34     2   ar
    36    14     8    1
    37    27    16   ar
    38    33    29   ar
    39    26    21   ar
    40     1    36    1
    41     1    37    1
    42     1    38    1
    43     3    39    1
    44     4    40    1
    45     9    41    1
    46     9    42    1
    47    10    43    1
    48    11    44    1
    49    11    45    1
    50    11    46    1
    51    13    47    1
    52    13    48    1
    53    14    49    1
    54    15    50    1
    55    15    51    1
    56    17    52    1
    57    18    53    1
    58    19    54    1
    59    23    55    1
    60    24    56    1
    61    25    57    1
    62    27    58    1
    63    31    59    1
    64    32    60    1
    65    35    61    1
    66    35    62    1
    67    35    63    1
