@<TRIPOS>MOLECULE
*****
 83 85 0 0 0
SMALL
GASTEIGER

@<TRIPOS>ATOM
      1 C          -7.3859    2.8760   -1.1126 C.3     1  UNL1       -0.0652
      2 C          -7.4276    1.5733   -1.8636 C.3     1  UNL1       -0.0548
      3 C          -6.2285    1.2341   -2.6496 C.3     1  UNL1       -0.0405
      4 C          -4.9160    1.1189   -2.0145 C.3     1  UNL1       -0.0011
      5 N          -4.6648    0.1874   -0.9892 N.3     1  UNL1       -0.3022
      6 C          -5.2637    0.4061    0.2808 C.3     1  UNL1       -0.0011
      7 C          -4.6802    1.6323    0.9586 C.3     1  UNL1       -0.0405
      8 C          -5.4262    1.7265    2.2974 C.3     1  UNL1       -0.0548
      9 C          -4.9900    2.8876    3.1252 C.3     1  UNL1       -0.0652
     10 C          -4.7721   -1.1739   -1.4550 C.3     1  UNL1        0.0020
     11 C          -4.4261   -2.2037   -0.4485 C.3     1  UNL1       -0.0058
     12 C          -2.9986   -2.1182    0.0473 C.3     1  UNL1        0.0907
     13 O          -2.0817   -2.2931   -1.0377 O.3     1  UNL1       -0.4919
     14 C          -0.7151   -2.2527   -0.8218 C.ar    1  UNL1        0.1205
     15 C           0.0495   -2.4377   -1.9487 C.ar    1  UNL1       -0.0193
     16 C           1.4477   -2.4138   -1.8360 C.ar    1  UNL1       -0.0475
     17 C           2.0661   -2.2083   -0.6215 C.ar    1  UNL1        0.0226
     18 C           1.1932   -2.0368    0.4296 C.ar    1  UNL1       -0.0475
     19 C          -0.1803   -2.0422    0.4285 C.ar    1  UNL1       -0.0193
     20 C           3.5079   -2.2129   -0.5075 C.2     1  UNL1        0.1970
     21 O           3.8764   -3.0570   -1.3656 O.2     1  UNL1       -0.2865
     22 C           4.5586   -1.6026    0.2234 C.ar    1  UNL1        0.0709
     23 C           5.8634   -2.0493    0.2173 C.ar    1  UNL1        0.1171
     24 C           6.5836   -3.1417   -0.4493 C.3     1  UNL1        0.0062
     25 C           6.9800   -2.7646   -1.8534 C.3     1  UNL1       -0.0464
     26 C           7.9056   -1.5390   -1.7725 C.3     1  UNL1       -0.0555
     27 C           9.1073   -1.9531   -0.9594 C.3     1  UNL1       -0.0653
     28 O           6.5230   -1.2342    1.0211 O.2     1  UNL1       -0.4590
     29 C           5.7962   -0.3146    1.5419 C.ar    1  UNL1        0.1360
     30 C           4.5249   -0.5117    1.0564 C.ar    1  UNL1        0.0331
     31 C           3.5767    0.3819    1.4915 C.ar    1  UNL1       -0.0279
     32 C           3.8558    1.4139    2.3587 C.ar    1  UNL1        0.0485
     33 N           2.8293    2.3304    2.7889 N.pl3   1  UNL1       -0.2209
     34 S           1.7172    2.9733    1.6422 S.O2    1  UNL1        0.0403
     35 C           2.4884    3.9260    0.3802 C.3     1  UNL1        0.0736
     36 O           0.7577    3.8328    2.4215 O.2     1  UNL1       -0.1555
     37 O           0.8931    1.8866    1.0051 O.2     1  UNL1       -0.1555
     38 C           5.1587    1.5749    2.8277 C.ar    1  UNL1       -0.0358
     39 C           6.1451    0.7032    2.4176 C.ar    1  UNL1       -0.0169
     40 H          -8.3035    3.4905   -1.2159 H       1  UNL1        0.0230
     41 H          -6.5314    3.5028   -1.3478 H       1  UNL1        0.0230
     42 H          -7.3419    2.6220   -0.0217 H       1  UNL1        0.0230
     43 H          -8.2401    1.7709   -2.6619 H       1  UNL1        0.0263
     44 H          -7.8862    0.7362   -1.3062 H       1  UNL1        0.0263
     45 H          -6.4897    0.3367   -3.2685 H       1  UNL1        0.0277
     46 H          -6.1311    2.0449   -3.4436 H       1  UNL1        0.0277
     47 H          -4.5469    2.1323   -1.7180 H       1  UNL1        0.0426
     48 H          -4.1896    0.8500   -2.8513 H       1  UNL1        0.0426
     49 H          -4.9408   -0.4426    0.9588 H       1  UNL1        0.0426
     50 H          -6.3460    0.4082    0.3508 H       1  UNL1        0.0426
     51 H          -3.6104    1.4934    1.2211 H       1  UNL1        0.0277
     52 H          -4.7646    2.5540    0.3860 H       1  UNL1        0.0277
     53 H          -6.5335    1.8354    2.1061 H       1  UNL1        0.0263
     54 H          -5.3407    0.7458    2.8175 H       1  UNL1        0.0263
     55 H          -5.1838    2.6626    4.2026 H       1  UNL1        0.0230
     56 H          -5.5852    3.7964    2.8875 H       1  UNL1        0.0230
     57 H          -3.9301    3.1290    2.9436 H       1  UNL1        0.0230
     58 H          -5.7427   -1.4405   -1.8926 H       1  UNL1        0.0428
     59 H          -4.0237   -1.2808   -2.2937 H       1  UNL1        0.0428
     60 H          -5.1662   -2.3460    0.3601 H       1  UNL1        0.0310
     61 H          -4.4626   -3.1950   -1.0048 H       1  UNL1        0.0310
     62 H          -2.7422   -1.1628    0.5303 H       1  UNL1        0.0697
     63 H          -2.7699   -2.9259    0.7700 H       1  UNL1        0.0697
     64 H          -0.3871   -2.6048   -2.9428 H       1  UNL1        0.0654
     65 H           2.0095   -2.5662   -2.7622 H       1  UNL1        0.0626
     66 H           1.6356   -1.8792    1.4148 H       1  UNL1        0.0626
     67 H          -0.7913   -1.8985    1.3040 H       1  UNL1        0.0654
     68 H           5.9645   -4.0677   -0.5330 H       1  UNL1        0.0344
     69 H           7.4505   -3.4438    0.1639 H       1  UNL1        0.0344
     70 H           7.5726   -3.6059   -2.3187 H       1  UNL1        0.0269
     71 H           6.1752   -2.4878   -2.5237 H       1  UNL1        0.0269
     72 H           7.3816   -0.6848   -1.3343 H       1  UNL1        0.0263
     73 H           8.2259   -1.2923   -2.8218 H       1  UNL1        0.0263
     74 H           9.9985   -1.4783   -1.4502 H       1  UNL1        0.0230
     75 H           9.2233   -3.0694   -1.0363 H       1  UNL1        0.0230
     76 H           9.0672   -1.5997    0.0743 H       1  UNL1        0.0230
     77 H           2.5798    0.2675    1.1182 H       1  UNL1        0.0644
     78 H           2.8941    2.5051    3.8291 H       1  UNL1        0.1733
     79 H           3.5312    4.1600    0.6319 H       1  UNL1        0.0482
     80 H           2.5241    3.3169   -0.5457 H       1  UNL1        0.0482
     81 H           1.8923    4.8279    0.1191 H       1  UNL1        0.0482
     82 H           5.4292    2.3801    3.5188 H       1  UNL1        0.0638
     83 H           7.1774    0.7987    2.7648 H       1  UNL1        0.0655
@<TRIPOS>BOND
     1     1     2    1
     2     2     3    1
     3     3     4    1
     4     4     5    1
     5     5     6    1
     6     6     7    1
     7     7     8    1
     8     8     9    1
     9     5    10    1
    10    10    11    1
    11    11    12    1
    12    12    13    1
    13    13    14    1
    14    14    15   ar
    15    15    16   ar
    16    16    17   ar
    17    17    18   ar
    18    18    19   ar
    19    17    20    1
    20    20    21    2
    21    20    22    1
    22    22    23   ar
    23    23    24    1
    24    24    25    1
    25    25    26    1
    26    26    27    1
    27    23    28   ar
    28    28    29   ar
    29    29    30   ar
    30    30    31   ar
    31    31    32   ar
    32    32    33    1
    33    33    34    1
    34    34    35    1
    35    34    36    2
    36    34    37    2
    37    32    38   ar
    38    38    39   ar
    39    19    14   ar
    40    30    22   ar
    41    39    29   ar
    42     1    40    1
    43     1    41    1
    44     1    42    1
    45     2    43    1
    46     2    44    1
    47     3    45    1
    48     3    46    1
    49     4    47    1
    50     4    48    1
    51     6    49    1
    52     6    50    1
    53     7    51    1
    54     7    52    1
    55     8    53    1
    56     8    54    1
    57     9    55    1
    58     9    56    1
    59     9    57    1
    60    10    58    1
    61    10    59    1
    62    11    60    1
    63    11    61    1
    64    12    62    1
    65    12    63    1
    66    15    64    1
    67    16    65    1
    68    18    66    1
    69    19    67    1
    70    24    68    1
    71    24    69    1
    72    25    70    1
    73    25    71    1
    74    26    72    1
    75    26    73    1
    76    27    74    1
    77    27    75    1
    78    27    76    1
    79    31    77    1
    80    33    78    1
    81    35    79    1
    82    35    80    1
    83    35    81    1
    84    38    82    1
    85    39    83    1
