@<TRIPOS>MOLECULE
*****
 42 43 0 0 0
SMALL
GASTEIGER

@<TRIPOS>ATOM
      1 O          -6.9840    0.7846   -0.5647 O.2     1  UNL1       -0.4589
      2 P          -5.5181    0.4302   -0.8376 P.3     1  UNL1        0.1314
      3 O          -4.6833    1.9137   -0.8295 O.co2   1  UNL1       -0.3563
      4 O          -5.4700   -0.3099   -2.3390 O.co2   1  UNL1       -0.3563
      5 C          -4.9752   -0.6558    0.4702 C.3     1  UNL1        0.1187
      6 C          -3.8302   -1.5296    0.1995 C.3     1  UNL1       -0.0246
      7 C          -2.5307   -1.0097   -0.2290 C.3     1  UNL1       -0.0469
      8 C          -1.8191   -0.0275    0.6467 C.3     1  UNL1       -0.0276
      9 C          -0.4624    0.3119    0.0472 C.ar    1  UNL1       -0.0456
     10 C          -0.3155    1.3607   -0.8347 C.ar    1  UNL1       -0.0585
     11 C           0.9041    1.6867   -1.3911 C.ar    1  UNL1       -0.0598
     12 C           2.0335    0.9605   -1.0762 C.ar    1  UNL1       -0.0405
     13 C           1.9035   -0.0915   -0.1949 C.ar    1  UNL1        0.0316
     14 N           3.0576   -0.8427    0.1589 N.pl3   1  UNL1       -0.3145
     15 C           4.3798   -0.3533    0.1666 C.ar    1  UNL1        0.0313
     16 C           5.4294   -1.2207   -0.0149 C.ar    1  UNL1       -0.0405
     17 C           6.7324   -0.7819    0.0071 C.ar    1  UNL1       -0.0600
     18 C           7.0324    0.5706    0.2166 C.ar    1  UNL1       -0.0616
     19 C           5.9934    1.4543    0.4007 C.ar    1  UNL1       -0.0600
     20 C           4.6943    0.9925    0.3750 C.ar    1  UNL1       -0.0405
     21 C           0.6578   -0.4158    0.3659 C.ar    1  UNL1       -0.0374
     22 S          -5.1527    0.0560    2.0585 S.3     1  UNL1       -0.0708
     23 O          -5.1697   -1.0749    3.0863 O.2     1  UNL1       -0.1846
     24 O          -4.2087    1.1130    2.4379 O.2     1  UNL1       -0.1846
     25 O          -6.7501    0.6853    2.1087 O.co2   1  UNL1       -0.7240
     26 H          -5.8770   -1.4582    0.4898 H       1  UNL1        0.0604
     27 H          -4.1322   -2.4079   -0.4793 H       1  UNL1        0.0288
     28 H          -3.6368   -2.1045    1.1747 H       1  UNL1        0.0288
     29 H          -1.8154   -1.8963   -0.3307 H       1  UNL1        0.0269
     30 H          -2.5311   -0.5929   -1.2738 H       1  UNL1        0.0269
     31 H          -1.7344   -0.3806    1.6648 H       1  UNL1        0.0313
     32 H          -2.4161    0.9336    0.6437 H       1  UNL1        0.0313
     33 H          -1.2218    1.9210   -1.0693 H       1  UNL1        0.0620
     34 H           0.9810    2.5233   -2.0849 H       1  UNL1        0.0618
     35 H           3.0016    1.2161   -1.5333 H       1  UNL1        0.0636
     36 H           2.9014   -1.8389    0.4347 H       1  UNL1        0.1522
     37 H           5.2157   -2.2613   -0.1767 H       1  UNL1        0.0636
     38 H           7.5198   -1.5186   -0.1431 H       1  UNL1        0.0618
     39 H           8.0763    0.8840    0.2278 H       1  UNL1        0.0618
     40 H           6.2046    2.5007    0.5635 H       1  UNL1        0.0618
     41 H           3.9218    1.7248    0.5383 H       1  UNL1        0.0636
     42 H           0.5941   -1.2510    1.0555 H       1  UNL1        0.0639
@<TRIPOS>UNITY_ATOM_ATTR
3 1
charge -1
4 1
charge -1
25 1
charge -1
@<TRIPOS>BOND
     1     1     2    2
     2     2     3    1
     3     2     4    1
     4     2     5    1
     5     5     6    1
     6     6     7    1
     7     7     8    1
     8     8     9    1
     9     9    10   ar
    10    10    11   ar
    11    11    12   ar
    12    12    13   ar
    13    13    14    1
    14    14    15    1
    15    15    16   ar
    16    16    17   ar
    17    17    18   ar
    18    18    19   ar
    19    19    20   ar
    20    13    21   ar
    21     5    22    1
    22    22    23    2
    23    22    24    2
    24    22    25    1
    25    21     9   ar
    26    20    15   ar
    27     5    26    1
    28     6    27    1
    29     6    28    1
    30     7    29    1
    31     7    30    1
    32     8    31    1
    33     8    32    1
    34    10    33    1
    35    11    34    1
    36    12    35    1
    37    14    36    1
    38    16    37    1
    39    17    38    1
    40    18    39    1
    41    19    40    1
    42    20    41    1
    43    21    42    1
