@<TRIPOS>MOLECULE
*****
 36 39 0 0 0
SMALL
GASTEIGER

@<TRIPOS>ATOM
      1 C           1.5652    2.5529   -2.3804 C.3     1  UNL1        0.0133
      2 N           0.8658    2.5621   -1.1125 N.ar    1  UNL1       -0.3327
      3 C           0.4724    3.6571   -0.4705 C.ar    1  UNL1        0.0968
      4 N          -0.1439    3.2569    0.6727 N.ar    1  UNL1       -0.2351
      5 C          -0.1144    1.9169    0.7061 C.ar    1  UNL1        0.0967
      6 C          -0.6947    1.1269    1.7946 C.ar    1  UNL1        0.0040
      7 C           0.0754    0.3140    2.5928 C.ar    1  UNL1       -0.0497
      8 C          -0.5370   -0.4015    3.5897 C.ar    1  UNL1       -0.0244
      9 C          -1.8951   -0.3174    3.7991 C.ar    1  UNL1        0.1417
     10 F          -2.4989   -1.0191    4.7762 F       1  UNL1       -0.2040
     11 C          -2.6687    0.5024    2.9939 C.ar    1  UNL1        0.0767
     12 CL         -4.4174    0.6217    3.2508 Cl      1  UNL1       -0.0806
     13 C          -2.0569    1.2230    1.9908 C.ar    1  UNL1       -0.0313
     14 C           0.5280    1.4629   -0.4286 C.ar    1  UNL1        0.0776
     15 C           0.7751    0.0742   -0.7725 C.ar    1  UNL1        0.0173
     16 C           1.9305   -0.5181   -0.3099 C.ar    1  UNL1       -0.0477
     17 C           2.1884   -1.8350   -0.6180 C.ar    1  UNL1       -0.0181
     18 C           1.2755   -2.5552   -1.3957 C.ar    1  UNL1        0.1385
     19 N           1.3017   -3.8350   -1.8237 N.ar    1  UNL1       -0.2348
     20 C           0.1975   -4.0888   -2.5490 C.ar    1  UNL1        0.0643
     21 C          -0.5299   -2.9195   -2.5643 C.ar    1  UNL1        0.1438
     22 C          -1.7983   -2.6682   -3.2075 C.1     1  UNL1        0.1192
     23 N          -2.8202   -2.4769   -3.7088 N.1     1  UNL1       -0.1893
     24 N           0.1486   -1.9797   -1.8474 N.ar    1  UNL1       -0.2906
     25 C          -0.0854   -0.7001   -1.5388 C.ar    1  UNL1        0.0216
     26 H           2.2746    3.4078   -2.3650 H       1  UNL1        0.0456
     27 H           2.1875    1.6437   -2.5108 H       1  UNL1        0.0456
     28 H           0.8575    2.7267   -3.1977 H       1  UNL1        0.0456
     29 H           0.5678    4.7103   -0.7116 H       1  UNL1        0.1029
     30 H           1.1386    0.2254    2.4567 H       1  UNL1        0.0625
     31 H           0.0181   -1.0717    4.2658 H       1  UNL1        0.0647
     32 H          -2.6998    1.8601    1.3762 H       1  UNL1        0.0640
     33 H           2.6215    0.0854    0.2986 H       1  UNL1        0.0626
     34 H           3.0839   -2.3057   -0.2640 H       1  UNL1        0.0654
     35 H          -0.1284   -4.9875   -3.0480 H       1  UNL1        0.0859
     36 H          -0.9844   -0.2507   -1.9037 H       1  UNL1        0.0820
@<TRIPOS>BOND
     1     1     2    1
     2     2     3   ar
     3     3     4   ar
     4     4     5   ar
     5     5     6    1
     6     6     7   ar
     7     7     8   ar
     8     8     9   ar
     9     9    10    1
    10     9    11   ar
    11    11    12    1
    12    11    13   ar
    13     5    14   ar
    14    14    15    1
    15    15    16   ar
    16    16    17   ar
    17    17    18   ar
    18    18    19   ar
    19    19    20   ar
    20    20    21   ar
    21    21    22    1
    22    22    23    3
    23    21    24   ar
    24    24    25   ar
    25    14     2   ar
    26    25    15   ar
    27    13     6   ar
    28    24    18   ar
    29     1    26    1
    30     1    27    1
    31     1    28    1
    32     3    29    1
    33     7    30    1
    34     8    31    1
    35    13    32    1
    36    16    33    1
    37    17    34    1
    38    20    35    1
    39    25    36    1
