
     RDKit          3D

 56 58  0  0  0  0  0  0  0  0999 V2000
    6.8178    1.7901    2.3641 O   0  0  0  0  0  0  0  0  0  0  0  0
    7.4704    1.2938    1.4255 C   0  0  0  0  0  0  0  0  0  0  0  0
    8.8145    1.6423    1.2305 O   0  0  0  0  0  0  0  0  0  0  0  0
    6.8834    0.3319    0.4839 C   0  0  0  0  0  0  0  0  0  0  0  0
    5.5544    0.1177    0.8420 O   0  0  0  0  0  0  0  0  0  0  0  0
    4.9950   -0.7938   -0.0488 C   0  0  0  0  0  0  0  0  0  0  0  0
    3.5601   -1.0704    0.2805 C   0  0  1  0  0  0  0  0  0  0  0  0
    2.7703    0.2336    0.2063 C   0  0  0  0  0  0  0  0  0  0  0  0
    1.2952   -0.2235    0.1938 C   0  0  0  0  0  0  0  0  0  0  0  0
    1.0102   -0.6564   -1.1973 C   0  0  2  0  0  0  0  0  0  0  0  0
   -0.2086   -1.4864   -1.3362 C   0  0  0  0  0  0  0  0  0  0  0  0
   -1.3863   -0.9143   -0.9736 O   0  0  0  0  0  0  0  0  0  0  0  0
   -1.9845   -0.5168    0.1628 C   0  0  0  0  0  0  0  0  0  0  0  0
   -1.3845   -0.6944    1.2461 O   0  0  0  0  0  0  0  0  0  0  0  0
   -3.2798    0.1014    0.1835 N   0  0  0  0  0  0  0  0  0  0  0  0
   -3.9480    0.2965   -1.0495 C   0  0  0  0  0  0  0  0  0  0  0  0
   -3.7802    1.4501   -1.7719 C   0  0  0  0  0  0  0  0  0  0  0  0
   -4.4537    1.5873   -2.9636 C   0  0  0  0  0  0  0  0  0  0  0  0
   -5.2930    0.5770   -3.4352 C   0  0  0  0  0  0  0  0  0  0  0  0
   -5.4423   -0.5767   -2.6832 C   0  0  0  0  0  0  0  0  0  0  0  0
   -4.7666   -0.7094   -1.4919 C   0  0  0  0  0  0  0  0  0  0  0  0
   -3.9069    0.5190    1.3821 C   0  0  0  0  0  0  0  0  0  0  0  0
   -3.7164    1.7928    1.8789 C   0  0  0  0  0  0  0  0  0  0  0  0
   -4.3173    2.2216    3.0449 C   0  0  0  0  0  0  0  0  0  0  0  0
   -5.1428    1.3924    3.7750 C   0  0  0  0  0  0  0  0  0  0  0  0
   -5.3386    0.1178    3.2856 C   0  0  0  0  0  0  0  0  0  0  0  0
   -6.1609   -0.6999    4.0180 F   0  0  0  0  0  0  0  0  0  0  0  0
   -4.7363   -0.3114    2.1172 C   0  0  0  0  0  0  0  0  0  0  0  0
    2.2325   -1.3527   -1.8148 C   0  0  0  0  0  0  0  0  0  0  0  0
    3.0068   -2.0694   -0.7204 C   0  0  0  0  0  0  0  0  0  0  0  0
    9.1753    2.5306    1.5890 H   0  0  0  0  0  0  0  0  0  0  0  0
    6.8733    0.7007   -0.5748 H   0  0  0  0  0  0  0  0  0  0  0  0
    7.4303   -0.6379    0.5724 H   0  0  0  0  0  0  0  0  0  0  0  0
    5.5648   -1.7481    0.0935 H   0  0  0  0  0  0  0  0  0  0  0  0
    5.1164   -0.4079   -1.0764 H   0  0  0  0  0  0  0  0  0  0  0  0
    3.4461   -1.5100    1.2821 H   0  0  0  0  0  0  0  0  0  0  0  0
    2.9619    0.8825    1.0753 H   0  0  0  0  0  0  0  0  0  0  0  0
    2.9350    0.7315   -0.7660 H   0  0  0  0  0  0  0  0  0  0  0  0
    0.6947    0.6598    0.4641 H   0  0  0  0  0  0  0  0  0  0  0  0
    1.1818   -1.0430    0.9006 H   0  0  0  0  0  0  0  0  0  0  0  0
    0.8274    0.2571   -1.8687 H   0  0  0  0  0  0  0  0  0  0  0  0
   -0.3061   -1.7606   -2.4461 H   0  0  0  0  0  0  0  0  0  0  0  0
   -0.0389   -2.4955   -0.8063 H   0  0  0  0  0  0  0  0  0  0  0  0
   -3.1182    2.2608   -1.4118 H   0  0  0  0  0  0  0  0  0  0  0  0
   -4.3061    2.5086   -3.5188 H   0  0  0  0  0  0  0  0  0  0  0  0
   -5.8136    0.6856   -4.3586 H   0  0  0  0  0  0  0  0  0  0  0  0
   -6.0952   -1.3854   -3.0306 H   0  0  0  0  0  0  0  0  0  0  0  0
   -4.9039   -1.6405   -0.9118 H   0  0  0  0  0  0  0  0  0  0  0  0
   -3.0738    2.4917    1.3434 H   0  0  0  0  0  0  0  0  0  0  0  0
   -4.1750    3.2267    3.4490 H   0  0  0  0  0  0  0  0  0  0  0  0
   -5.6156    1.7327    4.6942 H   0  0  0  0  0  0  0  0  0  0  0  0
   -4.9062   -1.3247    1.7496 H   0  0  0  0  0  0  0  0  0  0  0  0
    1.9348   -2.1128   -2.5545 H   0  0  0  0  0  0  0  0  0  0  0  0
    2.8846   -0.6194   -2.3318 H   0  0  0  0  0  0  0  0  0  0  0  0
    2.3189   -2.7765   -0.2492 H   0  0  0  0  0  0  0  0  0  0  0  0
    3.8433   -2.5955   -1.1770 H   0  0  0  0  0  0  0  0  0  0  0  0
  1  2  2  0
  2  3  1  0
  2  4  1  0
  4  5  1  0
  5  6  1  0
  6  7  1  0
  7  8  1  0
  8  9  1  0
  9 10  1  0
 10 11  1  0
 11 12  1  0
 12 13  1  0
 13 14  2  0
 13 15  1  0
 15 16  1  0
 16 17  2  0
 17 18  1  0
 18 19  2  0
 19 20  1  0
 20 21  2  0
 15 22  1  0
 22 23  2  0
 23 24  1  0
 24 25  2  0
 25 26  1  0
 26 27  1  0
 26 28  2  0
 10 29  1  0
 29 30  1  0
 30  7  1  0
 21 16  1  0
 28 22  1  0
  3 31  1  0
  4 32  1  0
  4 33  1  0
  6 34  1  0
  6 35  1  0
  7 36  1  1
  8 37  1  0
  8 38  1  0
  9 39  1  0
  9 40  1  0
 10 41  1  6
 11 42  1  0
 11 43  1  0
 17 44  1  0
 18 45  1  0
 19 46  1  0
 20 47  1  0
 21 48  1  0
 23 49  1  0
 24 50  1  0
 25 51  1  0
 28 52  1  0
 29 53  1  0
 29 54  1  0
 30 55  1  0
 30 56  1  0
M  END
$$$$
