@<TRIPOS>MOLECULE
*****
 56 58 0 0 0
SMALL
GASTEIGER

@<TRIPOS>ATOM
      1 O           6.8178    1.7901    2.3641 O.2     1  UNL1       -0.2484
      2 C           7.4704    1.2938    1.4255 C.2     1  UNL1        0.3308
      3 O           8.8145    1.6423    1.2305 O.3     1  UNL1       -0.4790
      4 C           6.8834    0.3319    0.4839 C.3     1  UNL1        0.1443
      5 O           5.5544    0.1177    0.8420 O.3     1  UNL1       -0.3684
      6 C           4.9950   -0.7938   -0.0488 C.3     1  UNL1        0.0512
      7 C           3.5601   -1.0704    0.2805 C.3     1  UNL1       -0.0175
      8 C           2.7703    0.2336    0.2063 C.3     1  UNL1       -0.0478
      9 C           1.2952   -0.2235    0.1938 C.3     1  UNL1       -0.0468
     10 C           1.0102   -0.6564   -1.1973 C.3     1  UNL1       -0.0066
     11 C          -0.2086   -1.4864   -1.3362 C.3     1  UNL1        0.0969
     12 O          -1.3863   -0.9143   -0.9736 O.3     1  UNL1       -0.4495
     13 C          -1.9845   -0.5168    0.1628 C.2     1  UNL1        0.4117
     14 O          -1.3845   -0.6944    1.2461 O.2     1  UNL1       -0.2255
     15 N          -3.2798    0.1014    0.1835 N.am    1  UNL1       -0.2061
     16 C          -3.9480    0.2965   -1.0495 C.ar    1  UNL1        0.0445
     17 C          -3.7802    1.4501   -1.7719 C.ar    1  UNL1       -0.0398
     18 C          -4.4537    1.5873   -2.9636 C.ar    1  UNL1       -0.0600
     19 C          -5.2930    0.5770   -3.4352 C.ar    1  UNL1       -0.0616
     20 C          -5.4423   -0.5767   -2.6832 C.ar    1  UNL1       -0.0600
     21 C          -4.7666   -0.7094   -1.4919 C.ar    1  UNL1       -0.0398
     22 C          -3.9069    0.5190    1.3821 C.ar    1  UNL1        0.0472
     23 C          -3.7164    1.7928    1.8789 C.ar    1  UNL1       -0.0396
     24 C          -4.3173    2.2216    3.0449 C.ar    1  UNL1       -0.0573
     25 C          -5.1428    1.3924    3.7750 C.ar    1  UNL1       -0.0263
     26 C          -5.3386    0.1178    3.2856 C.ar    1  UNL1        0.1252
     27 F          -6.1609   -0.6999    4.0180 F       1  UNL1       -0.2054
     28 C          -4.7363   -0.3114    2.1172 C.ar    1  UNL1       -0.0046
     29 C           2.2325   -1.3527   -1.8148 C.3     1  UNL1       -0.0468
     30 C           3.0068   -2.0694   -0.7204 C.3     1  UNL1       -0.0478
     31 H           9.1753    2.5306    1.5890 H       1  UNL1        0.2951
     32 H           6.8733    0.7007   -0.5748 H       1  UNL1        0.0676
     33 H           7.4303   -0.6379    0.5724 H       1  UNL1        0.0676
     34 H           5.5648   -1.7481    0.0935 H       1  UNL1        0.0563
     35 H           5.1164   -0.4079   -1.0764 H       1  UNL1        0.0563
     36 H           3.4461   -1.5100    1.2821 H       1  UNL1        0.0323
     37 H           2.9619    0.8825    1.0753 H       1  UNL1        0.0269
     38 H           2.9350    0.7315   -0.7660 H       1  UNL1        0.0269
     39 H           0.6947    0.6598    0.4641 H       1  UNL1        0.0269
     40 H           1.1818   -1.0430    0.9006 H       1  UNL1        0.0269
     41 H           0.8274    0.2571   -1.8687 H       1  UNL1        0.0334
     42 H          -0.3061   -1.7606   -2.4461 H       1  UNL1        0.0701
     43 H          -0.0389   -2.4955   -0.8063 H       1  UNL1        0.0701
     44 H          -3.1182    2.2608   -1.4118 H       1  UNL1        0.0636
     45 H          -4.3061    2.5086   -3.5188 H       1  UNL1        0.0618
     46 H          -5.8136    0.6856   -4.3586 H       1  UNL1        0.0618
     47 H          -6.0952   -1.3854   -3.0306 H       1  UNL1        0.0618
     48 H          -4.9039   -1.6405   -0.9118 H       1  UNL1        0.0636
     49 H          -3.0738    2.4917    1.3434 H       1  UNL1        0.0636
     50 H          -4.1750    3.2267    3.4490 H       1  UNL1        0.0619
     51 H          -5.6156    1.7327    4.6942 H       1  UNL1        0.0646
     52 H          -4.9062   -1.3247    1.7496 H       1  UNL1        0.0665
     53 H           1.9348   -2.1128   -2.5545 H       1  UNL1        0.0269
     54 H           2.8846   -0.6194   -2.3318 H       1  UNL1        0.0269
     55 H           2.3189   -2.7765   -0.2492 H       1  UNL1        0.0269
     56 H           3.8433   -2.5955   -1.1770 H       1  UNL1        0.0269
@<TRIPOS>BOND
     1     1     2    2
     2     2     3    1
     3     2     4    1
     4     4     5    1
     5     5     6    1
     6     6     7    1
     7     7     8    1
     8     8     9    1
     9     9    10    1
    10    10    11    1
    11    11    12    1
    12    12    13    1
    13    13    14    2
    14    13    15   am
    15    15    16    1
    16    16    17   ar
    17    17    18   ar
    18    18    19   ar
    19    19    20   ar
    20    20    21   ar
    21    15    22    1
    22    22    23   ar
    23    23    24   ar
    24    24    25   ar
    25    25    26   ar
    26    26    27    1
    27    26    28   ar
    28    10    29    1
    29    29    30    1
    30    30     7    1
    31    21    16   ar
    32    28    22   ar
    33     3    31    1
    34     4    32    1
    35     4    33    1
    36     6    34    1
    37     6    35    1
    38     7    36    1
    39     8    37    1
    40     8    38    1
    41     9    39    1
    42     9    40    1
    43    10    41    1
    44    11    42    1
    45    11    43    1
    46    17    44    1
    47    18    45    1
    48    19    46    1
    49    20    47    1
    50    21    48    1
    51    23    49    1
    52    24    50    1
    53    25    51    1
    54    28    52    1
    55    29    53    1
    56    29    54    1
    57    30    55    1
    58    30    56    1
