@<TRIPOS>MOLECULE
*****
 62 65 0 0 0
SMALL
GASTEIGER

@<TRIPOS>ATOM
      1 C          -2.3569    1.6074    1.0027 C.3     1  UNL1        0.0490
      2 C          -1.9559    3.0522    1.1506 C.3     1  UNL1       -0.0262
      3 C          -1.0283    3.4148    0.0198 C.3     1  UNL1       -0.0239
      4 C           0.1343    2.5010   -0.0706 C.ar    1  UNL1       -0.0262
      5 C           1.3504    2.8632   -0.6097 C.ar    1  UNL1       -0.0562
      6 C           2.4272    2.0036   -0.6972 C.ar    1  UNL1       -0.0535
      7 C           2.2629    0.7027   -0.2109 C.ar    1  UNL1       -0.0111
      8 C           1.0426    0.3500    0.3264 C.ar    1  UNL1       -0.0325
      9 C          -0.0231    1.2193    0.4073 C.ar    1  UNL1        0.0340
     10 N          -1.2161    0.7187    0.9906 N.pl3   1  UNL1       -0.3225
     11 C          -1.4250   -0.5834    1.5774 C.3     1  UNL1        0.0149
     12 C          -2.3674   -1.4472    0.7562 C.3     1  UNL1       -0.0137
     13 C          -2.5005   -2.7729    1.4734 C.3     1  UNL1        0.0487
     14 O          -1.3025   -3.4375    1.6207 O.3     1  UNL1       -0.3829
     15 C          -0.7159   -3.7196    0.3935 C.3     1  UNL1        0.0364
     16 C           3.4161   -0.1847   -0.3135 C.ar    1  UNL1        0.0431
     17 C           4.2090   -0.0979    0.8373 C.ar    1  UNL1        0.1293
     18 N           3.9644    0.7271    1.9759 N.pl3   1  UNL1       -0.3425
     19 N           5.3351   -0.8540    0.9295 N.ar    1  UNL1       -0.1995
     20 C           5.6921   -1.6858   -0.0790 C.ar    1  UNL1        0.2145
     21 N           6.8599   -2.4523    0.0491 N.pl3   1  UNL1       -0.3274
     22 N           4.9316   -1.7609   -1.1686 N.ar    1  UNL1       -0.2190
     23 C           3.8068   -1.0402   -1.3215 C.ar    1  UNL1        0.0556
     24 C           2.8733   -1.0274   -2.4767 C.3     1  UNL1       -0.0124
     25 C           1.6366   -1.8280   -2.0732 C.3     1  UNL1       -0.0598
     26 C          -3.2455    1.4715   -0.1608 C.ar    1  UNL1       -0.0271
     27 C          -4.6355    1.5342   -0.0000 C.ar    1  UNL1       -0.0568
     28 C          -5.6058    1.4189   -0.9734 C.ar    1  UNL1       -0.0614
     29 C          -5.1420    1.2172   -2.2600 C.ar    1  UNL1       -0.0617
     30 C          -3.8018    1.1443   -2.4986 C.ar    1  UNL1       -0.0614
     31 C          -2.8873    1.2687   -1.4738 C.ar    1  UNL1       -0.0568
     32 H          -2.9918    1.3821    1.9160 H       1  UNL1        0.0550
     33 H          -1.4364    3.1396    2.1336 H       1  UNL1        0.0290
     34 H          -2.8534    3.6933    1.0964 H       1  UNL1        0.0290
     35 H          -1.6267    3.4373   -0.9238 H       1  UNL1        0.0314
     36 H          -0.7155    4.4664    0.2090 H       1  UNL1        0.0314
     37 H           1.3912    3.9020   -0.9671 H       1  UNL1        0.0621
     38 H           3.3555    2.3397   -1.1285 H       1  UNL1        0.0624
     39 H           1.0232   -0.6678    0.6660 H       1  UNL1        0.0642
     40 H          -0.5098   -1.1545    1.7734 H       1  UNL1        0.0465
     41 H          -1.8706   -0.4232    2.6114 H       1  UNL1        0.0465
     42 H          -2.0098   -1.5601   -0.2837 H       1  UNL1        0.0302
     43 H          -3.3811   -0.9721    0.7264 H       1  UNL1        0.0302
     44 H          -3.1678   -3.4062    0.8428 H       1  UNL1        0.0560
     45 H          -2.9873   -2.5772    2.4543 H       1  UNL1        0.0560
     46 H          -1.3833   -4.3598   -0.2303 H       1  UNL1        0.0523
     47 H           0.2108   -4.3172    0.5440 H       1  UNL1        0.0523
     48 H          -0.4009   -2.7830   -0.1016 H       1  UNL1        0.0523
     49 H           3.1004    0.5191    2.5329 H       1  UNL1        0.1437
     50 H           4.6798    1.4650    2.1429 H       1  UNL1        0.1437
     51 H           7.7190   -1.8497    0.0377 H       1  UNL1        0.1452
     52 H           7.0384   -3.4814    0.1512 H       1  UNL1        0.1452
     53 H           3.3486   -1.5325   -3.3514 H       1  UNL1        0.0326
     54 H           2.6001    0.0001   -2.7584 H       1  UNL1        0.0326
     55 H           1.7278   -2.2215   -1.0508 H       1  UNL1        0.0233
     56 H           0.7282   -1.1927   -2.1089 H       1  UNL1        0.0233
     57 H           1.4386   -2.6592   -2.8014 H       1  UNL1        0.0233
     58 H          -4.9891    1.6954    1.0321 H       1  UNL1        0.0621
     59 H          -6.6437    1.4898   -0.6899 H       1  UNL1        0.0618
     60 H          -5.8554    1.1213   -3.0535 H       1  UNL1        0.0618
     61 H          -3.4340    0.9845   -3.5197 H       1  UNL1        0.0618
     62 H          -1.8375    1.1992   -1.7030 H       1  UNL1        0.0621
@<TRIPOS>BOND
     1     1     2    1
     2     2     3    1
     3     3     4    1
     4     4     5   ar
     5     5     6   ar
     6     6     7   ar
     7     7     8   ar
     8     8     9   ar
     9     9    10    1
    10    10    11    1
    11    11    12    1
    12    12    13    1
    13    13    14    1
    14    14    15    1
    15     7    16    1
    16    16    17   ar
    17    17    18    1
    18    17    19   ar
    19    19    20   ar
    20    20    21    1
    21    20    22   ar
    22    22    23   ar
    23    23    24    1
    24    24    25    1
    25     1    26    1
    26    26    27   ar
    27    27    28   ar
    28    28    29   ar
    29    29    30   ar
    30    30    31   ar
    31    10     1    1
    32    23    16   ar
    33    31    26   ar
    34     9     4   ar
    35     1    32    1
    36     2    33    1
    37     2    34    1
    38     3    35    1
    39     3    36    1
    40     5    37    1
    41     6    38    1
    42     8    39    1
    43    11    40    1
    44    11    41    1
    45    12    42    1
    46    12    43    1
    47    13    44    1
    48    13    45    1
    49    15    46    1
    50    15    47    1
    51    15    48    1
    52    18    49    1
    53    18    50    1
    54    21    51    1
    55    21    52    1
    56    24    53    1
    57    24    54    1
    58    25    55    1
    59    25    56    1
    60    25    57    1
    61    27    58    1
    62    28    59    1
    63    29    60    1
    64    30    61    1
    65    31    62    1
