
     RDKit          3D

 62 65  0  0  0  0  0  0  0  0999 V2000
   -2.3569    1.6074    1.0027 C   0  0  2  0  0  0  0  0  0  0  0  0
   -1.9559    3.0522    1.1506 C   0  0  0  0  0  0  0  0  0  0  0  0
   -1.0283    3.4148    0.0198 C   0  0  0  0  0  0  0  0  0  0  0  0
    0.1343    2.5010   -0.0706 C   0  0  0  0  0  0  0  0  0  0  0  0
    1.3504    2.8632   -0.6097 C   0  0  0  0  0  0  0  0  0  0  0  0
    2.4272    2.0036   -0.6972 C   0  0  0  0  0  0  0  0  0  0  0  0
    2.2629    0.7027   -0.2109 C   0  0  0  0  0  0  0  0  0  0  0  0
    1.0426    0.3500    0.3264 C   0  0  0  0  0  0  0  0  0  0  0  0
   -0.0231    1.2193    0.4073 C   0  0  0  0  0  0  0  0  0  0  0  0
   -1.2161    0.7187    0.9906 N   0  0  0  0  0  0  0  0  0  0  0  0
   -1.4250   -0.5834    1.5774 C   0  0  0  0  0  0  0  0  0  0  0  0
   -2.3674   -1.4472    0.7562 C   0  0  0  0  0  0  0  0  0  0  0  0
   -2.5005   -2.7729    1.4734 C   0  0  0  0  0  0  0  0  0  0  0  0
   -1.3025   -3.4375    1.6207 O   0  0  0  0  0  0  0  0  0  0  0  0
   -0.7159   -3.7196    0.3935 C   0  0  0  0  0  0  0  0  0  0  0  0
    3.4161   -0.1847   -0.3135 C   0  0  0  0  0  0  0  0  0  0  0  0
    4.2090   -0.0979    0.8373 C   0  0  0  0  0  0  0  0  0  0  0  0
    3.9644    0.7271    1.9759 N   0  0  0  0  0  0  0  0  0  0  0  0
    5.3351   -0.8540    0.9295 N   0  0  0  0  0  0  0  0  0  0  0  0
    5.6921   -1.6858   -0.0790 C   0  0  0  0  0  0  0  0  0  0  0  0
    6.8599   -2.4523    0.0491 N   0  0  0  0  0  0  0  0  0  0  0  0
    4.9316   -1.7609   -1.1686 N   0  0  0  0  0  0  0  0  0  0  0  0
    3.8068   -1.0402   -1.3215 C   0  0  0  0  0  0  0  0  0  0  0  0
    2.8733   -1.0274   -2.4767 C   0  0  0  0  0  0  0  0  0  0  0  0
    1.6366   -1.8280   -2.0732 C   0  0  0  0  0  0  0  0  0  0  0  0
   -3.2455    1.4715   -0.1608 C   0  0  0  0  0  0  0  0  0  0  0  0
   -4.6355    1.5342   -0.0000 C   0  0  0  0  0  0  0  0  0  0  0  0
   -5.6058    1.4189   -0.9734 C   0  0  0  0  0  0  0  0  0  0  0  0
   -5.1420    1.2172   -2.2600 C   0  0  0  0  0  0  0  0  0  0  0  0
   -3.8018    1.1443   -2.4986 C   0  0  0  0  0  0  0  0  0  0  0  0
   -2.8873    1.2687   -1.4738 C   0  0  0  0  0  0  0  0  0  0  0  0
   -2.9918    1.3821    1.9160 H   0  0  0  0  0  0  0  0  0  0  0  0
   -1.4364    3.1396    2.1336 H   0  0  0  0  0  0  0  0  0  0  0  0
   -2.8534    3.6933    1.0964 H   0  0  0  0  0  0  0  0  0  0  0  0
   -1.6267    3.4373   -0.9238 H   0  0  0  0  0  0  0  0  0  0  0  0
   -0.7155    4.4664    0.2090 H   0  0  0  0  0  0  0  0  0  0  0  0
    1.3912    3.9020   -0.9671 H   0  0  0  0  0  0  0  0  0  0  0  0
    3.3555    2.3397   -1.1285 H   0  0  0  0  0  0  0  0  0  0  0  0
    1.0232   -0.6678    0.6660 H   0  0  0  0  0  0  0  0  0  0  0  0
   -0.5098   -1.1545    1.7734 H   0  0  0  0  0  0  0  0  0  0  0  0
   -1.8706   -0.4232    2.6114 H   0  0  0  0  0  0  0  0  0  0  0  0
   -2.0098   -1.5601   -0.2837 H   0  0  0  0  0  0  0  0  0  0  0  0
   -3.3811   -0.9721    0.7264 H   0  0  0  0  0  0  0  0  0  0  0  0
   -3.1678   -3.4062    0.8428 H   0  0  0  0  0  0  0  0  0  0  0  0
   -2.9873   -2.5772    2.4543 H   0  0  0  0  0  0  0  0  0  0  0  0
   -1.3833   -4.3598   -0.2303 H   0  0  0  0  0  0  0  0  0  0  0  0
    0.2108   -4.3172    0.5440 H   0  0  0  0  0  0  0  0  0  0  0  0
   -0.4009   -2.7830   -0.1016 H   0  0  0  0  0  0  0  0  0  0  0  0
    3.1004    0.5191    2.5329 H   0  0  0  0  0  0  0  0  0  0  0  0
    4.6798    1.4650    2.1429 H   0  0  0  0  0  0  0  0  0  0  0  0
    7.7190   -1.8497    0.0377 H   0  0  0  0  0  0  0  0  0  0  0  0
    7.0384   -3.4814    0.1512 H   0  0  0  0  0  0  0  0  0  0  0  0
    3.3486   -1.5325   -3.3514 H   0  0  0  0  0  0  0  0  0  0  0  0
    2.6001    0.0001   -2.7584 H   0  0  0  0  0  0  0  0  0  0  0  0
    1.7278   -2.2215   -1.0508 H   0  0  0  0  0  0  0  0  0  0  0  0
    0.7282   -1.1927   -2.1089 H   0  0  0  0  0  0  0  0  0  0  0  0
    1.4386   -2.6592   -2.8014 H   0  0  0  0  0  0  0  0  0  0  0  0
   -4.9891    1.6954    1.0321 H   0  0  0  0  0  0  0  0  0  0  0  0
   -6.6437    1.4898   -0.6899 H   0  0  0  0  0  0  0  0  0  0  0  0
   -5.8554    1.1213   -3.0535 H   0  0  0  0  0  0  0  0  0  0  0  0
   -3.4340    0.9845   -3.5197 H   0  0  0  0  0  0  0  0  0  0  0  0
   -1.8375    1.1992   -1.7030 H   0  0  0  0  0  0  0  0  0  0  0  0
  1  2  1  0
  2  3  1  0
  3  4  1  0
  4  5  2  0
  5  6  1  0
  6  7  2  0
  7  8  1  0
  8  9  2  0
  9 10  1  0
 10 11  1  0
 11 12  1  0
 12 13  1  0
 13 14  1  0
 14 15  1  0
  7 16  1  0
 16 17  2  0
 17 18  1  0
 17 19  1  0
 19 20  2  0
 20 21  1  0
 20 22  1  0
 22 23  2  0
 23 24  1  0
 24 25  1  0
  1 26  1  0
 26 27  2  0
 27 28  1  0
 28 29  2  0
 29 30  1  0
 30 31  2  0
 10  1  1  0
 23 16  1  0
 31 26  1  0
  9  4  1  0
  1 32  1  1
  2 33  1  0
  2 34  1  0
  3 35  1  0
  3 36  1  0
  5 37  1  0
  6 38  1  0
  8 39  1  0
 11 40  1  0
 11 41  1  0
 12 42  1  0
 12 43  1  0
 13 44  1  0
 13 45  1  0
 15 46  1  0
 15 47  1  0
 15 48  1  0
 18 49  1  0
 18 50  1  0
 21 51  1  0
 21 52  1  0
 24 53  1  0
 24 54  1  0
 25 55  1  0
 25 56  1  0
 25 57  1  0
 27 58  1  0
 28 59  1  0
 29 60  1  0
 30 61  1  0
 31 62  1  0
M  END
$$$$
