
     RDKit          3D

 59 64  0  0  0  0  0  0  0  0999 V2000
    9.1102    0.3718    1.9198 C   0  0  0  0  0  0  0  0  0  0  0  0
    8.2880    0.9797    0.9538 O   0  0  0  0  0  0  0  0  0  0  0  0
    6.9411    0.6450    0.9260 C   0  0  0  0  0  0  0  0  0  0  0  0
    6.0748    1.2105   -0.0041 C   0  0  0  0  0  0  0  0  0  0  0  0
    4.7446    0.8555   -0.0031 C   0  0  0  0  0  0  0  0  0  0  0  0
    4.2333   -0.0449    0.8900 C   0  0  0  0  0  0  0  0  0  0  0  0
    2.9742   -0.5862    1.1308 C   0  0  0  0  0  0  0  0  0  0  0  0
    1.8236   -0.2606    0.3925 N   0  0  0  0  0  0  0  0  0  0  0  0
    0.6750    0.2516    0.8685 C   0  0  0  0  0  0  0  0  0  0  0  0
    0.4437    0.5265    2.0802 O   0  0  0  0  0  0  0  0  0  0  0  0
   -0.2019    0.4291   -0.1566 N   0  0  0  0  0  0  0  0  0  0  0  0
   -1.4880    0.9954   -0.0693 C   0  0  0  0  0  0  0  0  0  0  0  0
   -2.6198    0.1075    0.1978 C   0  0  0  0  0  0  0  0  0  0  0  0
   -3.8908    0.7245    0.2692 C   0  0  0  0  0  0  0  0  0  0  0  0
   -5.0439    0.0268    0.5120 C   0  0  0  0  0  0  0  0  0  0  0  0
   -6.3660    0.7017    0.5817 C   0  0  1  0  0  0  0  0  0  0  0  0
   -6.9495    0.9530   -0.7825 C   0  0  0  0  0  0  0  0  0  0  0  0
   -7.2157   -0.0932    1.3891 O   0  0  0  0  0  0  0  0  0  0  0  0
   -6.9732    0.2948    2.6989 C   0  0  0  0  0  0  0  0  0  0  0  0
   -7.2467   -0.4380    3.8704 O   0  0  0  0  0  0  0  0  0  0  0  0
   -6.4363    1.4727    2.7367 N   0  0  0  0  0  0  0  0  0  0  0  0
   -6.2897    1.9446    1.3946 C   0  0  0  0  0  0  0  0  0  0  0  0
   -6.1376    3.1218    1.0433 O   0  0  0  0  0  0  0  0  0  0  0  0
   -4.9015   -1.3372    0.6873 C   0  0  0  0  0  0  0  0  0  0  0  0
   -3.6841   -1.9619    0.6237 C   0  0  0  0  0  0  0  0  0  0  0  0
   -2.5138   -1.2315    0.3741 C   0  0  0  0  0  0  0  0  0  0  0  0
   -0.9789   -2.1092    0.3069 Cl  0  0  0  0  0  0  0  0  0  0  0  0
    0.3955    0.0231   -1.2979 C   0  0  0  0  0  0  0  0  0  0  0  0
    0.0046   -0.0342   -2.6292 C   0  0  0  0  0  0  0  0  0  0  0  0
    0.8518   -0.5091   -3.6053 C   0  0  0  0  0  0  0  0  0  0  0  0
    0.4037   -0.5599   -5.0348 C   0  0  0  0  0  0  0  0  0  0  0  0
   -0.9724   -0.5095   -5.1150 F   0  0  0  0  0  0  0  0  0  0  0  0
    0.9002    0.5172   -5.7437 F   0  0  0  0  0  0  0  0  0  0  0  0
    0.7966   -1.7511   -5.6213 F   0  0  0  0  0  0  0  0  0  0  0  0
    2.1110   -0.9334   -3.2414 C   0  0  0  0  0  0  0  0  0  0  0  0
    2.5145   -0.8830   -1.9241 C   0  0  0  0  0  0  0  0  0  0  0  0
    1.6644   -0.4050   -0.9346 C   0  0  0  0  0  0  0  0  0  0  0  0
    3.1381   -1.4266    2.1636 N   0  0  0  0  0  0  0  0  0  0  0  0
    4.3745   -1.4360    2.5592 O   0  0  0  0  0  0  0  0  0  0  0  0
    5.0867   -0.6019    1.8061 C   0  0  0  0  0  0  0  0  0  0  0  0
    6.4260   -0.2627    1.8263 C   0  0  0  0  0  0  0  0  0  0  0  0
   10.1508    0.7923    1.8520 H   0  0  0  0  0  0  0  0  0  0  0  0
    9.1322   -0.7423    1.7987 H   0  0  0  0  0  0  0  0  0  0  0  0
    8.7296    0.6188    2.9271 H   0  0  0  0  0  0  0  0  0  0  0  0
    6.4859    1.9257   -0.7119 H   0  0  0  0  0  0  0  0  0  0  0  0
    4.0485    1.2881   -0.7250 H   0  0  0  0  0  0  0  0  0  0  0  0
   -1.4909    1.8782    0.6428 H   0  0  0  0  0  0  0  0  0  0  0  0
   -1.7647    1.5212   -1.0537 H   0  0  0  0  0  0  0  0  0  0  0  0
   -3.9742    1.8017    0.1272 H   0  0  0  0  0  0  0  0  0  0  0  0
   -7.4414    0.0629   -1.1800 H   0  0  0  0  0  0  0  0  0  0  0  0
   -6.1344    1.3137   -1.4311 H   0  0  0  0  0  0  0  0  0  0  0  0
   -7.6885    1.7590   -0.7026 H   0  0  0  0  0  0  0  0  0  0  0  0
   -7.0843   -0.0396    4.7870 H   0  0  0  0  0  0  0  0  0  0  0  0
   -5.8251   -1.9017    0.8826 H   0  0  0  0  0  0  0  0  0  0  0  0
   -3.5779   -3.0265    0.7611 H   0  0  0  0  0  0  0  0  0  0  0  0
   -0.9858    0.3010   -2.9057 H   0  0  0  0  0  0  0  0  0  0  0  0
    2.7829   -1.3120   -4.0278 H   0  0  0  0  0  0  0  0  0  0  0  0
    3.5078   -1.2187   -1.6431 H   0  0  0  0  0  0  0  0  0  0  0  0
    7.0635   -0.7233    2.5627 H   0  0  0  0  0  0  0  0  0  0  0  0
  1  2  1  0
  2  3  1  0
  3  4  2  0
  4  5  1  0
  5  6  2  0
  6  7  1  0
  7  8  1  0
  8  9  1  0
  9 10  2  0
  9 11  1  0
 11 12  1  0
 12 13  1  0
 13 14  2  0
 14 15  1  0
 15 16  1  0
 16 17  1  6
 16 18  1  0
 18 19  1  0
 19 20  1  0
 19 21  2  0
 21 22  1  0
 22 23  2  0
 15 24  2  0
 24 25  1  0
 25 26  2  0
 26 27  1  0
 11 28  1  0
 28 29  2  0
 29 30  1  0
 30 31  1  0
 31 32  1  0
 31 33  1  0
 31 34  1  0
 30 35  2  0
 35 36  1  0
 36 37  2  0
  7 38  2  0
 38 39  1  0
 39 40  1  0
 40 41  2  0
 41  3  1  0
 40  6  1  0
 37  8  1  0
 26 13  1  0
 37 28  1  0
 22 16  1  0
  1 42  1  0
  1 43  1  0
  1 44  1  0
  4 45  1  0
  5 46  1  0
 12 47  1  0
 12 48  1  0
 14 49  1  0
 17 50  1  0
 17 51  1  0
 17 52  1  0
 20 53  1  0
 24 54  1  0
 25 55  1  0
 29 56  1  0
 35 57  1  0
 36 58  1  0
 41 59  1  0
M  END
$$$$
