@<TRIPOS>MOLECULE
*****
 59 64 0 0 0
SMALL
GASTEIGER

@<TRIPOS>ATOM
      1 C           9.1102    0.3718    1.9198 C.3     1  UNL1        0.0788
      2 O           8.2880    0.9797    0.9538 O.3     1  UNL1       -0.4950
      3 C           6.9411    0.6450    0.9260 C.ar    1  UNL1        0.1237
      4 C           6.0748    1.2105   -0.0041 C.ar    1  UNL1       -0.0190
      5 C           4.7446    0.8555   -0.0031 C.ar    1  UNL1       -0.0439
      6 C           4.2333   -0.0449    0.8900 C.ar    1  UNL1        0.0662
      7 C           2.9742   -0.5862    1.1308 C.ar    1  UNL1        0.1922
      8 N           1.8236   -0.2606    0.3925 N.ar    1  UNL1       -0.2413
      9 C           0.6750    0.2516    0.8685 C.ar    1  UNL1        0.3362
     10 O           0.4437    0.5265    2.0802 O.2     1  UNL1       -0.2459
     11 N          -0.2019    0.4291   -0.1566 N.ar    1  UNL1       -0.2873
     12 C          -1.4880    0.9954   -0.0693 C.3     1  UNL1        0.0545
     13 C          -2.6198    0.1075    0.1978 C.ar    1  UNL1       -0.0089
     14 C          -3.8908    0.7245    0.2692 C.ar    1  UNL1       -0.0480
     15 C          -5.0439    0.0268    0.5120 C.ar    1  UNL1        0.0050
     16 C          -6.3660    0.7017    0.5817 C.3     1  UNL1        0.2142
     17 C          -6.9495    0.9530   -0.7825 C.3     1  UNL1       -0.0116
     18 O          -7.2157   -0.0932    1.3891 O.2     1  UNL1       -0.4308
     19 C          -6.9732    0.2948    2.6989 C.2     1  UNL1        0.3808
     20 O          -7.2467   -0.4380    3.8704 O.2     1  UNL1       -0.4673
     21 N          -6.4363    1.4727    2.7367 N.am    1  UNL1       -0.1074
     22 C          -6.2897    1.9446    1.3946 C.2     1  UNL1        0.2899
     23 O          -6.1376    3.1218    1.0433 O.2     1  UNL1       -0.2687
     24 C          -4.9015   -1.3372    0.6873 C.ar    1  UNL1       -0.0529
     25 C          -3.6841   -1.9619    0.6237 C.ar    1  UNL1       -0.0427
     26 C          -2.5138   -1.2315    0.3741 C.ar    1  UNL1        0.0459
     27 CL         -0.9789   -2.1092    0.3069 Cl      1  UNL1       -0.0832
     28 C           0.3955    0.0231   -1.2979 C.ar    1  UNL1        0.0712
     29 C           0.0046   -0.0342   -2.6292 C.ar    1  UNL1       -0.0244
     30 C           0.8518   -0.5091   -3.6053 C.ar    1  UNL1        0.0569
     31 C           0.4037   -0.5599   -5.0348 C.3     1  UNL1        0.4175
     32 F          -0.9724   -0.5095   -5.1150 F       1  UNL1       -0.1659
     33 F           0.9002    0.5172   -5.7437 F       1  UNL1       -0.1659
     34 F           0.7966   -1.7511   -5.6213 F       1  UNL1       -0.1659
     35 C           2.1110   -0.9334   -3.2414 C.ar    1  UNL1       -0.0480
     36 C           2.5145   -0.8830   -1.9241 C.ar    1  UNL1       -0.0351
     37 C           1.6644   -0.4050   -0.9346 C.ar    1  UNL1        0.0766
     38 N           3.1381   -1.4266    2.1636 N.ar    1  UNL1       -0.0587
     39 O           4.3745   -1.4360    2.5592 O.2     1  UNL1       -0.3525
     40 C           5.0867   -0.6019    1.8061 C.ar    1  UNL1        0.1728
     41 C           6.4260   -0.2627    1.8263 C.ar    1  UNL1        0.0257
     42 H          10.1508    0.7923    1.8520 H       1  UNL1        0.0660
     43 H           9.1322   -0.7423    1.7987 H       1  UNL1        0.0660
     44 H           8.7296    0.6188    2.9271 H       1  UNL1        0.0660
     45 H           6.4859    1.9257   -0.7119 H       1  UNL1        0.0654
     46 H           4.0485    1.2881   -0.7250 H       1  UNL1        0.0627
     47 H          -1.4909    1.8782    0.6428 H       1  UNL1        0.0543
     48 H          -1.7647    1.5212   -1.0537 H       1  UNL1        0.0543
     49 H          -3.9742    1.8017    0.1272 H       1  UNL1        0.0625
     50 H          -7.4414    0.0629   -1.1800 H       1  UNL1        0.0276
     51 H          -6.1344    1.3137   -1.4311 H       1  UNL1        0.0276
     52 H          -7.6885    1.7590   -0.7026 H       1  UNL1        0.0276
     53 H          -7.0843   -0.0396    4.7870 H       1  UNL1        0.2967
     54 H          -5.8251   -1.9017    0.8826 H       1  UNL1        0.0622
     55 H          -3.5779   -3.0265    0.7611 H       1  UNL1        0.0632
     56 H          -0.9858    0.3010   -2.9057 H       1  UNL1        0.0644
     57 H           2.7829   -1.3120   -4.0278 H       1  UNL1        0.0624
     58 H           3.5078   -1.2187   -1.6431 H       1  UNL1        0.0639
     59 H           7.0635   -0.7233    2.5627 H       1  UNL1        0.0692
@<TRIPOS>BOND
     1     1     2    1
     2     2     3    1
     3     3     4   ar
     4     4     5   ar
     5     5     6   ar
     6     6     7   ar
     7     7     8    1
     8     8     9   ar
     9     9    10    2
    10     9    11   ar
    11    11    12    1
    12    12    13    1
    13    13    14   ar
    14    14    15   ar
    15    15    16    1
    16    16    17    1
    17    16    18    1
    18    18    19    1
    19    19    20    1
    20    19    21    2
    21    21    22    1
    22    22    23    2
    23    15    24   ar
    24    24    25   ar
    25    25    26   ar
    26    26    27    1
    27    11    28   ar
    28    28    29   ar
    29    29    30   ar
    30    30    31    1
    31    31    32    1
    32    31    33    1
    33    31    34    1
    34    30    35   ar
    35    35    36   ar
    36    36    37   ar
    37     7    38   ar
    38    38    39   ar
    39    39    40   ar
    40    40    41   ar
    41    41     3   ar
    42    40     6   ar
    43    37     8   ar
    44    26    13   ar
    45    37    28   ar
    46    22    16    1
    47     1    42    1
    48     1    43    1
    49     1    44    1
    50     4    45    1
    51     5    46    1
    52    12    47    1
    53    12    48    1
    54    14    49    1
    55    17    50    1
    56    17    51    1
    57    17    52    1
    58    20    53    1
    59    24    54    1
    60    25    55    1
    61    29    56    1
    62    35    57    1
    63    36    58    1
    64    41    59    1
