
     RDKit          3D

 46 49  0  0  0  0  0  0  0  0999 V2000
   -4.7503    1.2418    1.1842 C   0  0  0  0  0  0  0  0  0  0  0  0
   -3.6136    1.9178    0.6622 N   0  0  0  0  0  0  0  0  0  0  0  0
   -2.5903    2.2323    1.5855 C   0  0  0  0  0  0  0  0  0  0  0  0
   -1.3541    1.4145    1.5061 C   0  0  0  0  0  0  0  0  0  0  0  0
   -1.4360    0.2898    0.5656 C   0  0  0  0  0  0  0  0  0  0  0  0
   -2.3389    0.3137   -0.5041 C   0  0  0  0  0  0  0  0  0  0  0  0
   -2.1739   -0.8613   -1.1844 C   0  0  0  0  0  0  0  0  0  0  0  0
   -2.8074   -1.3451   -2.3092 C   0  0  0  0  0  0  0  0  0  0  0  0
   -2.4555   -2.5808   -2.8094 C   0  0  0  0  0  0  0  0  0  0  0  0
   -1.4591   -3.3234   -2.1645 C   0  0  0  0  0  0  0  0  0  0  0  0
   -0.8264   -2.8411   -1.0420 C   0  0  0  0  0  0  0  0  0  0  0  0
   -1.1782   -1.6066   -0.5426 C   0  0  0  0  0  0  0  0  0  0  0  0
   -0.7632   -0.8630    0.5135 N   0  0  0  0  0  0  0  0  0  0  0  0
    0.2569   -1.2481    1.4525 C   0  0  0  0  0  0  0  0  0  0  0  0
    1.6044   -0.8457    1.1032 C   0  0  0  0  0  0  0  0  0  0  0  0
    2.0927    0.3740    1.5182 C   0  0  0  0  0  0  0  0  0  0  0  0
    3.3826    0.8127    1.2112 C   0  0  0  0  0  0  0  0  0  0  0  0
    4.1985    0.0018    0.4682 C   0  0  0  0  0  0  0  0  0  0  0  0
    5.5431    0.4392    0.1382 C   0  0  0  0  0  0  0  0  0  0  0  0
    6.2809   -0.3326   -0.5535 O   0  0  0  0  0  0  0  0  0  0  0  0
    6.1030    1.6811    0.5356 N   0  0  0  0  0  0  0  0  0  0  0  0
    7.3616    2.0501    0.2063 O   0  0  0  0  0  0  0  0  0  0  0  0
    3.7352   -1.2126    0.0456 C   0  0  0  0  0  0  0  0  0  0  0  0
    2.4436   -1.6440    0.3570 C   0  0  0  0  0  0  0  0  0  0  0  0
   -3.1915    1.5132   -0.6338 C   0  0  0  0  0  0  0  0  0  0  0  0
   -4.7790    1.1620    2.2784 H   0  0  0  0  0  0  0  0  0  0  0  0
   -4.9141    0.2300    0.7760 H   0  0  0  0  0  0  0  0  0  0  0  0
   -5.6640    1.8368    0.8963 H   0  0  0  0  0  0  0  0  0  0  0  0
   -2.3943    3.3412    1.5242 H   0  0  0  0  0  0  0  0  0  0  0  0
   -3.0137    2.0986    2.6245 H   0  0  0  0  0  0  0  0  0  0  0  0
   -1.0068    1.0760    2.5261 H   0  0  0  0  0  0  0  0  0  0  0  0
   -0.5259    2.0874    1.1420 H   0  0  0  0  0  0  0  0  0  0  0  0
   -3.5736   -0.7687   -2.8010 H   0  0  0  0  0  0  0  0  0  0  0  0
   -2.9452   -2.9881   -3.7037 H   0  0  0  0  0  0  0  0  0  0  0  0
   -1.2132   -4.2793   -2.5832 H   0  0  0  0  0  0  0  0  0  0  0  0
   -0.0590   -3.3863   -0.5247 H   0  0  0  0  0  0  0  0  0  0  0  0
    0.0111   -0.8224    2.4570 H   0  0  0  0  0  0  0  0  0  0  0  0
    0.1609   -2.3647    1.5893 H   0  0  0  0  0  0  0  0  0  0  0  0
    1.4792    1.0423    2.1064 H   0  0  0  0  0  0  0  0  0  0  0  0
    3.6927    1.7762    1.5701 H   0  0  0  0  0  0  0  0  0  0  0  0
    5.5533    2.3589    1.1029 H   0  0  0  0  0  0  0  0  0  0  0  0
    7.3113    2.8904   -0.3115 H   0  0  0  0  0  0  0  0  0  0  0  0
    4.3996   -1.8276   -0.5365 H   0  0  0  0  0  0  0  0  0  0  0  0
    2.1507   -2.6127   -0.0112 H   0  0  0  0  0  0  0  0  0  0  0  0
   -2.6362    2.3461   -1.1030 H   0  0  0  0  0  0  0  0  0  0  0  0
   -4.0977    1.2260   -1.2175 H   0  0  0  0  0  0  0  0  0  0  0  0
  1  2  1  0
  2  3  1  0
  3  4  1  0
  4  5  1  0
  5  6  2  0
  6  7  1  0
  7  8  2  0
  8  9  1  0
  9 10  2  0
 10 11  1  0
 11 12  2  0
 12 13  1  0
 13 14  1  0
 14 15  1  0
 15 16  2  0
 16 17  1  0
 17 18  2  0
 18 19  1  0
 19 20  2  0
 19 21  1  0
 21 22  1  0
 18 23  1  0
 23 24  2  0
  6 25  1  0
 25  2  1  0
 13  5  1  0
 24 15  1  0
 12  7  1  0
  1 26  1  0
  1 27  1  0
  1 28  1  0
  3 29  1  0
  3 30  1  0
  4 31  1  0
  4 32  1  0
  8 33  1  0
  9 34  1  0
 10 35  1  0
 11 36  1  0
 14 37  1  0
 14 38  1  0
 16 39  1  0
 17 40  1  0
 21 41  1  0
 22 42  1  0
 23 43  1  0
 24 44  1  0
 25 45  1  0
 25 46  1  0
M  END
$$$$
