@<TRIPOS>MOLECULE
*****
 46 49 0 0 0
SMALL
GASTEIGER

@<TRIPOS>ATOM
      1 C          -4.7503    1.2418    1.1842 C.3     1  UNL1       -0.0124
      2 N          -3.6136    1.9178    0.6622 N.3     1  UNL1       -0.3007
      3 C          -2.5903    2.2323    1.5855 C.3     1  UNL1        0.0043
      4 C          -1.3541    1.4145    1.5061 C.3     1  UNL1        0.0008
      5 C          -1.4360    0.2898    0.5656 C.ar    1  UNL1        0.0258
      6 C          -2.3389    0.3137   -0.5041 C.ar    1  UNL1       -0.0049
      7 C          -2.1739   -0.8613   -1.1844 C.ar    1  UNL1        0.0045
      8 C          -2.8074   -1.3451   -2.3092 C.ar    1  UNL1       -0.0523
      9 C          -2.4555   -2.5808   -2.8094 C.ar    1  UNL1       -0.0611
     10 C          -1.4591   -3.3234   -2.1645 C.ar    1  UNL1       -0.0598
     11 C          -0.8264   -2.8411   -1.0420 C.ar    1  UNL1       -0.0376
     12 C          -1.1782   -1.6066   -0.5426 C.ar    1  UNL1        0.0499
     13 N          -0.7632   -0.8630    0.5135 N.ar    1  UNL1       -0.3391
     14 C           0.2569   -1.2481    1.4525 C.3     1  UNL1        0.0486
     15 C           1.6044   -0.8457    1.1032 C.ar    1  UNL1       -0.0277
     16 C           2.0927    0.3740    1.5182 C.ar    1  UNL1       -0.0562
     17 C           3.3826    0.8127    1.2112 C.ar    1  UNL1       -0.0493
     18 C           4.1985    0.0018    0.4682 C.ar    1  UNL1        0.0387
     19 C           5.5431    0.4392    0.1382 C.2     1  UNL1        0.2665
     20 O           6.2809   -0.3326   -0.5535 O.2     1  UNL1       -0.2681
     21 N           6.1030    1.6811    0.5356 N.am    1  UNL1       -0.1935
     22 O           7.3616    2.0501    0.2063 O.3     1  UNL1       -0.2949
     23 C           3.7352   -1.2126    0.0456 C.ar    1  UNL1       -0.0493
     24 C           2.4436   -1.6440    0.3570 C.ar    1  UNL1       -0.0562
     25 C          -3.1915    1.5132   -0.6338 C.3     1  UNL1        0.0260
     26 H          -4.7790    1.1620    2.2784 H       1  UNL1        0.0391
     27 H          -4.9141    0.2300    0.7760 H       1  UNL1        0.0391
     28 H          -5.6640    1.8368    0.8963 H       1  UNL1        0.0391
     29 H          -2.3943    3.3412    1.5242 H       1  UNL1        0.0430
     30 H          -3.0137    2.0986    2.6245 H       1  UNL1        0.0430
     31 H          -1.0068    1.0760    2.5261 H       1  UNL1        0.0340
     32 H          -0.5259    2.0874    1.1420 H       1  UNL1        0.0340
     33 H          -3.5736   -0.7687   -2.8010 H       1  UNL1        0.0624
     34 H          -2.9452   -2.9881   -3.7037 H       1  UNL1        0.0618
     35 H          -1.2132   -4.2793   -2.5832 H       1  UNL1        0.0618
     36 H          -0.0590   -3.3863   -0.5247 H       1  UNL1        0.0638
     37 H           0.0111   -0.8224    2.4570 H       1  UNL1        0.0541
     38 H           0.1609   -2.3647    1.5893 H       1  UNL1        0.0541
     39 H           1.4792    1.0423    2.1064 H       1  UNL1        0.0621
     40 H           3.6927    1.7762    1.5701 H       1  UNL1        0.0625
     41 H           5.5533    2.3589    1.1029 H       1  UNL1        0.1825
     42 H           7.3113    2.8904   -0.3115 H       1  UNL1        0.2414
     43 H           4.3996   -1.8276   -0.5365 H       1  UNL1        0.0625
     44 H           2.1507   -2.6127   -0.0112 H       1  UNL1        0.0621
     45 H          -2.6362    2.3461   -1.1030 H       1  UNL1        0.0476
     46 H          -4.0977    1.2260   -1.2175 H       1  UNL1        0.0476
@<TRIPOS>BOND
     1     1     2    1
     2     2     3    1
     3     3     4    1
     4     4     5    1
     5     5     6   ar
     6     6     7   ar
     7     7     8   ar
     8     8     9   ar
     9     9    10   ar
    10    10    11   ar
    11    11    12   ar
    12    12    13   ar
    13    13    14    1
    14    14    15    1
    15    15    16   ar
    16    16    17   ar
    17    17    18   ar
    18    18    19    1
    19    19    20    2
    20    19    21   am
    21    21    22    1
    22    18    23   ar
    23    23    24   ar
    24     6    25    1
    25    25     2    1
    26    13     5   ar
    27    24    15   ar
    28    12     7   ar
    29     1    26    1
    30     1    27    1
    31     1    28    1
    32     3    29    1
    33     3    30    1
    34     4    31    1
    35     4    32    1
    36     8    33    1
    37     9    34    1
    38    10    35    1
    39    11    36    1
    40    14    37    1
    41    14    38    1
    42    16    39    1
    43    17    40    1
    44    21    41    1
    45    22    42    1
    46    23    43    1
    47    24    44    1
    48    25    45    1
    49    25    46    1
