@<TRIPOS>MOLECULE
*****
 53 57 0 0 0
SMALL
GASTEIGER

@<TRIPOS>ATOM
      1 C           5.5404    2.1613   -0.4302 C.3     1  UNL1       -0.0394
      2 C           4.2773    1.3679   -0.4999 C.ar    1  UNL1       -0.0454
      3 C           3.3118    1.4889    0.4963 C.ar    1  UNL1       -0.0311
      4 C           2.1595    0.7686    0.4377 C.ar    1  UNL1        0.0894
      5 N           1.0992    0.6954    1.2345 N.ar    1  UNL1       -0.2321
      6 C           0.2073   -0.1751    0.7378 C.ar    1  UNL1        0.1134
      7 C          -1.0729   -0.5166    1.3535 C.3     1  UNL1        0.0395
      8 C          -2.2964   -0.0554    0.5911 C.3     1  UNL1       -0.0034
      9 C          -2.3260    1.3703    0.2923 C.ar    1  UNL1       -0.0434
     10 C          -1.5859    1.8879   -0.7385 C.ar    1  UNL1       -0.0569
     11 C          -1.5962    3.2530   -1.0346 C.ar    1  UNL1       -0.0431
     12 C          -2.3631    4.1134   -0.2829 C.ar    1  UNL1        0.0410
     13 CL         -2.3864    5.8447   -0.6459 Cl      1  UNL1       -0.0835
     14 C          -3.1050    3.5907    0.7508 C.ar    1  UNL1       -0.0431
     15 C          -3.0856    2.2327    1.0342 C.ar    1  UNL1       -0.0569
     16 C          -2.5994   -0.9036   -0.5968 C.3     1  UNL1       -0.0298
     17 C          -2.5065   -2.3729   -0.2394 C.3     1  UNL1        0.0110
     18 C          -3.3793   -2.5909    0.9846 C.3     1  UNL1       -0.0359
     19 C          -2.4955   -2.3485    2.1788 C.3     1  UNL1       -0.0352
     20 C          -1.1863   -1.9998    1.5510 C.3     1  UNL1        0.0206
     21 N          -1.1637   -2.6217    0.2412 N.3     1  UNL1       -0.2988
     22 C          -0.8092   -4.0018    0.2809 C.3     1  UNL1       -0.0122
     23 N           0.7295   -0.6527   -0.3957 N.ar    1  UNL1       -0.3415
     24 C           1.9464   -0.0901   -0.6197 C.ar    1  UNL1        0.0665
     25 C           2.8883   -0.2346   -1.6296 C.ar    1  UNL1       -0.0331
     26 C           4.0567    0.5083   -1.5523 C.ar    1  UNL1       -0.0455
     27 C           5.1181    0.4165   -2.5879 C.3     1  UNL1       -0.0394
     28 H           5.4909    3.0445   -1.1192 H       1  UNL1        0.0278
     29 H           5.7048    2.5601    0.5872 H       1  UNL1        0.0278
     30 H           6.4277    1.5378   -0.6796 H       1  UNL1        0.0278
     31 H           3.4702    2.1570    1.3253 H       1  UNL1        0.0642
     32 H          -1.1822   -0.0387    2.3727 H       1  UNL1        0.0400
     33 H          -3.1527   -0.2445    1.3171 H       1  UNL1        0.0357
     34 H          -0.9587    1.2926   -1.3857 H       1  UNL1        0.0621
     35 H          -1.0142    3.6618   -1.8453 H       1  UNL1        0.0632
     36 H          -3.7104    4.2833    1.3410 H       1  UNL1        0.0632
     37 H          -3.6864    1.9026    1.8504 H       1  UNL1        0.0621
     38 H          -2.0181   -0.6512   -1.5000 H       1  UNL1        0.0286
     39 H          -3.6774   -0.7253   -0.8730 H       1  UNL1        0.0286
     40 H          -2.7868   -2.9958   -1.0896 H       1  UNL1        0.0463
     41 H          -4.2566   -1.9166    1.0154 H       1  UNL1        0.0281
     42 H          -3.7296   -3.6432    1.0466 H       1  UNL1        0.0281
     43 H          -2.4167   -3.2517    2.8306 H       1  UNL1        0.0281
     44 H          -2.8298   -1.5354    2.8421 H       1  UNL1        0.0281
     45 H          -0.3255   -2.3360    2.1799 H       1  UNL1        0.0470
     46 H          -0.5060   -4.2852    1.3225 H       1  UNL1        0.0391
     47 H          -1.5631   -4.6829   -0.1329 H       1  UNL1        0.0391
     48 H           0.1234   -4.1352   -0.3278 H       1  UNL1        0.0391
     49 H           0.3384   -1.3476   -1.0672 H       1  UNL1        0.1671
     50 H           2.7234   -0.9075   -2.4600 H       1  UNL1        0.0641
     51 H           4.6518   -0.0219   -3.4932 H       1  UNL1        0.0278
     52 H           5.9376   -0.2613   -2.2640 H       1  UNL1        0.0278
     53 H           5.5688    1.4042   -2.7688 H       1  UNL1        0.0278
@<TRIPOS>BOND
     1     1     2    1
     2     2     3   ar
     3     3     4   ar
     4     4     5   ar
     5     5     6   ar
     6     6     7    1
     7     7     8    1
     8     8     9    1
     9     9    10   ar
    10    10    11   ar
    11    11    12   ar
    12    12    13    1
    13    12    14   ar
    14    14    15   ar
    15     8    16    1
    16    16    17    1
    17    17    18    1
    18    18    19    1
    19    19    20    1
    20    20    21    1
    21    21    22    1
    22     6    23   ar
    23    23    24   ar
    24    24    25   ar
    25    25    26   ar
    26    26    27    1
    27    26     2   ar
    28    24     4   ar
    29    20     7    1
    30    15     9   ar
    31    21    17    1
    32     1    28    1
    33     1    29    1
    34     1    30    1
    35     3    31    1
    36     7    32    1
    37     8    33    1
    38    10    34    1
    39    11    35    1
    40    14    36    1
    41    15    37    1
    42    16    38    1
    43    16    39    1
    44    17    40    1
    45    18    41    1
    46    18    42    1
    47    19    43    1
    48    19    44    1
    49    20    45    1
    50    22    46    1
    51    22    47    1
    52    22    48    1
    53    23    49    1
    54    25    50    1
    55    27    51    1
    56    27    52    1
    57    27    53    1
