
     RDKit          3D

 53 57  0  0  0  0  0  0  0  0999 V2000
    5.5404    2.1613   -0.4302 C   0  0  0  0  0  0  0  0  0  0  0  0
    4.2773    1.3679   -0.4999 C   0  0  0  0  0  0  0  0  0  0  0  0
    3.3118    1.4889    0.4963 C   0  0  0  0  0  0  0  0  0  0  0  0
    2.1595    0.7686    0.4377 C   0  0  0  0  0  0  0  0  0  0  0  0
    1.0992    0.6954    1.2345 N   0  0  0  0  0  0  0  0  0  0  0  0
    0.2073   -0.1751    0.7378 C   0  0  0  0  0  0  0  0  0  0  0  0
   -1.0729   -0.5166    1.3535 C   0  0  1  0  0  0  0  0  0  0  0  0
   -2.2964   -0.0554    0.5911 C   0  0  1  0  0  0  0  0  0  0  0  0
   -2.3260    1.3703    0.2923 C   0  0  0  0  0  0  0  0  0  0  0  0
   -1.5859    1.8879   -0.7385 C   0  0  0  0  0  0  0  0  0  0  0  0
   -1.5962    3.2530   -1.0346 C   0  0  0  0  0  0  0  0  0  0  0  0
   -2.3631    4.1134   -0.2829 C   0  0  0  0  0  0  0  0  0  0  0  0
   -2.3864    5.8447   -0.6459 Cl  0  0  0  0  0  0  0  0  0  0  0  0
   -3.1050    3.5907    0.7508 C   0  0  0  0  0  0  0  0  0  0  0  0
   -3.0856    2.2327    1.0342 C   0  0  0  0  0  0  0  0  0  0  0  0
   -2.5994   -0.9036   -0.5968 C   0  0  0  0  0  0  0  0  0  0  0  0
   -2.5065   -2.3729   -0.2394 C   0  0  2  0  0  0  0  0  0  0  0  0
   -3.3793   -2.5909    0.9846 C   0  0  0  0  0  0  0  0  0  0  0  0
   -2.4955   -2.3485    2.1788 C   0  0  0  0  0  0  0  0  0  0  0  0
   -1.1863   -1.9998    1.5510 C   0  0  1  0  0  0  0  0  0  0  0  0
   -1.1637   -2.6217    0.2412 N   0  0  0  0  0  0  0  0  0  0  0  0
   -0.8092   -4.0018    0.2809 C   0  0  0  0  0  0  0  0  0  0  0  0
    0.7295   -0.6527   -0.3957 N   0  0  0  0  0  0  0  0  0  0  0  0
    1.9464   -0.0901   -0.6197 C   0  0  0  0  0  0  0  0  0  0  0  0
    2.8883   -0.2346   -1.6296 C   0  0  0  0  0  0  0  0  0  0  0  0
    4.0567    0.5083   -1.5523 C   0  0  0  0  0  0  0  0  0  0  0  0
    5.1181    0.4165   -2.5879 C   0  0  0  0  0  0  0  0  0  0  0  0
    5.4909    3.0445   -1.1192 H   0  0  0  0  0  0  0  0  0  0  0  0
    5.7048    2.5601    0.5872 H   0  0  0  0  0  0  0  0  0  0  0  0
    6.4277    1.5378   -0.6796 H   0  0  0  0  0  0  0  0  0  0  0  0
    3.4702    2.1570    1.3253 H   0  0  0  0  0  0  0  0  0  0  0  0
   -1.1822   -0.0387    2.3727 H   0  0  0  0  0  0  0  0  0  0  0  0
   -3.1527   -0.2445    1.3171 H   0  0  0  0  0  0  0  0  0  0  0  0
   -0.9587    1.2926   -1.3857 H   0  0  0  0  0  0  0  0  0  0  0  0
   -1.0142    3.6618   -1.8453 H   0  0  0  0  0  0  0  0  0  0  0  0
   -3.7104    4.2833    1.3410 H   0  0  0  0  0  0  0  0  0  0  0  0
   -3.6864    1.9026    1.8504 H   0  0  0  0  0  0  0  0  0  0  0  0
   -2.0181   -0.6512   -1.5000 H   0  0  0  0  0  0  0  0  0  0  0  0
   -3.6774   -0.7253   -0.8730 H   0  0  0  0  0  0  0  0  0  0  0  0
   -2.7868   -2.9958   -1.0896 H   0  0  0  0  0  0  0  0  0  0  0  0
   -4.2566   -1.9166    1.0154 H   0  0  0  0  0  0  0  0  0  0  0  0
   -3.7296   -3.6432    1.0466 H   0  0  0  0  0  0  0  0  0  0  0  0
   -2.4167   -3.2517    2.8306 H   0  0  0  0  0  0  0  0  0  0  0  0
   -2.8298   -1.5354    2.8421 H   0  0  0  0  0  0  0  0  0  0  0  0
   -0.3255   -2.3360    2.1799 H   0  0  0  0  0  0  0  0  0  0  0  0
   -0.5060   -4.2852    1.3225 H   0  0  0  0  0  0  0  0  0  0  0  0
   -1.5631   -4.6829   -0.1329 H   0  0  0  0  0  0  0  0  0  0  0  0
    0.1234   -4.1352   -0.3278 H   0  0  0  0  0  0  0  0  0  0  0  0
    0.3384   -1.3476   -1.0672 H   0  0  0  0  0  0  0  0  0  0  0  0
    2.7234   -0.9075   -2.4600 H   0  0  0  0  0  0  0  0  0  0  0  0
    4.6518   -0.0219   -3.4932 H   0  0  0  0  0  0  0  0  0  0  0  0
    5.9376   -0.2613   -2.2640 H   0  0  0  0  0  0  0  0  0  0  0  0
    5.5688    1.4042   -2.7688 H   0  0  0  0  0  0  0  0  0  0  0  0
  1  2  1  0
  2  3  2  0
  3  4  1  0
  4  5  1  0
  5  6  2  0
  6  7  1  0
  7  8  1  0
  8  9  1  0
  9 10  2  0
 10 11  1  0
 11 12  2  0
 12 13  1  0
 12 14  1  0
 14 15  2  0
  8 16  1  0
 16 17  1  0
 17 18  1  0
 18 19  1  0
 19 20  1  0
 20 21  1  0
 21 22  1  0
  6 23  1  0
 23 24  1  0
 24 25  1  0
 25 26  2  0
 26 27  1  0
 26  2  1  0
 24  4  2  0
 20  7  1  0
 15  9  1  0
 21 17  1  0
  1 28  1  0
  1 29  1  0
  1 30  1  0
  3 31  1  0
  7 32  1  1
  8 33  1  1
 10 34  1  0
 11 35  1  0
 14 36  1  0
 15 37  1  0
 16 38  1  0
 16 39  1  0
 17 40  1  6
 18 41  1  0
 18 42  1  0
 19 43  1  0
 19 44  1  0
 20 45  1  1
 22 46  1  0
 22 47  1  0
 22 48  1  0
 23 49  1  0
 25 50  1  0
 27 51  1  0
 27 52  1  0
 27 53  1  0
M  END
$$$$
