@<TRIPOS>MOLECULE
*****
 70 73 0 0 0
SMALL
GASTEIGER

@<TRIPOS>ATOM
      1 C          -9.1498    0.9161    1.8952 C.3     1  UNL1       -0.0507
      2 C          -7.9583    1.3181    1.0370 C.3     1  UNL1        0.0177
      3 N          -7.3599    0.2215    0.4115 N.3     1  UNL1       -0.1771
      4 C          -6.8152    0.6291   -0.8730 C.3     1  UNL1        0.0177
      5 C          -7.1819   -0.3206   -1.9715 C.3     1  UNL1       -0.0507
      6 S          -6.2716   -0.7734    1.2111 S.O2    1  UNL1        0.0611
      7 O          -5.8755   -1.8396    0.1809 O.2     1  UNL1       -0.1528
      8 O          -6.9475   -1.6350    2.2760 O.2     1  UNL1       -0.1528
      9 C          -4.8180   -0.0671    1.7968 C.ar    1  UNL1        0.1101
     10 C          -3.5900   -0.3183    1.1409 C.ar    1  UNL1       -0.0138
     11 C          -2.4069    0.2153    1.4865 C.ar    1  UNL1        0.0354
     12 N          -1.1841   -0.0215    0.8448 N.pl3   1  UNL1       -0.2836
     13 C          -0.9806   -0.8254   -0.2954 C.ar    1  UNL1        0.2200
     14 N          -1.9617   -1.4749   -0.9232 N.ar    1  UNL1       -0.2226
     15 C          -1.7628   -2.2390   -2.0091 C.ar    1  UNL1        0.0332
     16 C          -0.4480   -2.3374   -2.4798 C.ar    1  UNL1       -0.0174
     17 C           0.5864   -1.6924   -1.8718 C.ar    1  UNL1        0.0761
     18 C           1.9482   -1.7786   -2.3400 C.ar    1  UNL1        0.0040
     19 C           2.2480   -2.5350   -3.4408 C.ar    1  UNL1       -0.0344
     20 C           3.5869   -2.5798   -3.8480 C.ar    1  UNL1        0.0289
     21 N           4.5665   -1.9228   -3.2128 N.ar    1  UNL1       -0.2549
     22 C           4.2911   -1.1609   -2.1109 C.ar    1  UNL1        0.0716
     23 C           5.4061   -0.4693   -1.4646 C.ar    1  UNL1        0.0005
     24 C           5.2102    0.3136   -0.3549 C.ar    1  UNL1       -0.0508
     25 C           6.1975    0.9919    0.3055 C.ar    1  UNL1       -0.0398
     26 C           7.5079    0.8879   -0.1761 C.ar    1  UNL1        0.0348
     27 N           8.4811    1.6092    0.5455 N.am    1  UNL1       -0.2695
     28 C           9.8470    1.6462    0.2405 C.2     1  UNL1        0.3036
     29 O          10.3264    1.0220   -0.7273 O.2     1  UNL1       -0.2525
     30 N          10.7596    2.4309    1.0631 N.am    1  UNL1       -0.3022
     31 C          12.1761    2.4708    0.7488 C.3     1  UNL1        0.0015
     32 C           7.7226    0.1107   -1.2830 C.ar    1  UNL1       -0.0398
     33 C           6.6856   -0.5720   -1.9366 C.ar    1  UNL1       -0.0508
     34 C           2.9969   -1.1152   -1.7140 C.ar    1  UNL1       -0.0265
     35 N           0.3019   -0.9483   -0.7910 N.ar    1  UNL1       -0.2142
     36 C          -2.4002    1.0848    2.5806 C.ar    1  UNL1       -0.0401
     37 C          -3.5805    1.3501    3.2426 C.ar    1  UNL1       -0.0552
     38 C          -4.7799    0.7790    2.8555 C.ar    1  UNL1       -0.0240
     39 C          -5.9396    1.1003    3.6628 C.3     1  UNL1       -0.0379
     40 H          -9.3719    1.6539    2.6806 H       1  UNL1        0.0243
     41 H         -10.0680    0.7681    1.2905 H       1  UNL1        0.0243
     42 H          -8.9514   -0.0756    2.3855 H       1  UNL1        0.0243
     43 H          -8.4704    1.9060    0.1788 H       1  UNL1        0.0441
     44 H          -7.3238    2.0915    1.4844 H       1  UNL1        0.0441
     45 H          -7.2162    1.6447   -1.1502 H       1  UNL1        0.0441
     46 H          -5.6962    0.7288   -0.8116 H       1  UNL1        0.0441
     47 H          -7.9651    0.1213   -2.6375 H       1  UNL1        0.0243
     48 H          -6.2976   -0.5486   -2.5735 H       1  UNL1        0.0243
     49 H          -7.5851   -1.2749   -1.5571 H       1  UNL1        0.0243
     50 H          -3.6670   -0.9970    0.3091 H       1  UNL1        0.0656
     51 H          -0.2846    0.4455    1.2410 H       1  UNL1        0.1550
     52 H          -2.5842   -2.7554   -2.4975 H       1  UNL1        0.0831
     53 H          -0.3087   -2.9525   -3.3487 H       1  UNL1        0.0654
     54 H           1.5433   -3.1037   -4.0278 H       1  UNL1        0.0639
     55 H           3.8024   -3.1913   -4.7311 H       1  UNL1        0.0830
     56 H           4.1986    0.4244    0.0582 H       1  UNL1        0.0625
     57 H           5.9835    1.6077    1.1942 H       1  UNL1        0.0636
     58 H           8.1987    2.1914    1.4056 H       1  UNL1        0.1564
     59 H          10.3920    2.9640    1.8791 H       1  UNL1        0.1499
     60 H          12.3202    2.2271   -0.3223 H       1  UNL1        0.0426
     61 H          12.6575    1.6676    1.3465 H       1  UNL1        0.0426
     62 H          12.6154    3.4662    0.9632 H       1  UNL1        0.0426
     63 H           8.7136    0.0004   -1.6901 H       1  UNL1        0.0636
     64 H           6.8859   -1.1707   -2.7983 H       1  UNL1        0.0625
     65 H           2.7196   -0.5311   -0.8519 H       1  UNL1        0.0645
     66 H          -1.4596    1.5300    2.8805 H       1  UNL1        0.0636
     67 H          -3.5131    2.0337    4.0856 H       1  UNL1        0.0621
     68 H          -5.6267    0.9608    4.7431 H       1  UNL1        0.0278
     69 H          -6.2613    2.1609    3.6231 H       1  UNL1        0.0278
     70 H          -6.8137    0.4551    3.5467 H       1  UNL1        0.0278
@<TRIPOS>BOND
     1     1     2    1
     2     2     3    1
     3     3     4    1
     4     4     5    1
     5     3     6    1
     6     6     7    2
     7     6     8    2
     8     6     9    1
     9     9    10   ar
    10    10    11   ar
    11    11    12    1
    12    12    13    1
    13    13    14   ar
    14    14    15   ar
    15    15    16   ar
    16    16    17   ar
    17    17    18    1
    18    18    19   ar
    19    19    20   ar
    20    20    21   ar
    21    21    22   ar
    22    22    23    1
    23    23    24   ar
    24    24    25   ar
    25    25    26   ar
    26    26    27    1
    27    27    28   am
    28    28    29    2
    29    28    30   am
    30    30    31    1
    31    26    32   ar
    32    32    33   ar
    33    22    34   ar
    34    17    35   ar
    35    11    36   ar
    36    36    37   ar
    37    37    38   ar
    38    38    39    1
    39    38     9   ar
    40    35    13   ar
    41    34    18   ar
    42    33    23   ar
    43     1    40    1
    44     1    41    1
    45     1    42    1
    46     2    43    1
    47     2    44    1
    48     4    45    1
    49     4    46    1
    50     5    47    1
    51     5    48    1
    52     5    49    1
    53    10    50    1
    54    12    51    1
    55    15    52    1
    56    16    53    1
    57    19    54    1
    58    20    55    1
    59    24    56    1
    60    25    57    1
    61    27    58    1
    62    30    59    1
    63    31    60    1
    64    31    61    1
    65    31    62    1
    66    32    63    1
    67    33    64    1
    68    34    65    1
    69    36    66    1
    70    37    67    1
    71    39    68    1
    72    39    69    1
    73    39    70    1
