@<TRIPOS>MOLECULE
*****
 58 61 0 0 0
SMALL
GASTEIGER

@<TRIPOS>ATOM
      1 C          -6.1642    2.4431   -1.5336 C.3     1  UNL1        0.0365
      2 O          -6.2024    1.1118   -1.7702 O.3     1  UNL1       -0.3814
      3 C          -6.5108    0.2331   -0.8149 C.3     1  UNL1        0.0645
      4 C          -5.7205    0.0372    0.3957 C.3     1  UNL1        0.0552
      5 C          -5.7416    1.0816    1.4548 C.3     1  UNL1       -0.0323
      6 C          -4.8736    0.3852    2.5251 C.3     1  UNL1       -0.0370
      7 C          -4.0743   -0.6263    1.7417 C.3     1  UNL1        0.0209
      8 N          -4.3750   -0.3828    0.3168 N.3     1  UNL1       -0.1713
      9 S          -3.2255    0.5887   -0.4122 S.O2    1  UNL1        0.0612
     10 O          -2.9801    1.9115    0.1995 O.2     1  UNL1       -0.1528
     11 O          -3.5431    0.6724   -1.9028 O.2     1  UNL1       -0.1528
     12 C          -1.6703   -0.2749   -0.3046 C.ar    1  UNL1        0.1063
     13 C          -0.8347   -0.0271    0.7444 C.ar    1  UNL1       -0.0335
     14 C           0.3612   -0.6985    0.8254 C.ar    1  UNL1       -0.0377
     15 C           0.7721   -1.6280   -0.1145 C.ar    1  UNL1        0.0481
     16 C          -0.1136   -1.8403   -1.1567 C.ar    1  UNL1        0.0502
     17 C          -1.3190   -1.1846   -1.2673 C.ar    1  UNL1       -0.0226
     18 C           0.5076   -2.8487   -2.0260 C.2     1  UNL1        0.2496
     19 O          -0.0147   -3.2867   -3.0732 O.2     1  UNL1       -0.2817
     20 C           1.7981   -3.2330   -1.4666 C.2     1  UNL1        0.2915
     21 O           2.6006   -4.0619   -1.9343 O.2     1  UNL1       -0.2661
     22 N           1.9270   -2.4439   -0.2666 N.am    1  UNL1       -0.2598
     23 C           3.0684   -2.5219    0.5937 C.3     1  UNL1        0.0452
     24 C           4.0817   -1.5482    0.1325 C.ar    1  UNL1       -0.0295
     25 C           4.0770   -0.2698    0.6357 C.ar    1  UNL1       -0.0536
     26 C           5.0366    0.6513    0.1972 C.ar    1  UNL1       -0.0196
     27 C           5.9833    0.3192   -0.7188 C.ar    1  UNL1        0.1206
     28 O           6.9696    1.1163   -1.2220 O.3     1  UNL1       -0.4894
     29 C           7.2762    2.4254   -0.9213 C.3     1  UNL1        0.1177
     30 C           7.7324    2.6830    0.4898 C.3     1  UNL1        0.1241
     31 F           7.9864    4.0483    0.5756 F       1  UNL1       -0.2455
     32 C           5.9484   -0.9994   -1.2054 C.ar    1  UNL1       -0.0196
     33 C           5.0290   -1.9123   -0.7978 C.ar    1  UNL1       -0.0536
     34 H          -7.1459    2.8274   -1.1496 H       1  UNL1        0.0523
     35 H          -6.1344    2.9298   -2.5781 H       1  UNL1        0.0523
     36 H          -5.2889    2.7528   -0.9750 H       1  UNL1        0.0523
     37 H          -6.6546   -0.7974   -1.2885 H       1  UNL1        0.0576
     38 H          -7.5867    0.4476   -0.4736 H       1  UNL1        0.0576
     39 H          -6.2395   -0.8689    0.9259 H       1  UNL1        0.0502
     40 H          -6.7690    1.2011    1.8744 H       1  UNL1        0.0282
     41 H          -5.3589    2.0618    1.2211 H       1  UNL1        0.0282
     42 H          -4.2390    1.1212    3.0510 H       1  UNL1        0.0279
     43 H          -5.5059   -0.1553    3.2529 H       1  UNL1        0.0279
     44 H          -4.4333   -1.6768    1.9591 H       1  UNL1        0.0444
     45 H          -3.0070   -0.6398    1.9539 H       1  UNL1        0.0444
     46 H          -1.0824    0.6949    1.5284 H       1  UNL1        0.0638
     47 H           1.0642   -0.5313    1.6540 H       1  UNL1        0.0637
     48 H          -1.9993   -1.3768   -2.1084 H       1  UNL1        0.0645
     49 H           3.5259   -3.5416    0.5322 H       1  UNL1        0.0518
     50 H           2.7881   -2.3374    1.6603 H       1  UNL1        0.0518
     51 H           3.3586    0.0726    1.3683 H       1  UNL1        0.0622
     52 H           5.0059    1.6674    0.5904 H       1  UNL1        0.0654
     53 H           6.4097    3.1268   -1.0830 H       1  UNL1        0.0723
     54 H           8.1166    2.7594   -1.5935 H       1  UNL1        0.0723
     55 H           6.9968    2.4663    1.2653 H       1  UNL1        0.0649
     56 H           8.6752    2.1133    0.6789 H       1  UNL1        0.0649
     57 H           6.6976   -1.3034   -1.9475 H       1  UNL1        0.0654
     58 H           5.0141   -2.9332   -1.1846 H       1  UNL1        0.0622
@<TRIPOS>BOND
     1     1     2    1
     2     2     3    1
     3     3     4    1
     4     4     5    1
     5     5     6    1
     6     6     7    1
     7     7     8    1
     8     8     9    1
     9     9    10    2
    10     9    11    2
    11     9    12    1
    12    12    13   ar
    13    13    14   ar
    14    14    15   ar
    15    15    16   ar
    16    16    17   ar
    17    16    18    1
    18    18    19    2
    19    18    20    1
    20    20    21    2
    21    20    22   am
    22    22    23    1
    23    23    24    1
    24    24    25   ar
    25    25    26   ar
    26    26    27   ar
    27    27    28    1
    28    28    29    1
    29    29    30    1
    30    30    31    1
    31    27    32   ar
    32    32    33   ar
    33     8     4    1
    34    17    12   ar
    35    33    24   ar
    36    22    15    1
    37     1    34    1
    38     1    35    1
    39     1    36    1
    40     3    37    1
    41     3    38    1
    42     4    39    1
    43     5    40    1
    44     5    41    1
    45     6    42    1
    46     6    43    1
    47     7    44    1
    48     7    45    1
    49    13    46    1
    50    14    47    1
    51    17    48    1
    52    23    49    1
    53    23    50    1
    54    25    51    1
    55    26    52    1
    56    29    53    1
    57    29    54    1
    58    30    55    1
    59    30    56    1
    60    32    57    1
    61    33    58    1
