
     RDKit          3D

 26 27  0  0  0  0  0  0  0  0999 V2000
   -4.4394   -0.5873    0.3469 C   0  0  0  0  0  0  0  0  0  0  0  0
   -4.0719    0.6828    1.0569 C   0  0  0  0  0  0  0  0  0  0  0  0
   -2.7726    0.6845    1.5894 O   0  0  0  0  0  0  0  0  0  0  0  0
   -1.6414    0.5314    0.8404 C   0  0  0  0  0  0  0  0  0  0  0  0
   -0.4768    0.5652    1.5708 C   0  0  0  0  0  0  0  0  0  0  0  0
    0.7037    0.4065    0.7971 C   0  0  0  0  0  0  0  0  0  0  0  0
    0.8251    0.2243   -0.5842 C   0  0  0  0  0  0  0  0  0  0  0  0
   -0.3893    0.2027   -1.2389 C   0  0  0  0  0  0  0  0  0  0  0  0
   -1.5618    0.3527   -0.5303 C   0  0  0  0  0  0  0  0  0  0  0  0
    2.0592    0.1007   -1.0602 N   0  0  0  0  0  0  0  0  0  0  0  0
    3.0645    0.1326   -0.4083 C   0  0  0  0  0  0  0  0  0  0  0  0
    2.5130    0.3838    1.3422 S   0  0  0  0  0  0  0  0  0  0  0  0
    4.7472   -0.0166   -0.9079 S   0  0  0  0  0  0  0  0  0  0  0  0
    5.2565   -1.6504   -0.8815 N   0  0  0  0  0  0  0  0  0  0  0  0
    5.6368    0.7740    0.0370 O   0  0  0  0  0  0  0  0  0  0  0  0
    4.8278    0.6006   -2.2586 O   0  0  0  0  0  0  0  0  0  0  0  0
   -3.6125   -1.3285    0.2874 H   0  0  0  0  0  0  0  0  0  0  0  0
   -4.8462   -0.3911   -0.6714 H   0  0  0  0  0  0  0  0  0  0  0  0
   -5.2725   -1.0921    0.9091 H   0  0  0  0  0  0  0  0  0  0  0  0
   -4.2324    1.5573    0.3919 H   0  0  0  0  0  0  0  0  0  0  0  0
   -4.7683    0.8590    1.9204 H   0  0  0  0  0  0  0  0  0  0  0  0
   -0.2921    0.6886    2.6126 H   0  0  0  0  0  0  0  0  0  0  0  0
   -0.4481    0.0691   -2.3105 H   0  0  0  0  0  0  0  0  0  0  0  0
   -2.5265    0.3338   -1.0642 H   0  0  0  0  0  0  0  0  0  0  0  0
    5.8417   -1.8214   -1.7298 H   0  0  0  0  0  0  0  0  0  0  0  0
    5.8764   -1.8554   -0.0563 H   0  0  0  0  0  0  0  0  0  0  0  0
  1  2  1  0
  2  3  1  0
  3  4  1  0
  4  5  2  0
  5  6  1  0
  6  7  2  0
  7  8  1  0
  8  9  2  0
  7 10  1  0
 10 11  2  0
 11 12  1  0
 11 13  1  0
 13 14  1  0
 13 15  2  0
 13 16  2  0
  9  4  1  0
 12  6  1  0
  1 17  1  0
  1 18  1  0
  1 19  1  0
  2 20  1  0
  2 21  1  0
  5 22  1  0
  8 23  1  0
  9 24  1  0
 14 25  1  0
 14 26  1  0
M  END
$$$$
