@<TRIPOS>MOLECULE
*****
 68 71 0 0 0
SMALL
GASTEIGER

@<TRIPOS>ATOM
      1 F           7.2788    4.0671    2.7127 F       1  UNL1       -0.2055
      2 C           6.2915    3.4307    2.0374 C.ar    1  UNL1        0.1234
      3 C           5.5649    4.1416    1.0975 C.ar    1  UNL1       -0.0261
      4 C           4.5596    3.5243    0.4002 C.ar    1  UNL1       -0.0531
      5 C           4.2813    2.1885    0.6462 C.ar    1  UNL1       -0.0143
      6 C           3.1630    1.5377   -0.1123 C.3     1  UNL1        0.1087
      7 O           2.4679    0.6928    0.7056 O.3     1  UNL1       -0.3661
      8 C           1.1317    1.0477    0.9287 C.3     1  UNL1        0.0616
      9 C           0.5863   -0.0042    1.8502 C.3     1  UNL1        0.0227
     10 N           0.6664   -1.2624    1.1892 N.3     1  UNL1       -0.2960
     11 C           0.4237   -2.3963    1.9913 C.3     1  UNL1       -0.0007
     12 C           0.3660   -3.5242    1.0133 C.3     1  UNL1       -0.0387
     13 C           0.0243   -2.8688   -0.2999 C.3     1  UNL1       -0.0350
     14 C           0.0046   -1.3841   -0.0285 C.3     1  UNL1        0.0230
     15 C          -1.4367   -0.8661    0.0782 C.3     1  UNL1        0.0115
     16 N          -2.1401   -1.6193    1.0215 N.3     1  UNL1       -0.3145
     17 C          -3.3031   -1.2011    1.6570 C.3     1  UNL1       -0.0038
     18 C          -4.5401   -1.0217    0.8807 C.3     1  UNL1       -0.0364
     19 C          -4.4661    0.0678   -0.1165 C.3     1  UNL1       -0.0265
     20 C          -5.7904    0.2299   -0.8360 C.ar    1  UNL1       -0.0473
     21 C          -6.0366   -0.4594   -1.9832 C.ar    1  UNL1       -0.0586
     22 C          -7.2542   -0.2968   -2.6563 C.ar    1  UNL1       -0.0615
     23 C          -8.2132    0.5702   -2.1511 C.ar    1  UNL1       -0.0617
     24 C          -7.9296    1.2550   -0.9808 C.ar    1  UNL1       -0.0615
     25 C          -6.7163    1.0864   -0.3196 C.ar    1  UNL1       -0.0586
     26 C           3.7505    0.7819   -1.2303 C.ar    1  UNL1       -0.0143
     27 C           4.2479   -0.5042   -0.9877 C.ar    1  UNL1       -0.0531
     28 C           4.8346   -1.2587   -1.9859 C.ar    1  UNL1       -0.0261
     29 C           4.9591   -0.7834   -3.2699 C.ar    1  UNL1        0.1234
     30 F           5.5317   -1.5013   -4.2683 F       1  UNL1       -0.2055
     31 C           4.4628    0.4907   -3.5005 C.ar    1  UNL1       -0.0261
     32 C           3.8746    1.2524   -2.5089 C.ar    1  UNL1       -0.0531
     33 C           4.9908    1.4806    1.5691 C.ar    1  UNL1       -0.0531
     34 C           6.0061    2.1079    2.2718 C.ar    1  UNL1       -0.0261
     35 H           5.7588    5.1688    0.8892 H       1  UNL1        0.0646
     36 H           3.9757    4.0663   -0.3435 H       1  UNL1        0.0622
     37 H           2.5213    2.3600   -0.5224 H       1  UNL1        0.0697
     38 H           0.6301    1.0038   -0.0439 H       1  UNL1        0.0573
     39 H           1.0577    2.0700    1.3666 H       1  UNL1        0.0573
     40 H          -0.4434    0.2068    2.1970 H       1  UNL1        0.0449
     41 H           1.2327   -0.0418    2.7411 H       1  UNL1        0.0449
     42 H          -0.5417   -2.3113    2.5130 H       1  UNL1        0.0427
     43 H           1.2410   -2.5568    2.7577 H       1  UNL1        0.0427
     44 H           1.3926   -3.9395    0.9021 H       1  UNL1        0.0278
     45 H          -0.3680   -4.3074    1.2966 H       1  UNL1        0.0278
     46 H           0.7889   -3.0679   -1.0810 H       1  UNL1        0.0281
     47 H          -0.9275   -3.2797   -0.6647 H       1  UNL1        0.0281
     48 H           0.5513   -0.8219   -0.8230 H       1  UNL1        0.0475
     49 H          -1.8444   -1.1728   -0.9624 H       1  UNL1        0.0439
     50 H          -1.5313    0.2033    0.1064 H       1  UNL1        0.0439
     51 H          -2.1182   -2.6644    0.8342 H       1  UNL1        0.1220
     52 H          -3.5312   -1.9847    2.4631 H       1  UNL1        0.0424
     53 H          -3.1363   -0.2393    2.2546 H       1  UNL1        0.0424
     54 H          -4.7319   -1.9735    0.3032 H       1  UNL1        0.0281
     55 H          -5.4024   -0.8849    1.5913 H       1  UNL1        0.0281
     56 H          -4.2236    1.0326    0.4000 H       1  UNL1        0.0314
     57 H          -3.7032   -0.1107   -0.8589 H       1  UNL1        0.0314
     58 H          -5.2783   -1.1233   -2.3527 H       1  UNL1        0.0620
     59 H          -7.4385   -0.8503   -3.5675 H       1  UNL1        0.0618
     60 H          -9.1561    0.7103   -2.6554 H       1  UNL1        0.0618
     61 H          -8.6840    1.9199   -0.6076 H       1  UNL1        0.0618
     62 H          -6.5687    1.6607    0.5919 H       1  UNL1        0.0620
     63 H           4.1692   -0.9276    0.0017 H       1  UNL1        0.0622
     64 H           5.2234   -2.2659   -1.7870 H       1  UNL1        0.0646
     65 H           4.5555    0.8777   -4.5117 H       1  UNL1        0.0646
     66 H           3.4903    2.2531   -2.7124 H       1  UNL1        0.0622
     67 H           4.8156    0.4406    1.8062 H       1  UNL1        0.0622
     68 H           6.5827    1.5485    3.0157 H       1  UNL1        0.0646
@<TRIPOS>BOND
     1     1     2    1
     2     2     3   ar
     3     3     4   ar
     4     4     5   ar
     5     5     6    1
     6     6     7    1
     7     7     8    1
     8     8     9    1
     9     9    10    1
    10    10    11    1
    11    11    12    1
    12    12    13    1
    13    13    14    1
    14    14    15    1
    15    15    16    1
    16    16    17    1
    17    17    18    1
    18    18    19    1
    19    19    20    1
    20    20    21   ar
    21    21    22   ar
    22    22    23   ar
    23    23    24   ar
    24    24    25   ar
    25     6    26    1
    26    26    27   ar
    27    27    28   ar
    28    28    29   ar
    29    29    30    1
    30    29    31   ar
    31    31    32   ar
    32     5    33   ar
    33    33    34   ar
    34    34     2   ar
    35    14    10    1
    36    25    20   ar
    37    32    26   ar
    38     3    35    1
    39     4    36    1
    40     6    37    1
    41     8    38    1
    42     8    39    1
    43     9    40    1
    44     9    41    1
    45    11    42    1
    46    11    43    1
    47    12    44    1
    48    12    45    1
    49    13    46    1
    50    13    47    1
    51    14    48    1
    52    15    49    1
    53    15    50    1
    54    16    51    1
    55    17    52    1
    56    17    53    1
    57    18    54    1
    58    18    55    1
    59    19    56    1
    60    19    57    1
    61    21    58    1
    62    22    59    1
    63    23    60    1
    64    24    61    1
    65    25    62    1
    66    27    63    1
    67    28    64    1
    68    31    65    1
    69    32    66    1
    70    33    67    1
    71    34    68    1
