
     RDKit          3D

 68 71  0  0  0  0  0  0  0  0999 V2000
    7.2788    4.0671    2.7127 F   0  0  0  0  0  0  0  0  0  0  0  0
    6.2915    3.4307    2.0374 C   0  0  0  0  0  0  0  0  0  0  0  0
    5.5649    4.1416    1.0975 C   0  0  0  0  0  0  0  0  0  0  0  0
    4.5596    3.5243    0.4002 C   0  0  0  0  0  0  0  0  0  0  0  0
    4.2813    2.1885    0.6462 C   0  0  0  0  0  0  0  0  0  0  0  0
    3.1630    1.5377   -0.1123 C   0  0  0  0  0  0  0  0  0  0  0  0
    2.4679    0.6928    0.7056 O   0  0  0  0  0  0  0  0  0  0  0  0
    1.1317    1.0477    0.9287 C   0  0  0  0  0  0  0  0  0  0  0  0
    0.5863   -0.0042    1.8502 C   0  0  0  0  0  0  0  0  0  0  0  0
    0.6664   -1.2624    1.1892 N   0  0  0  0  0  0  0  0  0  0  0  0
    0.4237   -2.3963    1.9913 C   0  0  0  0  0  0  0  0  0  0  0  0
    0.3660   -3.5242    1.0133 C   0  0  0  0  0  0  0  0  0  0  0  0
    0.0243   -2.8688   -0.2999 C   0  0  0  0  0  0  0  0  0  0  0  0
    0.0046   -1.3841   -0.0285 C   0  0  1  0  0  0  0  0  0  0  0  0
   -1.4367   -0.8661    0.0782 C   0  0  0  0  0  0  0  0  0  0  0  0
   -2.1401   -1.6193    1.0215 N   0  0  0  0  0  0  0  0  0  0  0  0
   -3.3031   -1.2011    1.6570 C   0  0  0  0  0  0  0  0  0  0  0  0
   -4.5401   -1.0217    0.8807 C   0  0  0  0  0  0  0  0  0  0  0  0
   -4.4661    0.0678   -0.1165 C   0  0  0  0  0  0  0  0  0  0  0  0
   -5.7904    0.2299   -0.8360 C   0  0  0  0  0  0  0  0  0  0  0  0
   -6.0366   -0.4594   -1.9832 C   0  0  0  0  0  0  0  0  0  0  0  0
   -7.2542   -0.2968   -2.6563 C   0  0  0  0  0  0  0  0  0  0  0  0
   -8.2132    0.5702   -2.1511 C   0  0  0  0  0  0  0  0  0  0  0  0
   -7.9296    1.2550   -0.9808 C   0  0  0  0  0  0  0  0  0  0  0  0
   -6.7163    1.0864   -0.3196 C   0  0  0  0  0  0  0  0  0  0  0  0
    3.7505    0.7819   -1.2303 C   0  0  0  0  0  0  0  0  0  0  0  0
    4.2479   -0.5042   -0.9877 C   0  0  0  0  0  0  0  0  0  0  0  0
    4.8346   -1.2587   -1.9859 C   0  0  0  0  0  0  0  0  0  0  0  0
    4.9591   -0.7834   -3.2699 C   0  0  0  0  0  0  0  0  0  0  0  0
    5.5317   -1.5013   -4.2683 F   0  0  0  0  0  0  0  0  0  0  0  0
    4.4628    0.4907   -3.5005 C   0  0  0  0  0  0  0  0  0  0  0  0
    3.8746    1.2524   -2.5089 C   0  0  0  0  0  0  0  0  0  0  0  0
    4.9908    1.4806    1.5691 C   0  0  0  0  0  0  0  0  0  0  0  0
    6.0061    2.1079    2.2718 C   0  0  0  0  0  0  0  0  0  0  0  0
    5.7588    5.1688    0.8892 H   0  0  0  0  0  0  0  0  0  0  0  0
    3.9757    4.0663   -0.3435 H   0  0  0  0  0  0  0  0  0  0  0  0
    2.5213    2.3600   -0.5224 H   0  0  0  0  0  0  0  0  0  0  0  0
    0.6301    1.0038   -0.0439 H   0  0  0  0  0  0  0  0  0  0  0  0
    1.0577    2.0700    1.3666 H   0  0  0  0  0  0  0  0  0  0  0  0
   -0.4434    0.2068    2.1970 H   0  0  0  0  0  0  0  0  0  0  0  0
    1.2327   -0.0418    2.7411 H   0  0  0  0  0  0  0  0  0  0  0  0
   -0.5417   -2.3113    2.5130 H   0  0  0  0  0  0  0  0  0  0  0  0
    1.2410   -2.5568    2.7577 H   0  0  0  0  0  0  0  0  0  0  0  0
    1.3926   -3.9395    0.9021 H   0  0  0  0  0  0  0  0  0  0  0  0
   -0.3680   -4.3074    1.2966 H   0  0  0  0  0  0  0  0  0  0  0  0
    0.7889   -3.0679   -1.0810 H   0  0  0  0  0  0  0  0  0  0  0  0
   -0.9275   -3.2797   -0.6647 H   0  0  0  0  0  0  0  0  0  0  0  0
    0.5513   -0.8219   -0.8230 H   0  0  0  0  0  0  0  0  0  0  0  0
   -1.8444   -1.1728   -0.9624 H   0  0  0  0  0  0  0  0  0  0  0  0
   -1.5313    0.2033    0.1064 H   0  0  0  0  0  0  0  0  0  0  0  0
   -2.1182   -2.6644    0.8342 H   0  0  0  0  0  0  0  0  0  0  0  0
   -3.5312   -1.9847    2.4631 H   0  0  0  0  0  0  0  0  0  0  0  0
   -3.1363   -0.2393    2.2546 H   0  0  0  0  0  0  0  0  0  0  0  0
   -4.7319   -1.9735    0.3032 H   0  0  0  0  0  0  0  0  0  0  0  0
   -5.4024   -0.8849    1.5913 H   0  0  0  0  0  0  0  0  0  0  0  0
   -4.2236    1.0326    0.4000 H   0  0  0  0  0  0  0  0  0  0  0  0
   -3.7032   -0.1107   -0.8589 H   0  0  0  0  0  0  0  0  0  0  0  0
   -5.2783   -1.1233   -2.3527 H   0  0  0  0  0  0  0  0  0  0  0  0
   -7.4385   -0.8503   -3.5675 H   0  0  0  0  0  0  0  0  0  0  0  0
   -9.1561    0.7103   -2.6554 H   0  0  0  0  0  0  0  0  0  0  0  0
   -8.6840    1.9199   -0.6076 H   0  0  0  0  0  0  0  0  0  0  0  0
   -6.5687    1.6607    0.5919 H   0  0  0  0  0  0  0  0  0  0  0  0
    4.1692   -0.9276    0.0017 H   0  0  0  0  0  0  0  0  0  0  0  0
    5.2234   -2.2659   -1.7870 H   0  0  0  0  0  0  0  0  0  0  0  0
    4.5555    0.8777   -4.5117 H   0  0  0  0  0  0  0  0  0  0  0  0
    3.4903    2.2531   -2.7124 H   0  0  0  0  0  0  0  0  0  0  0  0
    4.8156    0.4406    1.8062 H   0  0  0  0  0  0  0  0  0  0  0  0
    6.5827    1.5485    3.0157 H   0  0  0  0  0  0  0  0  0  0  0  0
  1  2  1  0
  2  3  2  0
  3  4  1  0
  4  5  2  0
  5  6  1  0
  6  7  1  0
  7  8  1  0
  8  9  1  0
  9 10  1  0
 10 11  1  0
 11 12  1  0
 12 13  1  0
 13 14  1  0
 14 15  1  0
 15 16  1  0
 16 17  1  0
 17 18  1  0
 18 19  1  0
 19 20  1  0
 20 21  2  0
 21 22  1  0
 22 23  2  0
 23 24  1  0
 24 25  2  0
  6 26  1  0
 26 27  2  0
 27 28  1  0
 28 29  2  0
 29 30  1  0
 29 31  1  0
 31 32  2  0
  5 33  1  0
 33 34  2  0
 34  2  1  0
 14 10  1  0
 25 20  1  0
 32 26  1  0
  3 35  1  0
  4 36  1  0
  6 37  1  0
  8 38  1  0
  8 39  1  0
  9 40  1  0
  9 41  1  0
 11 42  1  0
 11 43  1  0
 12 44  1  0
 12 45  1  0
 13 46  1  0
 13 47  1  0
 14 48  1  6
 15 49  1  0
 15 50  1  0
 16 51  1  0
 17 52  1  0
 17 53  1  0
 18 54  1  0
 18 55  1  0
 19 56  1  0
 19 57  1  0
 21 58  1  0
 22 59  1  0
 23 60  1  0
 24 61  1  0
 25 62  1  0
 27 63  1  0
 28 64  1  0
 31 65  1  0
 32 66  1  0
 33 67  1  0
 34 68  1  0
M  END
$$$$
