@<TRIPOS>MOLECULE
*****
 38 39 0 0 0
SMALL
GASTEIGER

@<TRIPOS>ATOM
      1 C           4.6232   -2.1644   -0.6098 C.3     1  UNL1        0.0788
      2 O           4.1104   -0.8756   -0.7358 O.3     1  UNL1       -0.4945
      3 C           2.8725   -0.4640   -0.3110 C.ar    1  UNL1        0.1324
      4 C           1.9567   -1.2702    0.3032 C.ar    1  UNL1       -0.0188
      5 C           0.7283   -0.8286    0.7160 C.ar    1  UNL1       -0.0499
      6 C           0.3924    0.4895    0.5065 C.ar    1  UNL1       -0.0077
      7 C          -0.8431    0.9619    0.9254 C.ar    1  UNL1        0.0110
      8 C          -1.7576    0.0166    1.5745 C.2     1  UNL1        0.0828
      9 S          -1.5609   -0.3062    3.1602 S.2     1  UNL1       -0.0348
     10 N          -2.8054   -0.6252    0.8714 N.am    1  UNL1       -0.3162
     11 C          -3.6637   -1.5395    1.5696 C.3     1  UNL1        0.0017
     12 C          -2.9569   -0.3243   -0.5214 C.3     1  UNL1        0.1095
     13 C          -4.0540   -1.0106   -1.2114 C.2     1  UNL1        0.3222
     14 O          -4.7962   -1.8006   -0.6096 O.2     1  UNL1       -0.2492
     15 O          -4.2625   -0.7712   -2.5557 O.3     1  UNL1       -0.4795
     16 C          -1.2199    2.2719    0.7478 C.ar    1  UNL1       -0.0517
     17 C          -0.3484    3.1436    0.1372 C.ar    1  UNL1       -0.0605
     18 C           0.9056    2.6890   -0.2947 C.ar    1  UNL1       -0.0533
     19 C           1.2825    1.3767   -0.1180 C.ar    1  UNL1       -0.0021
     20 C           2.5137    0.8830   -0.5194 C.ar    1  UNL1        0.1040
     21 C           3.5299    1.7206   -1.1823 C.3     1  UNL1        0.4213
     22 F           4.6253    1.7654   -0.3249 F       1  UNL1       -0.1657
     23 F           3.1662    2.8650   -1.7392 F       1  UNL1       -0.1657
     24 F           4.0421    0.9306   -2.2646 F       1  UNL1       -0.1657
     25 H           5.4962   -2.2429   -1.3143 H       1  UNL1        0.0660
     26 H           3.8693   -2.8945   -0.9539 H       1  UNL1        0.0660
     27 H           5.0259   -2.3935    0.3904 H       1  UNL1        0.0660
     28 H           2.2607   -2.3090    0.4519 H       1  UNL1        0.0654
     29 H           0.0223   -1.4729    1.1951 H       1  UNL1        0.0625
     30 H          -3.6245   -2.5834    1.2094 H       1  UNL1        0.0428
     31 H          -4.7130   -1.1330    1.5933 H       1  UNL1        0.0428
     32 H          -3.3598   -1.6236    2.6579 H       1  UNL1        0.0428
     33 H          -3.0045    0.7986   -0.6920 H       1  UNL1        0.0579
     34 H          -2.0203   -0.6009   -1.1036 H       1  UNL1        0.0579
     35 H          -5.1794   -0.8274   -2.9799 H       1  UNL1        0.2951
     36 H          -2.1979    2.5649    1.1002 H       1  UNL1        0.0624
     37 H          -0.6241    4.1968   -0.0170 H       1  UNL1        0.0618
     38 H           1.5691    3.3872   -0.7533 H       1  UNL1        0.0624
@<TRIPOS>BOND
     1     1     2    1
     2     2     3    1
     3     3     4   ar
     4     4     5   ar
     5     5     6   ar
     6     6     7   ar
     7     7     8    1
     8     8     9    2
     9     8    10    1
    10    10    11    1
    11    10    12    1
    12    12    13    1
    13    13    14    2
    14    13    15    1
    15     7    16   ar
    16    16    17   ar
    17    17    18   ar
    18    18    19   ar
    19    19    20   ar
    20    20    21    1
    21    21    22    1
    22    21    23    1
    23    21    24    1
    24    20     3   ar
    25    19     6   ar
    26     1    25    1
    27     1    26    1
    28     1    27    1
    29     4    28    1
    30     5    29    1
    31    11    30    1
    32    11    31    1
    33    11    32    1
    34    12    33    1
    35    12    34    1
    36    15    35    1
    37    16    36    1
    38    17    37    1
    39    18    38    1
