@<TRIPOS>MOLECULE
*****
 59 62 0 0 0
SMALL
GASTEIGER

@<TRIPOS>ATOM
      1 C           2.3566    1.8558   -0.0610 C.3     1  UNL1       -0.0165
      2 C           2.2860    0.6827    0.9321 C.3     1  UNL1        0.1801
      3 C           2.0202    1.2823    2.3325 C.3     1  UNL1       -0.0165
      4 O           3.3107   -0.1037    0.8635 O.3     1  UNL1       -0.4734
      5 C           4.3377   -0.8918    0.7948 C.ar    1  UNL1        0.1637
      6 C           4.7447   -1.6182    1.9432 C.ar    1  UNL1       -0.0162
      7 C           5.8064   -2.4471    1.8795 C.ar    1  UNL1       -0.0581
      8 C           6.5249   -2.6177    0.7159 C.ar    1  UNL1       -0.0581
      9 C           6.1403   -1.9241   -0.3846 C.ar    1  UNL1       -0.0160
     10 C           5.0744   -1.0799   -0.3502 C.ar    1  UNL1        0.1714
     11 O           4.7615   -0.3978   -1.5398 O.3     1  UNL1       -0.4020
     12 C           5.4331    0.7901   -1.8464 C.3     1  UNL1        0.5754
     13 F           5.3288    1.7894   -0.9343 F       1  UNL1       -0.1328
     14 F           6.7875    0.4553   -1.9908 F       1  UNL1       -0.1328
     15 F           5.0004    1.2427   -3.0941 F       1  UNL1       -0.1328
     16 C           0.9871   -0.0419    0.5696 C.2     1  UNL1        0.2566
     17 O           1.0549   -1.2560    0.2480 O.2     1  UNL1       -0.2714
     18 N          -0.2382    0.6294    0.5967 N.am    1  UNL1       -0.3087
     19 C          -1.4719   -0.0616    0.2527 C.3     1  UNL1        0.0290
     20 C          -2.4808    0.0315    1.3491 C.3     1  UNL1       -0.0200
     21 C          -2.9336    1.4610    1.5505 C.3     1  UNL1       -0.0455
     22 C          -3.5755    1.9520    0.2890 C.3     1  UNL1       -0.0384
     23 C          -2.5357    1.9217   -0.8092 C.3     1  UNL1       -0.0455
     24 C          -2.0788    0.5152   -1.0073 C.3     1  UNL1       -0.0200
     25 C          -3.2580   -0.3503   -1.4002 C.3     1  UNL1       -0.0218
     26 C          -4.2857   -0.3170   -0.2854 C.3     1  UNL1        0.1042
     27 S          -5.6154   -1.3948   -0.7641 S.O2    1  UNL1        0.0326
     28 N          -5.0229   -2.9888   -0.9830 N.3     1  UNL1       -0.2076
     29 O          -6.7162   -1.3814    0.2433 O.2     1  UNL1       -0.1579
     30 O          -6.1853   -0.8736   -2.0574 O.2     1  UNL1       -0.1579
     31 C          -4.7586    1.1006   -0.1168 C.3     1  UNL1       -0.0235
     32 C          -3.6963   -0.7835    1.0210 C.3     1  UNL1       -0.0218
     33 H           2.6676    1.4446   -1.0322 H       1  UNL1        0.0273
     34 H           3.1041    2.5447    0.3627 H       1  UNL1        0.0273
     35 H           1.3605    2.2991   -0.1144 H       1  UNL1        0.0273
     36 H           1.4247    2.1846    2.1822 H       1  UNL1        0.0273
     37 H           1.4749    0.5392    2.9139 H       1  UNL1        0.0273
     38 H           2.9998    1.4487    2.7870 H       1  UNL1        0.0273
     39 H           4.1677   -1.4734    2.8553 H       1  UNL1        0.0655
     40 H           6.1139   -3.0026    2.7654 H       1  UNL1        0.0619
     41 H           7.3632   -3.2744    0.6682 H       1  UNL1        0.0619
     42 H           6.7071   -2.0551   -1.3115 H       1  UNL1        0.0655
     43 H          -0.2724    1.6289    0.8661 H       1  UNL1        0.1491
     44 H          -1.2568   -1.1261    0.0232 H       1  UNL1        0.0504
     45 H          -2.0589   -0.3406    2.2961 H       1  UNL1        0.0319
     46 H          -3.6770    1.4887    2.3683 H       1  UNL1        0.0271
     47 H          -2.0445    2.0695    1.7670 H       1  UNL1        0.0271
     48 H          -3.9270    2.9859    0.4463 H       1  UNL1        0.0302
     49 H          -1.6823    2.5470   -0.4665 H       1  UNL1        0.0271
     50 H          -2.9371    2.2913   -1.7691 H       1  UNL1        0.0271
     51 H          -1.3736    0.4921   -1.8611 H       1  UNL1        0.0319
     52 H          -2.9251   -1.3904   -1.5887 H       1  UNL1        0.0290
     53 H          -3.7373    0.1065   -2.2899 H       1  UNL1        0.0290
     54 H          -4.2227   -3.1637   -0.3411 H       1  UNL1        0.1439
     55 H          -5.7871   -3.6542   -0.7032 H       1  UNL1        0.1439
     56 H          -5.0630    1.4589   -1.1293 H       1  UNL1        0.0289
     57 H          -5.5698    1.2061    0.6116 H       1  UNL1        0.0289
     58 H          -4.4752   -0.5690    1.8081 H       1  UNL1        0.0290
     59 H          -3.4760   -1.8671    1.0428 H       1  UNL1        0.0290
@<TRIPOS>BOND
     1     1     2    1
     2     2     3    1
     3     2     4    1
     4     4     5    1
     5     5     6   ar
     6     6     7   ar
     7     7     8   ar
     8     8     9   ar
     9     9    10   ar
    10    10    11    1
    11    11    12    1
    12    12    13    1
    13    12    14    1
    14    12    15    1
    15     2    16    1
    16    16    17    2
    17    16    18   am
    18    18    19    1
    19    19    20    1
    20    20    21    1
    21    21    22    1
    22    22    23    1
    23    23    24    1
    24    24    25    1
    25    25    26    1
    26    26    27    1
    27    27    28    1
    28    27    29    2
    29    27    30    2
    30    26    31    1
    31    26    32    1
    32    10     5   ar
    33    24    19    1
    34    32    20    1
    35    31    22    1
    36     1    33    1
    37     1    34    1
    38     1    35    1
    39     3    36    1
    40     3    37    1
    41     3    38    1
    42     6    39    1
    43     7    40    1
    44     8    41    1
    45     9    42    1
    46    18    43    1
    47    19    44    1
    48    20    45    1
    49    21    46    1
    50    21    47    1
    51    22    48    1
    52    23    49    1
    53    23    50    1
    54    24    51    1
    55    25    52    1
    56    25    53    1
    57    28    54    1
    58    28    55    1
    59    31    56    1
    60    31    57    1
    61    32    58    1
    62    32    59    1
