
     RDKit          3D

 59 62  0  0  0  0  0  0  0  0999 V2000
    2.3566    1.8558   -0.0610 C   0  0  0  0  0  0  0  0  0  0  0  0
    2.2860    0.6827    0.9321 C   0  0  0  0  0  0  0  0  0  0  0  0
    2.0202    1.2823    2.3325 C   0  0  0  0  0  0  0  0  0  0  0  0
    3.3107   -0.1037    0.8635 O   0  0  0  0  0  0  0  0  0  0  0  0
    4.3377   -0.8918    0.7948 C   0  0  0  0  0  0  0  0  0  0  0  0
    4.7447   -1.6182    1.9432 C   0  0  0  0  0  0  0  0  0  0  0  0
    5.8064   -2.4471    1.8795 C   0  0  0  0  0  0  0  0  0  0  0  0
    6.5249   -2.6177    0.7159 C   0  0  0  0  0  0  0  0  0  0  0  0
    6.1403   -1.9241   -0.3846 C   0  0  0  0  0  0  0  0  0  0  0  0
    5.0744   -1.0799   -0.3502 C   0  0  0  0  0  0  0  0  0  0  0  0
    4.7615   -0.3978   -1.5398 O   0  0  0  0  0  0  0  0  0  0  0  0
    5.4331    0.7901   -1.8464 C   0  0  0  0  0  0  0  0  0  0  0  0
    5.3288    1.7894   -0.9343 F   0  0  0  0  0  0  0  0  0  0  0  0
    6.7875    0.4553   -1.9908 F   0  0  0  0  0  0  0  0  0  0  0  0
    5.0004    1.2427   -3.0941 F   0  0  0  0  0  0  0  0  0  0  0  0
    0.9871   -0.0419    0.5696 C   0  0  0  0  0  0  0  0  0  0  0  0
    1.0549   -1.2560    0.2480 O   0  0  0  0  0  0  0  0  0  0  0  0
   -0.2382    0.6294    0.5967 N   0  0  0  0  0  0  0  0  0  0  0  0
   -1.4719   -0.0616    0.2527 C   0  0  1  0  0  0  0  0  0  0  0  0
   -2.4808    0.0315    1.3491 C   0  0  0  0  0  0  0  0  0  0  0  0
   -2.9336    1.4610    1.5505 C   0  0  0  0  0  0  0  0  0  0  0  0
   -3.5755    1.9520    0.2890 C   0  0  0  0  0  0  0  0  0  0  0  0
   -2.5357    1.9217   -0.8092 C   0  0  0  0  0  0  0  0  0  0  0  0
   -2.0788    0.5152   -1.0073 C   0  0  0  0  0  0  0  0  0  0  0  0
   -3.2580   -0.3503   -1.4002 C   0  0  0  0  0  0  0  0  0  0  0  0
   -4.2857   -0.3170   -0.2854 C   0  0  2  0  0  0  0  0  0  0  0  0
   -5.6154   -1.3948   -0.7641 S   0  0  0  0  0  6  0  0  0  0  0  0
   -5.0229   -2.9888   -0.9830 N   0  0  0  0  0  0  0  0  0  0  0  0
   -6.7162   -1.3814    0.2433 O   0  0  0  0  0  0  0  0  0  0  0  0
   -6.1853   -0.8736   -2.0574 O   0  0  0  0  0  0  0  0  0  0  0  0
   -4.7586    1.1006   -0.1168 C   0  0  0  0  0  0  0  0  0  0  0  0
   -3.6963   -0.7835    1.0210 C   0  0  0  0  0  0  0  0  0  0  0  0
    2.6676    1.4446   -1.0322 H   0  0  0  0  0  0  0  0  0  0  0  0
    3.1041    2.5447    0.3627 H   0  0  0  0  0  0  0  0  0  0  0  0
    1.3605    2.2991   -0.1144 H   0  0  0  0  0  0  0  0  0  0  0  0
    1.4247    2.1846    2.1822 H   0  0  0  0  0  0  0  0  0  0  0  0
    1.4749    0.5392    2.9139 H   0  0  0  0  0  0  0  0  0  0  0  0
    2.9998    1.4487    2.7870 H   0  0  0  0  0  0  0  0  0  0  0  0
    4.1677   -1.4734    2.8553 H   0  0  0  0  0  0  0  0  0  0  0  0
    6.1139   -3.0026    2.7654 H   0  0  0  0  0  0  0  0  0  0  0  0
    7.3632   -3.2744    0.6682 H   0  0  0  0  0  0  0  0  0  0  0  0
    6.7071   -2.0551   -1.3115 H   0  0  0  0  0  0  0  0  0  0  0  0
   -0.2724    1.6289    0.8661 H   0  0  0  0  0  0  0  0  0  0  0  0
   -1.2568   -1.1261    0.0232 H   0  0  0  0  0  0  0  0  0  0  0  0
   -2.0589   -0.3406    2.2961 H   0  0  0  0  0  0  0  0  0  0  0  0
   -3.6770    1.4887    2.3683 H   0  0  0  0  0  0  0  0  0  0  0  0
   -2.0445    2.0695    1.7670 H   0  0  0  0  0  0  0  0  0  0  0  0
   -3.9270    2.9859    0.4463 H   0  0  0  0  0  0  0  0  0  0  0  0
   -1.6823    2.5470   -0.4665 H   0  0  0  0  0  0  0  0  0  0  0  0
   -2.9371    2.2913   -1.7691 H   0  0  0  0  0  0  0  0  0  0  0  0
   -1.3736    0.4921   -1.8611 H   0  0  0  0  0  0  0  0  0  0  0  0
   -2.9251   -1.3904   -1.5887 H   0  0  0  0  0  0  0  0  0  0  0  0
   -3.7373    0.1065   -2.2899 H   0  0  0  0  0  0  0  0  0  0  0  0
   -4.2227   -3.1637   -0.3411 H   0  0  0  0  0  0  0  0  0  0  0  0
   -5.7871   -3.6542   -0.7032 H   0  0  0  0  0  0  0  0  0  0  0  0
   -5.0630    1.4589   -1.1293 H   0  0  0  0  0  0  0  0  0  0  0  0
   -5.5698    1.2061    0.6116 H   0  0  0  0  0  0  0  0  0  0  0  0
   -4.4752   -0.5690    1.8081 H   0  0  0  0  0  0  0  0  0  0  0  0
   -3.4760   -1.8671    1.0428 H   0  0  0  0  0  0  0  0  0  0  0  0
  1  2  1  0
  2  3  1  0
  2  4  1  0
  4  5  1  0
  5  6  2  0
  6  7  1  0
  7  8  2  0
  8  9  1  0
  9 10  2  0
 10 11  1  0
 11 12  1  0
 12 13  1  0
 12 14  1  0
 12 15  1  0
  2 16  1  0
 16 17  2  0
 16 18  1  0
 18 19  1  0
 19 20  1  0
 20 21  1  0
 21 22  1  0
 22 23  1  0
 23 24  1  0
 24 25  1  0
 25 26  1  0
 26 27  1  6
 27 28  1  0
 27 29  2  0
 27 30  2  0
 26 31  1  0
 26 32  1  0
 10  5  1  0
 24 19  1  0
 32 20  1  0
 31 22  1  0
  1 33  1  0
  1 34  1  0
  1 35  1  0
  3 36  1  0
  3 37  1  0
  3 38  1  0
  6 39  1  0
  7 40  1  0
  8 41  1  0
  9 42  1  0
 18 43  1  0
 19 44  1  6
 20 45  1  0
 21 46  1  0
 21 47  1  0
 22 48  1  0
 23 49  1  0
 23 50  1  0
 24 51  1  0
 25 52  1  0
 25 53  1  0
 28 54  1  0
 28 55  1  0
 31 56  1  0
 31 57  1  0
 32 58  1  0
 32 59  1  0
M  END
$$$$
