
     RDKit          3D

 46 49  0  0  0  0  0  0  0  0999 V2000
   -0.1527   -4.6892   -2.9912 C   0  0  0  0  0  0  0  0  0  0  0  0
   -1.1724   -3.8131   -2.6072 O   0  0  0  0  0  0  0  0  0  0  0  0
   -0.9503   -2.7816   -1.7175 C   0  0  0  0  0  0  0  0  0  0  0  0
    0.2756   -2.4896   -1.1113 C   0  0  0  0  0  0  0  0  0  0  0  0
    0.4272   -1.4408   -0.2283 C   0  0  0  0  0  0  0  0  0  0  0  0
   -0.6589   -0.6476    0.0735 C   0  0  0  0  0  0  0  0  0  0  0  0
   -0.2503    0.2461    0.9107 O   0  0  0  0  0  0  0  0  0  0  0  0
    1.0206    0.1331    1.2075 C   0  0  0  0  0  0  0  0  0  0  0  0
    1.7165    0.9879    2.1007 N   0  0  0  0  0  0  0  0  0  0  0  0
    3.3688    0.7953    2.4466 S   0  0  0  0  0  0  0  0  0  0  0  0
    3.8224    1.6684    3.5796 O   0  0  0  0  0  0  0  0  0  0  0  0
    3.5490   -0.6326    2.9416 O   0  0  0  0  0  0  0  0  0  0  0  0
    4.4057    0.9661    1.0694 C   0  0  0  0  0  0  0  0  0  0  0  0
    3.9012    1.2232   -0.1912 C   0  0  0  0  0  0  0  0  0  0  0  0
    4.8399    1.3317   -1.1921 C   0  0  0  0  0  0  0  0  0  0  0  0
    4.1961    1.6546   -2.8017 Cl  0  0  0  0  0  0  0  0  0  0  0  0
    6.2064    1.2207   -1.1136 C   0  0  0  0  0  0  0  0  0  0  0  0
    6.6668    0.9607    0.1835 C   0  0  0  0  0  0  0  0  0  0  0  0
    5.7785    0.8422    1.2189 C   0  0  0  0  0  0  0  0  0  0  0  0
    6.4253    0.5138    2.8357 Cl  0  0  0  0  0  0  0  0  0  0  0  0
    1.4404   -0.9261    0.4905 N   0  0  0  0  0  0  0  0  0  0  0  0
   -1.9032   -0.8890   -0.4982 C   0  0  0  0  0  0  0  0  0  0  0  0
   -1.9891   -1.9481   -1.3691 C   0  0  0  0  0  0  0  0  0  0  0  0
   -2.9898    0.0029   -0.1212 C   0  0  0  0  0  0  0  0  0  0  0  0
   -3.1981    0.3377    1.2204 C   0  0  0  0  0  0  0  0  0  0  0  0
   -4.1713    1.1579    1.6321 N   0  0  0  0  0  0  0  0  0  0  0  0
   -5.0334    1.7326    0.8044 C   0  0  0  0  0  0  0  0  0  0  0  0
   -6.1119    2.6011    0.9420 O   0  0  0  0  0  0  0  0  0  0  0  0
   -6.4883    3.0625    2.2411 C   0  0  0  0  0  0  0  0  0  0  0  0
   -4.8706    1.4332   -0.5353 C   0  0  0  0  0  0  0  0  0  0  0  0
   -3.8731    0.5856   -1.0136 C   0  0  0  0  0  0  0  0  0  0  0  0
    0.3213   -4.3566   -3.9520 H   0  0  0  0  0  0  0  0  0  0  0  0
    0.6527   -4.8411   -2.2736 H   0  0  0  0  0  0  0  0  0  0  0  0
   -0.5814   -5.6974   -3.2509 H   0  0  0  0  0  0  0  0  0  0  0  0
    1.1138   -3.1038   -1.3464 H   0  0  0  0  0  0  0  0  0  0  0  0
    1.2304    1.7628    2.5734 H   0  0  0  0  0  0  0  0  0  0  0  0
    2.8594    1.3270   -0.3638 H   0  0  0  0  0  0  0  0  0  0  0  0
    6.8432    1.3252   -1.9746 H   0  0  0  0  0  0  0  0  0  0  0  0
    7.7544    0.8659    0.2941 H   0  0  0  0  0  0  0  0  0  0  0  0
   -2.9575   -2.1397   -1.8156 H   0  0  0  0  0  0  0  0  0  0  0  0
   -2.5722   -0.0566    2.0093 H   0  0  0  0  0  0  0  0  0  0  0  0
   -5.8322    3.9166    2.5298 H   0  0  0  0  0  0  0  0  0  0  0  0
   -7.5125    3.4650    2.2387 H   0  0  0  0  0  0  0  0  0  0  0  0
   -6.3832    2.2229    2.9424 H   0  0  0  0  0  0  0  0  0  0  0  0
   -5.4623    1.7912   -1.3890 H   0  0  0  0  0  0  0  0  0  0  0  0
   -3.7011    0.3190   -2.0411 H   0  0  0  0  0  0  0  0  0  0  0  0
  1  2  1  0
  2  3  1  0
  3  4  2  0
  4  5  1  0
  5  6  2  0
  6  7  1  0
  7  8  1  0
  8  9  1  0
  9 10  1  0
 10 11  2  0
 10 12  2  0
 10 13  1  0
 13 14  2  0
 14 15  1  0
 15 16  1  0
 15 17  2  0
 17 18  1  0
 18 19  2  0
 19 20  1  0
  8 21  2  0
  6 22  1  0
 22 23  2  0
 22 24  1  0
 24 25  2  0
 25 26  1  0
 26 27  2  0
 27 28  1  0
 28 29  1  0
 27 30  1  0
 30 31  2  0
 23  3  1  0
 31 24  1  0
 21  5  1  0
 19 13  1  0
  1 32  1  0
  1 33  1  0
  1 34  1  0
  4 35  1  0
  9 36  1  0
 14 37  1  0
 17 38  1  0
 18 39  1  0
 23 40  1  0
 25 41  1  0
 29 42  1  0
 29 43  1  0
 29 44  1  0
 30 45  1  0
 31 46  1  0
M  END
$$$$
