@<TRIPOS>MOLECULE
*****
 57 58 0 0 0
SMALL
GASTEIGER

@<TRIPOS>ATOM
      1 C          -2.1760    0.5653   -0.8459 C.3     1  UNL1        0.1059
      2 C          -1.9394    2.0530   -0.7141 C.3     1  UNL1        0.0112
      3 C          -0.4324    2.1222   -0.5903 C.3     1  UNL1        0.0652
      4 O           0.0183    3.3713   -0.2198 O.3     1  UNL1       -0.3911
      5 C          -0.2614    1.0849    0.5345 C.3     1  UNL1        0.0099
      6 C           1.1289    0.7509    0.8135 C.2     1  UNL1       -0.0796
      7 C           2.2438    1.2334    0.2860 C.2     1  UNL1       -0.0595
      8 C           3.6331    0.7728    0.6933 C.3     1  UNL1        0.0734
      9 O           3.5693   -0.4937    1.2261 O.3     1  UNL1       -0.3878
     10 C           4.4932    0.9252   -0.5180 C.3     1  UNL1       -0.0232
     11 C           5.9171    0.5685   -0.4131 C.3     1  UNL1       -0.0504
     12 C           6.1080   -0.8710   -0.0454 C.3     1  UNL1       -0.0532
     13 C           7.6303   -1.0887   -0.0024 C.3     1  UNL1       -0.0559
     14 C           8.1261   -0.7655   -1.3714 C.3     1  UNL1       -0.0653
     15 C          -1.1211   -0.0521    0.0331 C.3     1  UNL1        0.0115
     16 C          -1.8444   -0.7804    1.1107 C.3     1  UNL1        0.0114
     17 C          -3.2848   -0.6228    0.7645 C.2     1  UNL1        0.0946
     18 O          -3.4435    0.1970   -0.3364 O.2     1  UNL1       -0.4930
     19 C          -4.3158   -1.1906    1.4174 C.2     1  UNL1       -0.0464
     20 C          -5.7152   -0.9734    0.9982 C.3     1  UNL1       -0.0309
     21 C          -6.4525   -2.2329    0.6208 C.3     1  UNL1       -0.0394
     22 C          -7.8808   -1.8004    0.2320 C.3     1  UNL1        0.0451
     23 C          -7.8060   -0.8575   -0.9185 C.2     1  UNL1        0.3047
     24 O          -8.3287    0.4578   -1.0037 O.3     1  UNL1       -0.4806
     25 O          -7.2511   -1.1017   -2.0173 O.2     1  UNL1       -0.2510
     26 H          -2.0575    0.2730   -1.9113 H       1  UNL1        0.0736
     27 H          -2.3613    2.4557    0.2326 H       1  UNL1        0.0326
     28 H          -2.3030    2.6138   -1.6001 H       1  UNL1        0.0326
     29 H           0.0672    1.7204   -1.4956 H       1  UNL1        0.0600
     30 H           0.1397    3.8989   -1.0621 H       1  UNL1        0.2098
     31 H          -0.7457    1.5721    1.4107 H       1  UNL1        0.0372
     32 H           1.2233   -0.0154    1.5813 H       1  UNL1        0.0573
     33 H           2.0757    1.9954   -0.4805 H       1  UNL1        0.0594
     34 H           4.0514    1.4486    1.4893 H       1  UNL1        0.0637
     35 H           3.3019   -0.4099    2.1588 H       1  UNL1        0.2102
     36 H           4.4377    1.9936   -0.9006 H       1  UNL1        0.0293
     37 H           4.0459    0.3486   -1.3856 H       1  UNL1        0.0293
     38 H           6.4278    1.2592    0.3059 H       1  UNL1        0.0266
     39 H           6.3734    0.7530   -1.4354 H       1  UNL1        0.0266
     40 H           5.6658   -1.1918    0.9000 H       1  UNL1        0.0265
     41 H           5.6426   -1.4963   -0.8551 H       1  UNL1        0.0265
     42 H           7.7536   -2.1327    0.2866 H       1  UNL1        0.0263
     43 H           8.0105   -0.3796    0.7668 H       1  UNL1        0.0263
     44 H           7.3914   -1.0396   -2.1602 H       1  UNL1        0.0230
     45 H           9.0544   -1.3296   -1.5621 H       1  UNL1        0.0230
     46 H           8.3474    0.3129   -1.4712 H       1  UNL1        0.0230
     47 H          -0.5152   -0.7454   -0.5957 H       1  UNL1        0.0347
     48 H          -1.6355   -0.3513    2.1213 H       1  UNL1        0.0347
     49 H          -1.6526   -1.8811    1.1068 H       1  UNL1        0.0347
     50 H          -4.1904   -1.8283    2.2804 H       1  UNL1        0.0605
     51 H          -6.2684   -0.5300    1.8812 H       1  UNL1        0.0309
     52 H          -5.8363   -0.2282    0.1846 H       1  UNL1        0.0309
     53 H          -6.0093   -2.6413   -0.3201 H       1  UNL1        0.0273
     54 H          -6.4842   -2.9389    1.4531 H       1  UNL1        0.0273
     55 H          -8.4086   -1.3201    1.0610 H       1  UNL1        0.0378
     56 H          -8.4838   -2.6911   -0.0661 H       1  UNL1        0.0378
     57 H          -7.6726    1.2338   -1.1636 H       1  UNL1        0.2951
@<TRIPOS>BOND
     1     1     2    1
     2     2     3    1
     3     3     4    1
     4     3     5    1
     5     5     6    1
     6     6     7    2
     7     7     8    1
     8     8     9    1
     9     8    10    1
    10    10    11    1
    11    11    12    1
    12    12    13    1
    13    13    14    1
    14     5    15    1
    15    15    16    1
    16    16    17    1
    17    17    18    1
    18    17    19    2
    19    19    20    1
    20    20    21    1
    21    21    22    1
    22    22    23    1
    23    23    24    1
    24    23    25    2
    25    15     1    1
    26    18     1    1
    27     1    26    1
    28     2    27    1
    29     2    28    1
    30     3    29    1
    31     4    30    1
    32     5    31    1
    33     6    32    1
    34     7    33    1
    35     8    34    1
    36     9    35    1
    37    10    36    1
    38    10    37    1
    39    11    38    1
    40    11    39    1
    41    12    40    1
    42    12    41    1
    43    13    42    1
    44    13    43    1
    45    14    44    1
    46    14    45    1
    47    14    46    1
    48    15    47    1
    49    16    48    1
    50    16    49    1
    51    19    50    1
    52    20    51    1
    53    20    52    1
    54    21    53    1
    55    21    54    1
    56    22    55    1
    57    22    56    1
    58    24    57    1
