
     RDKit          3D

 57 58  0  0  0  0  0  0  0  0999 V2000
   -2.1760    0.5653   -0.8459 C   0  0  1  0  0  0  0  0  0  0  0  0
   -1.9394    2.0530   -0.7141 C   0  0  0  0  0  0  0  0  0  0  0  0
   -0.4324    2.1222   -0.5903 C   0  0  1  0  0  0  0  0  0  0  0  0
    0.0183    3.3713   -0.2198 O   0  0  0  0  0  0  0  0  0  0  0  0
   -0.2614    1.0849    0.5345 C   0  0  2  0  0  0  0  0  0  0  0  0
    1.1289    0.7509    0.8135 C   0  0  0  0  0  0  0  0  0  0  0  0
    2.2438    1.2334    0.2860 C   0  0  0  0  0  0  0  0  0  0  0  0
    3.6331    0.7728    0.6933 C   0  0  1  0  0  0  0  0  0  0  0  0
    3.5693   -0.4937    1.2261 O   0  0  0  0  0  0  0  0  0  0  0  0
    4.4932    0.9252   -0.5180 C   0  0  0  0  0  0  0  0  0  0  0  0
    5.9171    0.5685   -0.4131 C   0  0  0  0  0  0  0  0  0  0  0  0
    6.1080   -0.8710   -0.0454 C   0  0  0  0  0  0  0  0  0  0  0  0
    7.6303   -1.0887   -0.0024 C   0  0  0  0  0  0  0  0  0  0  0  0
    8.1261   -0.7655   -1.3714 C   0  0  0  0  0  0  0  0  0  0  0  0
   -1.1211   -0.0521    0.0331 C   0  0  1  0  0  0  0  0  0  0  0  0
   -1.8444   -0.7804    1.1107 C   0  0  0  0  0  0  0  0  0  0  0  0
   -3.2848   -0.6228    0.7645 C   0  0  0  0  0  0  0  0  0  0  0  0
   -3.4435    0.1970   -0.3364 O   0  0  0  0  0  0  0  0  0  0  0  0
   -4.3158   -1.1906    1.4174 C   0  0  0  0  0  0  0  0  0  0  0  0
   -5.7152   -0.9734    0.9982 C   0  0  0  0  0  0  0  0  0  0  0  0
   -6.4525   -2.2329    0.6208 C   0  0  0  0  0  0  0  0  0  0  0  0
   -7.8808   -1.8004    0.2320 C   0  0  0  0  0  0  0  0  0  0  0  0
   -7.8060   -0.8575   -0.9185 C   0  0  0  0  0  0  0  0  0  0  0  0
   -8.3287    0.4578   -1.0037 O   0  0  0  0  0  0  0  0  0  0  0  0
   -7.2511   -1.1017   -2.0173 O   0  0  0  0  0  0  0  0  0  0  0  0
   -2.0575    0.2730   -1.9113 H   0  0  0  0  0  0  0  0  0  0  0  0
   -2.3613    2.4557    0.2326 H   0  0  0  0  0  0  0  0  0  0  0  0
   -2.3030    2.6138   -1.6001 H   0  0  0  0  0  0  0  0  0  0  0  0
    0.0672    1.7204   -1.4956 H   0  0  0  0  0  0  0  0  0  0  0  0
    0.1397    3.8989   -1.0621 H   0  0  0  0  0  0  0  0  0  0  0  0
   -0.7457    1.5721    1.4107 H   0  0  0  0  0  0  0  0  0  0  0  0
    1.2233   -0.0154    1.5813 H   0  0  0  0  0  0  0  0  0  0  0  0
    2.0757    1.9954   -0.4805 H   0  0  0  0  0  0  0  0  0  0  0  0
    4.0514    1.4486    1.4893 H   0  0  0  0  0  0  0  0  0  0  0  0
    3.3019   -0.4099    2.1588 H   0  0  0  0  0  0  0  0  0  0  0  0
    4.4377    1.9936   -0.9006 H   0  0  0  0  0  0  0  0  0  0  0  0
    4.0459    0.3486   -1.3856 H   0  0  0  0  0  0  0  0  0  0  0  0
    6.4278    1.2592    0.3059 H   0  0  0  0  0  0  0  0  0  0  0  0
    6.3734    0.7530   -1.4354 H   0  0  0  0  0  0  0  0  0  0  0  0
    5.6658   -1.1918    0.9000 H   0  0  0  0  0  0  0  0  0  0  0  0
    5.6426   -1.4963   -0.8551 H   0  0  0  0  0  0  0  0  0  0  0  0
    7.7536   -2.1327    0.2866 H   0  0  0  0  0  0  0  0  0  0  0  0
    8.0105   -0.3796    0.7668 H   0  0  0  0  0  0  0  0  0  0  0  0
    7.3914   -1.0396   -2.1602 H   0  0  0  0  0  0  0  0  0  0  0  0
    9.0544   -1.3296   -1.5621 H   0  0  0  0  0  0  0  0  0  0  0  0
    8.3474    0.3129   -1.4712 H   0  0  0  0  0  0  0  0  0  0  0  0
   -0.5152   -0.7454   -0.5957 H   0  0  0  0  0  0  0  0  0  0  0  0
   -1.6355   -0.3513    2.1213 H   0  0  0  0  0  0  0  0  0  0  0  0
   -1.6526   -1.8811    1.1068 H   0  0  0  0  0  0  0  0  0  0  0  0
   -4.1904   -1.8283    2.2804 H   0  0  0  0  0  0  0  0  0  0  0  0
   -6.2684   -0.5300    1.8812 H   0  0  0  0  0  0  0  0  0  0  0  0
   -5.8363   -0.2282    0.1846 H   0  0  0  0  0  0  0  0  0  0  0  0
   -6.0093   -2.6413   -0.3201 H   0  0  0  0  0  0  0  0  0  0  0  0
   -6.4842   -2.9389    1.4531 H   0  0  0  0  0  0  0  0  0  0  0  0
   -8.4086   -1.3201    1.0610 H   0  0  0  0  0  0  0  0  0  0  0  0
   -8.4838   -2.6911   -0.0661 H   0  0  0  0  0  0  0  0  0  0  0  0
   -7.6726    1.2338   -1.1636 H   0  0  0  0  0  0  0  0  0  0  0  0
  1  2  1  0
  2  3  1  0
  3  4  1  0
  3  5  1  0
  5  6  1  0
  6  7  2  0
  7  8  1  0
  8  9  1  0
  8 10  1  0
 10 11  1  0
 11 12  1  0
 12 13  1  0
 13 14  1  0
  5 15  1  0
 15 16  1  0
 16 17  1  0
 17 18  1  0
 17 19  2  0
 19 20  1  0
 20 21  1  0
 21 22  1  0
 22 23  1  0
 23 24  1  0
 23 25  2  0
 15  1  1  0
 18  1  1  0
  1 26  1  6
  2 27  1  0
  2 28  1  0
  3 29  1  6
  4 30  1  0
  5 31  1  1
  6 32  1  0
  7 33  1  0
  8 34  1  1
  9 35  1  0
 10 36  1  0
 10 37  1  0
 11 38  1  0
 11 39  1  0
 12 40  1  0
 12 41  1  0
 13 42  1  0
 13 43  1  0
 14 44  1  0
 14 45  1  0
 14 46  1  0
 15 47  1  6
 16 48  1  0
 16 49  1  0
 19 50  1  0
 20 51  1  0
 20 52  1  0
 21 53  1  0
 21 54  1  0
 22 55  1  0
 22 56  1  0
 24 57  1  0
M  END
$$$$
