@<TRIPOS>MOLECULE
*****
 68 71 0 0 0
SMALL
GASTEIGER

@<TRIPOS>ATOM
      1 C           0.3738    0.3467   -3.5216 C.3     1  UNL1       -0.0421
      2 C           0.3722   -0.4736   -2.2532 C.3     1  UNL1        0.0515
      3 C           1.5882   -0.1424   -1.4661 C.ar    1  UNL1       -0.0271
      4 C           2.6981   -0.9975   -1.4868 C.ar    1  UNL1       -0.0562
      5 C           3.8309   -0.7107   -0.7797 C.ar    1  UNL1       -0.0522
      6 C           3.9553    0.4476    0.0054 C.ar    1  UNL1        0.0021
      7 C           5.1948    0.6787    0.7273 C.ar    1  UNL1        0.0916
      8 C           5.3725    1.7825    1.5031 C.ar    1  UNL1       -0.0289
      9 C           6.5699    1.9995    2.1967 C.ar    1  UNL1        0.0064
     10 C           7.5424    1.0367    2.0448 C.ar    1  UNL1        0.2675
     11 O           8.6467    1.1946    2.6579 O.2     1  UNL1       -0.2662
     12 N           7.3514   -0.0616    1.2664 N.ar    1  UNL1       -0.2202
     13 C           8.4388   -1.0056    1.1798 C.3     1  UNL1        0.1402
     14 C           9.3885   -0.6931    0.0432 C.3     1  UNL1        0.4090
     15 F           9.9198    0.5529    0.2352 F       1  UNL1       -0.1687
     16 F           8.6450   -0.6743   -1.1397 F       1  UNL1       -0.1687
     17 F          10.3386   -1.6886    0.0079 F       1  UNL1       -0.1687
     18 N           6.2035   -0.2221    0.6313 N.ar    1  UNL1       -0.1679
     19 C           2.8838    1.2718    0.0241 C.ar    1  UNL1       -0.0522
     20 C           1.7194    0.9856   -0.6974 C.ar    1  UNL1       -0.0562
     21 N          -0.8479   -0.3908   -1.5230 N.am    1  UNL1       -0.2605
     22 C          -1.4733    0.7846   -0.9854 C.3     1  UNL1        0.0224
     23 C          -3.0092    0.6401   -1.0015 C.3     1  UNL1        0.0076
     24 C          -3.4580   -0.5258   -0.1729 C.3     1  UNL1        0.1440
     25 C          -4.7246   -1.0602   -0.7819 C.3     1  UNL1        0.0199
     26 C          -5.8597   -0.1157   -0.8871 C.3     1  UNL1        0.0645
     27 C          -7.0499   -0.8495   -1.5451 C.3     1  UNL1       -0.0362
     28 C          -6.4072    0.4434    0.3853 C.3     1  UNL1       -0.0362
     29 O          -5.5641    0.9785   -1.7244 O.3     1  UNL1       -0.3890
     30 C          -3.6032   -0.2691    1.2640 C.ar    1  UNL1       -0.0040
     31 C          -3.3902    0.9503    1.8707 C.ar    1  UNL1       -0.0548
     32 C          -3.5267    1.1126    3.2333 C.ar    1  UNL1       -0.0614
     33 C          -3.8898    0.0199    4.0294 C.ar    1  UNL1       -0.0617
     34 C          -4.1042   -1.1997    3.4333 C.ar    1  UNL1       -0.0614
     35 C          -3.9596   -1.3266    2.0733 C.ar    1  UNL1       -0.0548
     36 O          -2.4811   -1.5917   -0.2443 O.3     1  UNL1       -0.4387
     37 C          -1.5866   -1.6192   -1.3006 C.2     1  UNL1        0.4042
     38 O          -1.3930   -2.6238   -2.0474 O.2     1  UNL1       -0.2262
     39 H           0.6747    1.3976   -3.3569 H       1  UNL1        0.0251
     40 H          -0.5928    0.2248   -4.0159 H       1  UNL1        0.0251
     41 H           1.1530   -0.0855   -4.2047 H       1  UNL1        0.0251
     42 H           0.5350   -1.5480   -2.5790 H       1  UNL1        0.0549
     43 H           2.6178   -1.9049   -2.0946 H       1  UNL1        0.0621
     44 H           4.6486   -1.4194   -0.8442 H       1  UNL1        0.0624
     45 H           4.5821    2.5054    1.5891 H       1  UNL1        0.0641
     46 H           6.6827    2.8793    2.8016 H       1  UNL1        0.0673
     47 H           9.0382   -1.0467    2.1155 H       1  UNL1        0.0599
     48 H           7.9745   -2.0105    1.0248 H       1  UNL1        0.0599
     49 H           2.8946    2.1888    0.6048 H       1  UNL1        0.0624
     50 H           0.8914    1.6969   -0.6457 H       1  UNL1        0.0621
     51 H          -1.2299    0.9749    0.0758 H       1  UNL1        0.0467
     52 H          -1.2278    1.6674   -1.6146 H       1  UNL1        0.0467
     53 H          -3.4147    1.6080   -0.6960 H       1  UNL1        0.0322
     54 H          -3.2752    0.5007   -2.0692 H       1  UNL1        0.0322
     55 H          -4.4421   -1.3248   -1.8501 H       1  UNL1        0.0335
     56 H          -5.0087   -2.0489   -0.3511 H       1  UNL1        0.0335
     57 H          -6.6490   -1.4689   -2.3574 H       1  UNL1        0.0257
     58 H          -7.4935   -1.4681   -0.7377 H       1  UNL1        0.0257
     59 H          -7.7891   -0.1031   -1.8833 H       1  UNL1        0.0257
     60 H          -6.4559   -0.2748    1.2269 H       1  UNL1        0.0257
     61 H          -7.5011    0.7442    0.2508 H       1  UNL1        0.0257
     62 H          -5.9410    1.4226    0.6822 H       1  UNL1        0.0257
     63 H          -6.3868    1.2531   -2.1773 H       1  UNL1        0.2101
     64 H          -3.1084    1.8231    1.3001 H       1  UNL1        0.0622
     65 H          -3.3651    2.0621    3.7386 H       1  UNL1        0.0618
     66 H          -3.9897    0.1810    5.1051 H       1  UNL1        0.0618
     67 H          -4.3832   -2.0371    4.0490 H       1  UNL1        0.0618
     68 H          -4.1436   -2.3207    1.6591 H       1  UNL1        0.0622
@<TRIPOS>BOND
     1     1     2    1
     2     2     3    1
     3     3     4   ar
     4     4     5   ar
     5     5     6   ar
     6     6     7    1
     7     7     8   ar
     8     8     9   ar
     9     9    10   ar
    10    10    11    2
    11    10    12   ar
    12    12    13    1
    13    13    14    1
    14    14    15    1
    15    14    16    1
    16    14    17    1
    17    12    18   ar
    18     6    19   ar
    19    19    20   ar
    20     2    21    1
    21    21    22    1
    22    22    23    1
    23    23    24    1
    24    24    25    1
    25    25    26    1
    26    26    27    1
    27    26    28    1
    28    26    29    1
    29    24    30    1
    30    30    31   ar
    31    31    32   ar
    32    32    33   ar
    33    33    34   ar
    34    34    35   ar
    35    24    36    1
    36    36    37    1
    37    37    38    2
    38    20     3   ar
    39    37    21   am
    40    18     7   ar
    41    35    30   ar
    42     1    39    1
    43     1    40    1
    44     1    41    1
    45     2    42    1
    46     4    43    1
    47     5    44    1
    48     8    45    1
    49     9    46    1
    50    13    47    1
    51    13    48    1
    52    19    49    1
    53    20    50    1
    54    22    51    1
    55    22    52    1
    56    23    53    1
    57    23    54    1
    58    25    55    1
    59    25    56    1
    60    27    57    1
    61    27    58    1
    62    27    59    1
    63    28    60    1
    64    28    61    1
    65    28    62    1
    66    29    63    1
    67    31    64    1
    68    32    65    1
    69    33    66    1
    70    34    67    1
    71    35    68    1
