
     RDKit          3D

 68 71  0  0  0  0  0  0  0  0999 V2000
    0.3738    0.3467   -3.5216 C   0  0  0  0  0  0  0  0  0  0  0  0
    0.3722   -0.4736   -2.2532 C   0  0  1  0  0  0  0  0  0  0  0  0
    1.5882   -0.1424   -1.4661 C   0  0  0  0  0  0  0  0  0  0  0  0
    2.6981   -0.9975   -1.4868 C   0  0  0  0  0  0  0  0  0  0  0  0
    3.8309   -0.7107   -0.7797 C   0  0  0  0  0  0  0  0  0  0  0  0
    3.9553    0.4476    0.0054 C   0  0  0  0  0  0  0  0  0  0  0  0
    5.1948    0.6787    0.7273 C   0  0  0  0  0  0  0  0  0  0  0  0
    5.3725    1.7825    1.5031 C   0  0  0  0  0  0  0  0  0  0  0  0
    6.5699    1.9995    2.1967 C   0  0  0  0  0  0  0  0  0  0  0  0
    7.5424    1.0367    2.0448 C   0  0  0  0  0  0  0  0  0  0  0  0
    8.6467    1.1946    2.6579 O   0  0  0  0  0  0  0  0  0  0  0  0
    7.3514   -0.0616    1.2664 N   0  0  0  0  0  0  0  0  0  0  0  0
    8.4388   -1.0056    1.1798 C   0  0  0  0  0  0  0  0  0  0  0  0
    9.3885   -0.6931    0.0432 C   0  0  0  0  0  0  0  0  0  0  0  0
    9.9198    0.5529    0.2352 F   0  0  0  0  0  0  0  0  0  0  0  0
    8.6450   -0.6743   -1.1397 F   0  0  0  0  0  0  0  0  0  0  0  0
   10.3386   -1.6886    0.0079 F   0  0  0  0  0  0  0  0  0  0  0  0
    6.2035   -0.2221    0.6313 N   0  0  0  0  0  0  0  0  0  0  0  0
    2.8838    1.2718    0.0241 C   0  0  0  0  0  0  0  0  0  0  0  0
    1.7194    0.9856   -0.6974 C   0  0  0  0  0  0  0  0  0  0  0  0
   -0.8479   -0.3908   -1.5230 N   0  0  0  0  0  0  0  0  0  0  0  0
   -1.4733    0.7846   -0.9854 C   0  0  0  0  0  0  0  0  0  0  0  0
   -3.0092    0.6401   -1.0015 C   0  0  0  0  0  0  0  0  0  0  0  0
   -3.4580   -0.5258   -0.1729 C   0  0  2  0  0  0  0  0  0  0  0  0
   -4.7246   -1.0602   -0.7819 C   0  0  0  0  0  0  0  0  0  0  0  0
   -5.8597   -0.1157   -0.8871 C   0  0  0  0  0  0  0  0  0  0  0  0
   -7.0499   -0.8495   -1.5451 C   0  0  0  0  0  0  0  0  0  0  0  0
   -6.4072    0.4434    0.3853 C   0  0  0  0  0  0  0  0  0  0  0  0
   -5.5641    0.9785   -1.7244 O   0  0  0  0  0  0  0  0  0  0  0  0
   -3.6032   -0.2691    1.2640 C   0  0  0  0  0  0  0  0  0  0  0  0
   -3.3902    0.9503    1.8707 C   0  0  0  0  0  0  0  0  0  0  0  0
   -3.5267    1.1126    3.2333 C   0  0  0  0  0  0  0  0  0  0  0  0
   -3.8898    0.0199    4.0294 C   0  0  0  0  0  0  0  0  0  0  0  0
   -4.1042   -1.1997    3.4333 C   0  0  0  0  0  0  0  0  0  0  0  0
   -3.9596   -1.3266    2.0733 C   0  0  0  0  0  0  0  0  0  0  0  0
   -2.4811   -1.5917   -0.2443 O   0  0  0  0  0  0  0  0  0  0  0  0
   -1.5866   -1.6192   -1.3006 C   0  0  0  0  0  0  0  0  0  0  0  0
   -1.3930   -2.6238   -2.0474 O   0  0  0  0  0  0  0  0  0  0  0  0
    0.6747    1.3976   -3.3569 H   0  0  0  0  0  0  0  0  0  0  0  0
   -0.5928    0.2248   -4.0159 H   0  0  0  0  0  0  0  0  0  0  0  0
    1.1530   -0.0855   -4.2047 H   0  0  0  0  0  0  0  0  0  0  0  0
    0.5350   -1.5480   -2.5790 H   0  0  0  0  0  0  0  0  0  0  0  0
    2.6178   -1.9049   -2.0946 H   0  0  0  0  0  0  0  0  0  0  0  0
    4.6486   -1.4194   -0.8442 H   0  0  0  0  0  0  0  0  0  0  0  0
    4.5821    2.5054    1.5891 H   0  0  0  0  0  0  0  0  0  0  0  0
    6.6827    2.8793    2.8016 H   0  0  0  0  0  0  0  0  0  0  0  0
    9.0382   -1.0467    2.1155 H   0  0  0  0  0  0  0  0  0  0  0  0
    7.9745   -2.0105    1.0248 H   0  0  0  0  0  0  0  0  0  0  0  0
    2.8946    2.1888    0.6048 H   0  0  0  0  0  0  0  0  0  0  0  0
    0.8914    1.6969   -0.6457 H   0  0  0  0  0  0  0  0  0  0  0  0
   -1.2299    0.9749    0.0758 H   0  0  0  0  0  0  0  0  0  0  0  0
   -1.2278    1.6674   -1.6146 H   0  0  0  0  0  0  0  0  0  0  0  0
   -3.4147    1.6080   -0.6960 H   0  0  0  0  0  0  0  0  0  0  0  0
   -3.2752    0.5007   -2.0692 H   0  0  0  0  0  0  0  0  0  0  0  0
   -4.4421   -1.3248   -1.8501 H   0  0  0  0  0  0  0  0  0  0  0  0
   -5.0087   -2.0489   -0.3511 H   0  0  0  0  0  0  0  0  0  0  0  0
   -6.6490   -1.4689   -2.3574 H   0  0  0  0  0  0  0  0  0  0  0  0
   -7.4935   -1.4681   -0.7377 H   0  0  0  0  0  0  0  0  0  0  0  0
   -7.7891   -0.1031   -1.8833 H   0  0  0  0  0  0  0  0  0  0  0  0
   -6.4559   -0.2748    1.2269 H   0  0  0  0  0  0  0  0  0  0  0  0
   -7.5011    0.7442    0.2508 H   0  0  0  0  0  0  0  0  0  0  0  0
   -5.9410    1.4226    0.6822 H   0  0  0  0  0  0  0  0  0  0  0  0
   -6.3868    1.2531   -2.1773 H   0  0  0  0  0  0  0  0  0  0  0  0
   -3.1084    1.8231    1.3001 H   0  0  0  0  0  0  0  0  0  0  0  0
   -3.3651    2.0621    3.7386 H   0  0  0  0  0  0  0  0  0  0  0  0
   -3.9897    0.1810    5.1051 H   0  0  0  0  0  0  0  0  0  0  0  0
   -4.3832   -2.0371    4.0490 H   0  0  0  0  0  0  0  0  0  0  0  0
   -4.1436   -2.3207    1.6591 H   0  0  0  0  0  0  0  0  0  0  0  0
  1  2  1  0
  2  3  1  0
  3  4  2  0
  4  5  1  0
  5  6  2  0
  6  7  1  0
  7  8  1  0
  8  9  2  0
  9 10  1  0
 10 11  2  0
 10 12  1  0
 12 13  1  0
 13 14  1  0
 14 15  1  0
 14 16  1  0
 14 17  1  0
 12 18  1  0
  6 19  1  0
 19 20  2  0
  2 21  1  0
 21 22  1  0
 22 23  1  0
 23 24  1  0
 24 25  1  6
 25 26  1  0
 26 27  1  0
 26 28  1  0
 26 29  1  0
 24 30  1  0
 30 31  2  0
 31 32  1  0
 32 33  2  0
 33 34  1  0
 34 35  2  0
 24 36  1  0
 36 37  1  0
 37 38  2  0
 20  3  1  0
 37 21  1  0
 18  7  2  0
 35 30  1  0
  1 39  1  0
  1 40  1  0
  1 41  1  0
  2 42  1  6
  4 43  1  0
  5 44  1  0
  8 45  1  0
  9 46  1  0
 13 47  1  0
 13 48  1  0
 19 49  1  0
 20 50  1  0
 22 51  1  0
 22 52  1  0
 23 53  1  0
 23 54  1  0
 25 55  1  0
 25 56  1  0
 27 57  1  0
 27 58  1  0
 27 59  1  0
 28 60  1  0
 28 61  1  0
 28 62  1  0
 29 63  1  0
 31 64  1  0
 32 65  1  0
 33 66  1  0
 34 67  1  0
 35 68  1  0
M  END
$$$$
