@<TRIPOS>MOLECULE
*****
 39 42 0 0 0
SMALL
GASTEIGER

@<TRIPOS>ATOM
      1 N           6.1480    2.8433    1.8943 N.1     1  UNL1       -0.1909
      2 C           5.3461    2.1856    1.3139 C.1     1  UNL1        0.0992
      3 C           4.3700    1.3987    0.6378 C.ar    1  UNL1        0.0525
      4 C           3.1365    1.9020    0.3303 C.ar    1  UNL1       -0.0424
      5 C           2.1874    1.1477   -0.3248 C.ar    1  UNL1       -0.0363
      6 C           2.4658   -0.1662   -0.6966 C.ar    1  UNL1        0.0526
      7 C           3.7122   -0.6907   -0.3899 C.ar    1  UNL1       -0.0000
      8 C           4.0078   -2.0046   -0.7411 C.ar    1  UNL1       -0.0475
      9 C           3.0259   -2.6977   -1.3767 C.ar    1  UNL1        0.0036
     10 C           1.7993   -2.1568   -1.6700 C.ar    1  UNL1        0.2522
     11 O           0.9592   -2.8843   -2.2612 O.2     1  UNL1       -0.2677
     12 N           1.5043   -0.8662   -1.3276 N.ar    1  UNL1       -0.2993
     13 C           0.2099   -0.3892   -1.6862 C.3     1  UNL1        0.1032
     14 C          -0.7634   -0.6533   -0.6017 C.2     1  UNL1        0.2375
     15 O          -1.1360   -1.8353   -0.3916 O.2     1  UNL1       -0.2735
     16 N          -1.2730    0.4068    0.1881 N.am    1  UNL1       -0.2779
     17 C          -2.2125    0.1265    1.2157 C.ar    1  UNL1        0.0836
     18 S          -1.7037   -0.3593    2.8189 S.2     1  UNL1       -0.0801
     19 C          -3.3744   -0.5074    3.5102 C.ar    1  UNL1       -0.0078
     20 C          -4.1718   -0.1667    2.4386 C.ar    1  UNL1        0.0374
     21 BR         -6.1165   -0.1712    2.6931 Br      1  UNL1       -0.0490
     22 C          -3.5688    0.1541    1.2750 C.ar    1  UNL1        0.0614
     23 C          -4.3401    0.5633    0.0563 C.ar    1  UNL1        0.1648
     24 N          -5.6913    0.6396   -0.0615 N.ar    1  UNL1       -0.1295
     25 N          -6.0305    1.0465   -1.2734 N.ar    1  UNL1       -0.1377
     26 C          -4.9013    1.2423   -1.9653 C.ar    1  UNL1        0.1175
     27 N          -3.8675    0.9366   -1.1206 N.ar    1  UNL1       -0.3276
     28 C           4.6453    0.0874    0.2674 C.ar    1  UNL1       -0.0352
     29 H           2.8456    2.9288    0.5912 H       1  UNL1        0.0631
     30 H           1.2257    1.5366   -0.5671 H       1  UNL1        0.0639
     31 H           4.9627   -2.4114   -0.5086 H       1  UNL1        0.0626
     32 H           3.2454   -3.7280   -1.6561 H       1  UNL1        0.0672
     33 H           0.1389    0.6875   -1.9371 H       1  UNL1        0.0589
     34 H          -0.1252   -0.9932   -2.5982 H       1  UNL1        0.0589
     35 H          -1.0188    1.4144    0.0767 H       1  UNL1        0.1554
     36 H          -3.6135   -0.8059    4.5539 H       1  UNL1        0.0705
     37 H          -4.7717    1.5707   -2.9800 H       1  UNL1        0.1046
     38 H          -2.8526    1.0100   -1.4071 H       1  UNL1        0.1683
     39 H           5.5967   -0.3413    0.4906 H       1  UNL1        0.0637
@<TRIPOS>BOND
     1     1     2    3
     2     2     3    1
     3     3     4   ar
     4     4     5   ar
     5     5     6   ar
     6     6     7   ar
     7     7     8   ar
     8     8     9   ar
     9     9    10   ar
    10    10    11    2
    11    10    12   ar
    12    12    13    1
    13    13    14    1
    14    14    15    2
    15    14    16   am
    16    16    17    1
    17    17    18   ar
    18    18    19   ar
    19    19    20   ar
    20    20    21    1
    21    20    22   ar
    22    22    23    1
    23    23    24   ar
    24    24    25   ar
    25    25    26   ar
    26    26    27   ar
    27     7    28   ar
    28    28     3   ar
    29    12     6   ar
    30    22    17   ar
    31    27    23   ar
    32     4    29    1
    33     5    30    1
    34     8    31    1
    35     9    32    1
    36    13    33    1
    37    13    34    1
    38    16    35    1
    39    19    36    1
    40    26    37    1
    41    27    38    1
    42    28    39    1
