
     RDKit          3D

 39 42  0  0  0  0  0  0  0  0999 V2000
    6.1480    2.8433    1.8943 N   0  0  0  0  0  0  0  0  0  0  0  0
    5.3461    2.1856    1.3139 C   0  0  0  0  0  0  0  0  0  0  0  0
    4.3700    1.3987    0.6378 C   0  0  0  0  0  0  0  0  0  0  0  0
    3.1365    1.9020    0.3303 C   0  0  0  0  0  0  0  0  0  0  0  0
    2.1874    1.1477   -0.3248 C   0  0  0  0  0  0  0  0  0  0  0  0
    2.4658   -0.1662   -0.6966 C   0  0  0  0  0  0  0  0  0  0  0  0
    3.7122   -0.6907   -0.3899 C   0  0  0  0  0  0  0  0  0  0  0  0
    4.0078   -2.0046   -0.7411 C   0  0  0  0  0  0  0  0  0  0  0  0
    3.0259   -2.6977   -1.3767 C   0  0  0  0  0  0  0  0  0  0  0  0
    1.7993   -2.1568   -1.6700 C   0  0  0  0  0  0  0  0  0  0  0  0
    0.9592   -2.8843   -2.2612 O   0  0  0  0  0  0  0  0  0  0  0  0
    1.5043   -0.8662   -1.3276 N   0  0  0  0  0  0  0  0  0  0  0  0
    0.2099   -0.3892   -1.6862 C   0  0  0  0  0  0  0  0  0  0  0  0
   -0.7634   -0.6533   -0.6017 C   0  0  0  0  0  0  0  0  0  0  0  0
   -1.1360   -1.8353   -0.3916 O   0  0  0  0  0  0  0  0  0  0  0  0
   -1.2730    0.4068    0.1881 N   0  0  0  0  0  0  0  0  0  0  0  0
   -2.2125    0.1265    1.2157 C   0  0  0  0  0  0  0  0  0  0  0  0
   -1.7037   -0.3593    2.8189 S   0  0  0  0  0  0  0  0  0  0  0  0
   -3.3744   -0.5074    3.5102 C   0  0  0  0  0  0  0  0  0  0  0  0
   -4.1718   -0.1667    2.4386 C   0  0  0  0  0  0  0  0  0  0  0  0
   -6.1165   -0.1712    2.6931 Br  0  0  0  0  0  0  0  0  0  0  0  0
   -3.5688    0.1541    1.2750 C   0  0  0  0  0  0  0  0  0  0  0  0
   -4.3401    0.5633    0.0563 C   0  0  0  0  0  0  0  0  0  0  0  0
   -5.6913    0.6396   -0.0615 N   0  0  0  0  0  0  0  0  0  0  0  0
   -6.0305    1.0465   -1.2734 N   0  0  0  0  0  0  0  0  0  0  0  0
   -4.9013    1.2423   -1.9653 C   0  0  0  0  0  0  0  0  0  0  0  0
   -3.8675    0.9366   -1.1206 N   0  0  0  0  0  0  0  0  0  0  0  0
    4.6453    0.0874    0.2674 C   0  0  0  0  0  0  0  0  0  0  0  0
    2.8456    2.9288    0.5912 H   0  0  0  0  0  0  0  0  0  0  0  0
    1.2257    1.5366   -0.5671 H   0  0  0  0  0  0  0  0  0  0  0  0
    4.9627   -2.4114   -0.5086 H   0  0  0  0  0  0  0  0  0  0  0  0
    3.2454   -3.7280   -1.6561 H   0  0  0  0  0  0  0  0  0  0  0  0
    0.1389    0.6875   -1.9371 H   0  0  0  0  0  0  0  0  0  0  0  0
   -0.1252   -0.9932   -2.5982 H   0  0  0  0  0  0  0  0  0  0  0  0
   -1.0188    1.4144    0.0767 H   0  0  0  0  0  0  0  0  0  0  0  0
   -3.6135   -0.8059    4.5539 H   0  0  0  0  0  0  0  0  0  0  0  0
   -4.7717    1.5707   -2.9800 H   0  0  0  0  0  0  0  0  0  0  0  0
   -2.8526    1.0100   -1.4071 H   0  0  0  0  0  0  0  0  0  0  0  0
    5.5967   -0.3413    0.4906 H   0  0  0  0  0  0  0  0  0  0  0  0
  1  2  3  0
  2  3  1  0
  3  4  2  0
  4  5  1  0
  5  6  2  0
  6  7  1  0
  7  8  1  0
  8  9  2  0
  9 10  1  0
 10 11  2  0
 10 12  1  0
 12 13  1  0
 13 14  1  0
 14 15  2  0
 14 16  1  0
 16 17  1  0
 17 18  1  0
 18 19  1  0
 19 20  2  0
 20 21  1  0
 20 22  1  0
 22 23  1  0
 23 24  2  0
 24 25  1  0
 25 26  2  0
 26 27  1  0
  7 28  2  0
 28  3  1  0
 12  6  1  0
 22 17  2  0
 27 23  1  0
  4 29  1  0
  5 30  1  0
  8 31  1  0
  9 32  1  0
 13 33  1  0
 13 34  1  0
 16 35  1  0
 19 36  1  0
 26 37  1  0
 27 38  1  0
 28 39  1  0
M  END
$$$$
