@<TRIPOS>MOLECULE
*****
 39 42 0 0 0
SMALL
GASTEIGER

@<TRIPOS>ATOM
      1 O           7.1705    0.5220   -0.1900 O.3     1  UNL1       -0.5068
      2 C           5.7744    0.3789   -0.1366 C.ar    1  UNL1        0.1169
      3 C           5.1921   -0.8320    0.1949 C.ar    1  UNL1       -0.0195
      4 C           3.8042   -0.9293    0.2358 C.ar    1  UNL1       -0.0477
      5 C           3.0349    0.1583   -0.0481 C.ar    1  UNL1        0.0175
      6 C           1.5834    0.0782   -0.0104 C.ar    1  UNL1        0.1393
      7 N           0.7186    1.0704   -0.2696 N.ar    1  UNL1       -0.2271
      8 C          -0.5411    0.6116   -0.1317 C.ar    1  UNL1        0.0971
      9 C          -1.7872    1.3174   -0.3103 C.ar    1  UNL1        0.0026
     10 C          -2.1142    1.8703   -1.5248 C.ar    1  UNL1       -0.0498
     11 C          -3.3201    2.5549   -1.7035 C.ar    1  UNL1       -0.0258
     12 C          -4.1976    2.6811   -0.6527 C.ar    1  UNL1        0.1234
     13 F          -5.3922    3.3443   -0.7829 F       1  UNL1       -0.2055
     14 C          -3.8798    2.1295    0.5725 C.ar    1  UNL1       -0.0258
     15 C          -2.6725    1.4513    0.7287 C.ar    1  UNL1       -0.0498
     16 C          -0.4284   -0.7159    0.2263 C.ar    1  UNL1        0.0744
     17 C          -1.5667   -1.5899    0.4764 C.ar    1  UNL1        0.0033
     18 C          -2.4376   -1.8446   -0.5578 C.ar    1  UNL1       -0.0344
     19 C          -3.5469   -2.6700   -0.3876 C.ar    1  UNL1        0.0282
     20 N          -3.7797   -3.2334    0.8062 N.ar    1  UNL1       -0.2632
     21 C          -2.9499   -3.0132    1.8585 C.ar    1  UNL1        0.0282
     22 C          -1.8363   -2.1840    1.6859 C.ar    1  UNL1       -0.0344
     23 N           0.8789   -1.0181    0.2939 N.ar    1  UNL1       -0.3374
     24 C           3.6146    1.3630   -0.3779 C.ar    1  UNL1       -0.0477
     25 C           4.9847    1.4663   -0.4202 C.ar    1  UNL1       -0.0195
     26 H           7.7655   -0.2303   -0.4624 H       1  UNL1        0.2921
     27 H           5.7856   -1.6986    0.4212 H       1  UNL1        0.0654
     28 H           3.3666   -1.8852    0.4968 H       1  UNL1        0.0626
     29 H          -1.4505    1.7925   -2.3746 H       1  UNL1        0.0625
     30 H          -3.5893    2.9916   -2.6447 H       1  UNL1        0.0646
     31 H          -4.5140    2.1886    1.4326 H       1  UNL1        0.0646
     32 H          -2.4316    1.0218    1.6945 H       1  UNL1        0.0625
     33 H          -2.3023   -1.4179   -1.5466 H       1  UNL1        0.0639
     34 H          -4.2330   -2.8752   -1.1885 H       1  UNL1        0.0830
     35 H          -3.1726   -3.4846    2.8008 H       1  UNL1        0.0830
     36 H          -1.1794   -2.0111    2.5232 H       1  UNL1        0.0639
     37 H           1.2475   -1.9818    0.5507 H       1  UNL1        0.1674
     38 H           2.9671    2.2223   -0.6019 H       1  UNL1        0.0626
     39 H           5.4341    2.4011   -0.6761 H       1  UNL1        0.0654
@<TRIPOS>BOND
     1     1     2    1
     2     2     3   ar
     3     3     4   ar
     4     4     5   ar
     5     5     6    1
     6     6     7   ar
     7     7     8   ar
     8     8     9    1
     9     9    10   ar
    10    10    11   ar
    11    11    12   ar
    12    12    13    1
    13    12    14   ar
    14    14    15   ar
    15     8    16   ar
    16    16    17    1
    17    17    18   ar
    18    18    19   ar
    19    19    20   ar
    20    20    21   ar
    21    21    22   ar
    22    16    23   ar
    23     5    24   ar
    24    24    25   ar
    25    25     2   ar
    26    23     6   ar
    27    15     9   ar
    28    22    17   ar
    29     1    26    1
    30     3    27    1
    31     4    28    1
    32    10    29    1
    33    11    30    1
    34    14    31    1
    35    15    32    1
    36    18    33    1
    37    19    34    1
    38    21    35    1
    39    22    36    1
    40    23    37    1
    41    24    38    1
    42    25    39    1
