@<TRIPOS>MOLECULE
*****
 69 71 0 0 0
SMALL
GASTEIGER

@<TRIPOS>ATOM
      1 C          -6.6273    0.5866    1.7849 C.3     1  UNL1       -0.0130
      2 N          -6.3706    0.7462    0.3935 N.3     1  UNL1       -0.3069
      3 C          -6.7380    2.0072   -0.1731 C.3     1  UNL1       -0.0130
      4 C          -6.6462   -0.3757   -0.4392 C.3     1  UNL1        0.0141
      5 C          -5.7137   -1.5450   -0.2099 C.3     1  UNL1        0.0275
      6 N          -4.3417   -1.0864   -0.4786 N.am    1  UNL1       -0.2987
      7 C          -3.5832   -0.5444    0.6237 C.3     1  UNL1        0.0305
      8 C          -2.0844   -0.8696    0.4825 C.3     1  UNL1        0.0308
      9 N          -1.4974   -0.0732   -0.5440 N.am    1  UNL1       -0.2955
     10 C          -0.1582    0.1419   -0.7609 C.2     1  UNL1        0.2490
     11 O           0.1165    0.9477   -1.7429 O.2     1  UNL1       -0.2699
     12 C           1.0257   -0.4074   -0.0373 C.ar    1  UNL1        0.0657
     13 C           0.9980   -1.4905    0.7668 C.ar    1  UNL1       -0.0370
     14 C           2.1162   -1.9505    1.3364 C.ar    1  UNL1       -0.0023
     15 C           2.3768   -3.0958    2.2450 C.3     1  UNL1       -0.0064
     16 C           1.0564   -3.7795    2.4932 C.3     1  UNL1       -0.0556
     17 C           3.1056   -2.7070    3.4877 C.3     1  UNL1       -0.0556
     18 C           3.2321   -4.0861    1.4529 C.3     1  UNL1       -0.0556
     19 S           3.3525   -0.8592    0.7684 S.2     1  UNL1       -0.0771
     20 C           2.2446    0.1775   -0.2296 C.ar    1  UNL1        0.0853
     21 N           2.6909    1.3121   -0.9761 N.am    1  UNL1       -0.2629
     22 C           4.0864    1.6465   -0.9686 C.2     1  UNL1        0.3085
     23 O           4.8449    0.9178   -0.3039 O.2     1  UNL1       -0.2521
     24 N           4.5686    2.7712   -1.6986 N.am    1  UNL1       -0.2678
     25 C           5.8973    3.1968   -1.7710 C.ar    1  UNL1        0.0546
     26 C           6.9344    2.5663   -1.1591 C.ar    1  UNL1       -0.0389
     27 C           8.2549    3.0275   -1.2525 C.ar    1  UNL1       -0.0585
     28 C           8.4868    4.1548   -1.9916 C.ar    1  UNL1       -0.0419
     29 C           7.4734    4.8364   -2.6347 C.ar    1  UNL1        0.0610
     30 CL          7.7819    6.2773   -3.5757 Cl      1  UNL1       -0.0820
     31 C           6.1790    4.3364   -2.5099 C.ar    1  UNL1        0.0804
     32 CL          4.8728    5.1786   -3.3137 Cl      1  UNL1       -0.0801
     33 C          -2.3345    0.6486   -1.5679 C.3     1  UNL1        0.0233
     34 C          -2.7711   -0.4651   -2.5106 C.3     1  UNL1        0.0399
     35 C          -3.8712   -1.2201   -1.8307 C.2     1  UNL1        0.2171
     36 O          -4.4774   -2.0884   -2.5096 O.2     1  UNL1       -0.2755
     37 H          -5.8970    1.1490    2.4227 H       1  UNL1        0.0391
     38 H          -7.6169    1.0816    2.0107 H       1  UNL1        0.0391
     39 H          -6.7283   -0.4577    2.0774 H       1  UNL1        0.0391
     40 H          -7.7334    1.8777   -0.6759 H       1  UNL1        0.0391
     41 H          -6.0390    2.2859   -1.0119 H       1  UNL1        0.0391
     42 H          -6.8698    2.8094    0.5610 H       1  UNL1        0.0391
     43 H          -7.6806   -0.7240   -0.2106 H       1  UNL1        0.0442
     44 H          -6.5283   -0.0486   -1.4938 H       1  UNL1        0.0442
     45 H          -5.9216   -2.3452   -0.9499 H       1  UNL1        0.0477
     46 H          -5.7926   -1.9754    0.7866 H       1  UNL1        0.0477
     47 H          -3.9135   -1.1129    1.5329 H       1  UNL1        0.0480
     48 H          -3.7405    0.5133    0.8238 H       1  UNL1        0.0480
     49 H          -1.6655   -0.7533    1.4892 H       1  UNL1        0.0480
     50 H          -2.0663   -1.9305    0.1845 H       1  UNL1        0.0480
     51 H           0.0490   -2.0505    0.9652 H       1  UNL1        0.0634
     52 H           1.1323   -4.6293    3.1880 H       1  UNL1        0.0238
     53 H           0.3440   -3.0597    2.9469 H       1  UNL1        0.0238
     54 H           0.6609   -4.1379    1.5368 H       1  UNL1        0.0238
     55 H           2.9593   -3.4314    4.3085 H       1  UNL1        0.0238
     56 H           2.8217   -1.6923    3.8502 H       1  UNL1        0.0238
     57 H           4.1962   -2.6593    3.2630 H       1  UNL1        0.0238
     58 H           4.2824   -3.7300    1.3747 H       1  UNL1        0.0238
     59 H           2.8281   -4.1372    0.4178 H       1  UNL1        0.0238
     60 H           3.2164   -5.0952    1.9429 H       1  UNL1        0.0238
     61 H           2.0902    1.9266   -1.5250 H       1  UNL1        0.1569
     62 H           3.8291    3.3246   -2.2328 H       1  UNL1        0.1564
     63 H           6.8039    1.6858   -0.5746 H       1  UNL1        0.0637
     64 H           9.0266    2.4865   -0.7488 H       1  UNL1        0.0619
     65 H           9.5049    4.5153   -2.0667 H       1  UNL1        0.0633
     66 H          -1.7522    1.4293   -2.0555 H       1  UNL1        0.0469
     67 H          -3.1977    1.1179   -1.0605 H       1  UNL1        0.0469
     68 H          -3.1887    0.0266   -3.4024 H       1  UNL1        0.0374
     69 H          -1.8938   -1.0929   -2.7100 H       1  UNL1        0.0374
@<TRIPOS>BOND
     1     1     2    1
     2     2     3    1
     3     2     4    1
     4     4     5    1
     5     5     6    1
     6     6     7    1
     7     7     8    1
     8     8     9    1
     9     9    10   am
    10    10    11    2
    11    10    12    1
    12    12    13   ar
    13    13    14   ar
    14    14    15    1
    15    15    16    1
    16    15    17    1
    17    15    18    1
    18    14    19   ar
    19    19    20   ar
    20    20    21    1
    21    21    22   am
    22    22    23    2
    23    22    24   am
    24    24    25    1
    25    25    26   ar
    26    26    27   ar
    27    27    28   ar
    28    28    29   ar
    29    29    30    1
    30    29    31   ar
    31    31    32    1
    32     9    33    1
    33    33    34    1
    34    34    35    1
    35    35    36    2
    36    35     6   am
    37    20    12   ar
    38    31    25   ar
    39     1    37    1
    40     1    38    1
    41     1    39    1
    42     3    40    1
    43     3    41    1
    44     3    42    1
    45     4    43    1
    46     4    44    1
    47     5    45    1
    48     5    46    1
    49     7    47    1
    50     7    48    1
    51     8    49    1
    52     8    50    1
    53    13    51    1
    54    16    52    1
    55    16    53    1
    56    16    54    1
    57    17    55    1
    58    17    56    1
    59    17    57    1
    60    18    58    1
    61    18    59    1
    62    18    60    1
    63    21    61    1
    64    24    62    1
    65    26    63    1
    66    27    64    1
    67    28    65    1
    68    33    66    1
    69    33    67    1
    70    34    68    1
    71    34    69    1
