
     RDKit          3D

 69 71  0  0  0  0  0  0  0  0999 V2000
   -6.6273    0.5866    1.7849 C   0  0  0  0  0  0  0  0  0  0  0  0
   -6.3706    0.7462    0.3935 N   0  0  0  0  0  0  0  0  0  0  0  0
   -6.7380    2.0072   -0.1731 C   0  0  0  0  0  0  0  0  0  0  0  0
   -6.6462   -0.3757   -0.4392 C   0  0  0  0  0  0  0  0  0  0  0  0
   -5.7137   -1.5450   -0.2099 C   0  0  0  0  0  0  0  0  0  0  0  0
   -4.3417   -1.0864   -0.4786 N   0  0  0  0  0  0  0  0  0  0  0  0
   -3.5832   -0.5444    0.6237 C   0  0  0  0  0  0  0  0  0  0  0  0
   -2.0844   -0.8696    0.4825 C   0  0  0  0  0  0  0  0  0  0  0  0
   -1.4974   -0.0732   -0.5440 N   0  0  0  0  0  0  0  0  0  0  0  0
   -0.1582    0.1419   -0.7609 C   0  0  0  0  0  0  0  0  0  0  0  0
    0.1165    0.9477   -1.7429 O   0  0  0  0  0  0  0  0  0  0  0  0
    1.0257   -0.4074   -0.0373 C   0  0  0  0  0  0  0  0  0  0  0  0
    0.9980   -1.4905    0.7668 C   0  0  0  0  0  0  0  0  0  0  0  0
    2.1162   -1.9505    1.3364 C   0  0  0  0  0  0  0  0  0  0  0  0
    2.3768   -3.0958    2.2450 C   0  0  0  0  0  0  0  0  0  0  0  0
    1.0564   -3.7795    2.4932 C   0  0  0  0  0  0  0  0  0  0  0  0
    3.1056   -2.7070    3.4877 C   0  0  0  0  0  0  0  0  0  0  0  0
    3.2321   -4.0861    1.4529 C   0  0  0  0  0  0  0  0  0  0  0  0
    3.3525   -0.8592    0.7684 S   0  0  0  0  0  0  0  0  0  0  0  0
    2.2446    0.1775   -0.2296 C   0  0  0  0  0  0  0  0  0  0  0  0
    2.6909    1.3121   -0.9761 N   0  0  0  0  0  0  0  0  0  0  0  0
    4.0864    1.6465   -0.9686 C   0  0  0  0  0  0  0  0  0  0  0  0
    4.8449    0.9178   -0.3039 O   0  0  0  0  0  0  0  0  0  0  0  0
    4.5686    2.7712   -1.6986 N   0  0  0  0  0  0  0  0  0  0  0  0
    5.8973    3.1968   -1.7710 C   0  0  0  0  0  0  0  0  0  0  0  0
    6.9344    2.5663   -1.1591 C   0  0  0  0  0  0  0  0  0  0  0  0
    8.2549    3.0275   -1.2525 C   0  0  0  0  0  0  0  0  0  0  0  0
    8.4868    4.1548   -1.9916 C   0  0  0  0  0  0  0  0  0  0  0  0
    7.4734    4.8364   -2.6347 C   0  0  0  0  0  0  0  0  0  0  0  0
    7.7819    6.2773   -3.5757 Cl  0  0  0  0  0  0  0  0  0  0  0  0
    6.1790    4.3364   -2.5099 C   0  0  0  0  0  0  0  0  0  0  0  0
    4.8728    5.1786   -3.3137 Cl  0  0  0  0  0  0  0  0  0  0  0  0
   -2.3345    0.6486   -1.5679 C   0  0  0  0  0  0  0  0  0  0  0  0
   -2.7711   -0.4651   -2.5106 C   0  0  0  0  0  0  0  0  0  0  0  0
   -3.8712   -1.2201   -1.8307 C   0  0  0  0  0  0  0  0  0  0  0  0
   -4.4774   -2.0884   -2.5096 O   0  0  0  0  0  0  0  0  0  0  0  0
   -5.8970    1.1490    2.4227 H   0  0  0  0  0  0  0  0  0  0  0  0
   -7.6169    1.0816    2.0107 H   0  0  0  0  0  0  0  0  0  0  0  0
   -6.7283   -0.4577    2.0774 H   0  0  0  0  0  0  0  0  0  0  0  0
   -7.7334    1.8777   -0.6759 H   0  0  0  0  0  0  0  0  0  0  0  0
   -6.0390    2.2859   -1.0119 H   0  0  0  0  0  0  0  0  0  0  0  0
   -6.8698    2.8094    0.5610 H   0  0  0  0  0  0  0  0  0  0  0  0
   -7.6806   -0.7240   -0.2106 H   0  0  0  0  0  0  0  0  0  0  0  0
   -6.5283   -0.0486   -1.4938 H   0  0  0  0  0  0  0  0  0  0  0  0
   -5.9216   -2.3452   -0.9499 H   0  0  0  0  0  0  0  0  0  0  0  0
   -5.7926   -1.9754    0.7866 H   0  0  0  0  0  0  0  0  0  0  0  0
   -3.9135   -1.1129    1.5329 H   0  0  0  0  0  0  0  0  0  0  0  0
   -3.7405    0.5133    0.8238 H   0  0  0  0  0  0  0  0  0  0  0  0
   -1.6655   -0.7533    1.4892 H   0  0  0  0  0  0  0  0  0  0  0  0
   -2.0663   -1.9305    0.1845 H   0  0  0  0  0  0  0  0  0  0  0  0
    0.0490   -2.0505    0.9652 H   0  0  0  0  0  0  0  0  0  0  0  0
    1.1323   -4.6293    3.1880 H   0  0  0  0  0  0  0  0  0  0  0  0
    0.3440   -3.0597    2.9469 H   0  0  0  0  0  0  0  0  0  0  0  0
    0.6609   -4.1379    1.5368 H   0  0  0  0  0  0  0  0  0  0  0  0
    2.9593   -3.4314    4.3085 H   0  0  0  0  0  0  0  0  0  0  0  0
    2.8217   -1.6923    3.8502 H   0  0  0  0  0  0  0  0  0  0  0  0
    4.1962   -2.6593    3.2630 H   0  0  0  0  0  0  0  0  0  0  0  0
    4.2824   -3.7300    1.3747 H   0  0  0  0  0  0  0  0  0  0  0  0
    2.8281   -4.1372    0.4178 H   0  0  0  0  0  0  0  0  0  0  0  0
    3.2164   -5.0952    1.9429 H   0  0  0  0  0  0  0  0  0  0  0  0
    2.0902    1.9266   -1.5250 H   0  0  0  0  0  0  0  0  0  0  0  0
    3.8291    3.3246   -2.2328 H   0  0  0  0  0  0  0  0  0  0  0  0
    6.8039    1.6858   -0.5746 H   0  0  0  0  0  0  0  0  0  0  0  0
    9.0266    2.4865   -0.7488 H   0  0  0  0  0  0  0  0  0  0  0  0
    9.5049    4.5153   -2.0667 H   0  0  0  0  0  0  0  0  0  0  0  0
   -1.7522    1.4293   -2.0555 H   0  0  0  0  0  0  0  0  0  0  0  0
   -3.1977    1.1179   -1.0605 H   0  0  0  0  0  0  0  0  0  0  0  0
   -3.1887    0.0266   -3.4024 H   0  0  0  0  0  0  0  0  0  0  0  0
   -1.8938   -1.0929   -2.7100 H   0  0  0  0  0  0  0  0  0  0  0  0
  1  2  1  0
  2  3  1  0
  2  4  1  0
  4  5  1  0
  5  6  1  0
  6  7  1  0
  7  8  1  0
  8  9  1  0
  9 10  1  0
 10 11  2  0
 10 12  1  0
 12 13  1  0
 13 14  2  0
 14 15  1  0
 15 16  1  0
 15 17  1  0
 15 18  1  0
 14 19  1  0
 19 20  1  0
 20 21  1  0
 21 22  1  0
 22 23  2  0
 22 24  1  0
 24 25  1  0
 25 26  2  0
 26 27  1  0
 27 28  2  0
 28 29  1  0
 29 30  1  0
 29 31  2  0
 31 32  1  0
  9 33  1  0
 33 34  1  0
 34 35  1  0
 35 36  2  0
 35  6  1  0
 20 12  2  0
 31 25  1  0
  1 37  1  0
  1 38  1  0
  1 39  1  0
  3 40  1  0
  3 41  1  0
  3 42  1  0
  4 43  1  0
  4 44  1  0
  5 45  1  0
  5 46  1  0
  7 47  1  0
  7 48  1  0
  8 49  1  0
  8 50  1  0
 13 51  1  0
 16 52  1  0
 16 53  1  0
 16 54  1  0
 17 55  1  0
 17 56  1  0
 17 57  1  0
 18 58  1  0
 18 59  1  0
 18 60  1  0
 21 61  1  0
 24 62  1  0
 26 63  1  0
 27 64  1  0
 28 65  1  0
 33 66  1  0
 33 67  1  0
 34 68  1  0
 34 69  1  0
M  END
$$$$
