
     RDKit          3D

 49 50  0  0  0  0  0  0  0  0999 V2000
    2.3291   -1.6265    2.2703 C   0  0  0  0  0  0  0  0  0  0  0  0
    1.7937   -0.2519    1.9216 C   0  0  0  0  0  0  0  0  0  0  0  0
    1.9326    0.6074    3.1748 C   0  0  0  0  0  0  0  0  0  0  0  0
    2.3344    0.3402    0.8127 O   0  0  0  0  0  0  0  0  0  0  0  0
    3.5778    0.7260    0.4476 C   0  0  0  0  0  0  0  0  0  0  0  0
    3.7573    1.3324   -0.8206 C   0  0  0  0  0  0  0  0  0  0  0  0
    4.9959    1.7406   -1.2351 C   0  0  0  0  0  0  0  0  0  0  0  0
    6.0733    1.5462   -0.3835 C   0  0  0  0  0  0  0  0  0  0  0  0
    7.6624    2.0606   -0.9030 Cl  0  0  0  0  0  0  0  0  0  0  0  0
    5.9044    0.9585    0.8453 C   0  0  0  0  0  0  0  0  0  0  0  0
    4.6494    0.5334    1.2920 C   0  0  0  0  0  0  0  0  0  0  0  0
    0.3138   -0.4904    1.6494 C   0  0  0  0  0  0  0  0  0  0  0  0
   -0.4220   -0.9795    2.5097 O   0  0  0  0  0  0  0  0  0  0  0  0
   -0.2211   -0.1517    0.4079 N   0  0  0  0  0  0  0  0  0  0  0  0
   -1.6203   -0.3218    0.0016 C   0  0  0  0  0  0  0  0  0  0  0  0
   -1.7515   -1.3915   -1.0507 C   0  0  0  0  0  0  0  0  0  0  0  0
   -3.0625   -2.0625   -1.1359 C   0  0  0  0  0  0  0  0  0  0  0  0
   -4.2610   -1.2654   -0.8215 C   0  0  0  0  0  0  0  0  0  0  0  0
   -4.7019   -0.3535   -1.9627 C   0  0  0  0  0  0  0  0  0  0  0  0
   -4.1376   -0.7954   -3.2327 C   0  0  0  0  0  0  0  0  0  0  0  0
   -3.6902   -1.1620   -4.2379 N   0  0  0  0  0  0  0  0  0  0  0  0
   -4.3229    1.0695   -1.6202 C   0  0  0  0  0  0  0  0  0  0  0  0
   -2.8011    1.1864   -1.6802 C   0  0  0  0  0  0  0  0  0  0  0  0
   -2.1645    1.0036   -0.3554 C   0  0  0  0  0  0  0  0  0  0  0  0
    1.4904   -2.1924    2.7828 H   0  0  0  0  0  0  0  0  0  0  0  0
    3.1479   -1.6216    2.9902 H   0  0  0  0  0  0  0  0  0  0  0  0
    2.5567   -2.2065    1.3455 H   0  0  0  0  0  0  0  0  0  0  0  0
    2.0048   -0.0591    4.0518 H   0  0  0  0  0  0  0  0  0  0  0  0
    2.7251    1.3649    3.0995 H   0  0  0  0  0  0  0  0  0  0  0  0
    0.9686    1.1746    3.3304 H   0  0  0  0  0  0  0  0  0  0  0  0
    2.8880    1.4745   -1.4730 H   0  0  0  0  0  0  0  0  0  0  0  0
    5.1647    2.2036   -2.1839 H   0  0  0  0  0  0  0  0  0  0  0  0
    6.7363    0.7874    1.5469 H   0  0  0  0  0  0  0  0  0  0  0  0
    4.5653    0.0819    2.2655 H   0  0  0  0  0  0  0  0  0  0  0  0
    0.4165    0.2606   -0.3104 H   0  0  0  0  0  0  0  0  0  0  0  0
   -2.0942   -0.7520    0.9189 H   0  0  0  0  0  0  0  0  0  0  0  0
   -1.3741   -1.0785   -2.0561 H   0  0  0  0  0  0  0  0  0  0  0  0
   -0.9977   -2.1810   -0.7433 H   0  0  0  0  0  0  0  0  0  0  0  0
   -3.1878   -2.4696   -2.1840 H   0  0  0  0  0  0  0  0  0  0  0  0
   -3.0944   -2.9994   -0.5046 H   0  0  0  0  0  0  0  0  0  0  0  0
   -4.2481   -0.6715    0.0838 H   0  0  0  0  0  0  0  0  0  0  0  0
   -5.1346   -1.9768   -0.6847 H   0  0  0  0  0  0  0  0  0  0  0  0
   -5.8081   -0.3497   -2.0825 H   0  0  0  0  0  0  0  0  0  0  0  0
   -4.7839    1.7217   -2.4215 H   0  0  0  0  0  0  0  0  0  0  0  0
   -4.7052    1.3194   -0.6232 H   0  0  0  0  0  0  0  0  0  0  0  0
   -2.6273    2.2533   -2.0215 H   0  0  0  0  0  0  0  0  0  0  0  0
   -2.4576    0.5687   -2.4966 H   0  0  0  0  0  0  0  0  0  0  0  0
   -2.9372    1.2861    0.4189 H   0  0  0  0  0  0  0  0  0  0  0  0
   -1.3818    1.8087   -0.2095 H   0  0  0  0  0  0  0  0  0  0  0  0
  1  2  1  0
  2  3  1  0
  2  4  1  0
  4  5  1  0
  5  6  2  0
  6  7  1  0
  7  8  2  0
  8  9  1  0
  8 10  1  0
 10 11  2  0
  2 12  1  0
 12 13  2  0
 12 14  1  0
 14 15  1  0
 15 16  1  0
 16 17  1  0
 17 18  1  0
 18 19  1  0
 19 20  1  0
 20 21  3  0
 19 22  1  0
 22 23  1  0
 23 24  1  0
 11  5  1  0
 24 15  1  0
  1 25  1  0
  1 26  1  0
  1 27  1  0
  3 28  1  0
  3 29  1  0
  3 30  1  0
  6 31  1  0
  7 32  1  0
 10 33  1  0
 11 34  1  0
 14 35  1  0
 15 36  1  0
 16 37  1  0
 16 38  1  0
 17 39  1  0
 17 40  1  0
 18 41  1  0
 18 42  1  0
 19 43  1  0
 22 44  1  0
 22 45  1  0
 23 46  1  0
 23 47  1  0
 24 48  1  0
 24 49  1  0
M  END
$$$$
