@<TRIPOS>MOLECULE
*****
 49 50 0 0 0
SMALL
GASTEIGER

@<TRIPOS>ATOM
      1 C           2.3291   -1.6265    2.2703 C.3     1  UNL1       -0.0165
      2 C           1.7937   -0.2519    1.9216 C.3     1  UNL1        0.1799
      3 C           1.9326    0.6074    3.1748 C.3     1  UNL1       -0.0165
      4 O           2.3344    0.3402    0.8127 O.3     1  UNL1       -0.4770
      5 C           3.5778    0.7260    0.4476 C.ar    1  UNL1        0.1221
      6 C           3.7573    1.3324   -0.8206 C.ar    1  UNL1       -0.0185
      7 C           4.9959    1.7406   -1.2351 C.ar    1  UNL1       -0.0399
      8 C           6.0733    1.5462   -0.3835 C.ar    1  UNL1        0.0412
      9 CL          7.6624    2.0606   -0.9030 Cl      1  UNL1       -0.0835
     10 C           5.9044    0.9585    0.8453 C.ar    1  UNL1       -0.0399
     11 C           4.6494    0.5334    1.2920 C.ar    1  UNL1       -0.0185
     12 C           0.3138   -0.4904    1.6494 C.2     1  UNL1        0.2566
     13 O          -0.4220   -0.9795    2.5097 O.2     1  UNL1       -0.2714
     14 N          -0.2211   -0.1517    0.4079 N.am    1  UNL1       -0.3092
     15 C          -1.6203   -0.3218    0.0016 C.3     1  UNL1        0.0232
     16 C          -1.7515   -1.3915   -1.0507 C.3     1  UNL1       -0.0345
     17 C          -3.0625   -2.0625   -1.1359 C.3     1  UNL1       -0.0502
     18 C          -4.2610   -1.2654   -0.8215 C.3     1  UNL1       -0.0373
     19 C          -4.7019   -0.3535   -1.9627 C.3     1  UNL1        0.0462
     20 C          -4.1376   -0.7954   -3.2327 C.1     1  UNL1        0.0659
     21 N          -3.6902   -1.1620   -4.2379 N.1     1  UNL1       -0.1963
     22 C          -4.3229    1.0695   -1.6202 C.3     1  UNL1       -0.0373
     23 C          -2.8011    1.1864   -1.6802 C.3     1  UNL1       -0.0502
     24 C          -2.1645    1.0036   -0.3554 C.3     1  UNL1       -0.0345
     25 H           1.4904   -2.1924    2.7828 H       1  UNL1        0.0273
     26 H           3.1479   -1.6216    2.9902 H       1  UNL1        0.0273
     27 H           2.5567   -2.2065    1.3455 H       1  UNL1        0.0273
     28 H           2.0048   -0.0591    4.0518 H       1  UNL1        0.0273
     29 H           2.7251    1.3649    3.0995 H       1  UNL1        0.0273
     30 H           0.9686    1.1746    3.3304 H       1  UNL1        0.0273
     31 H           2.8880    1.4745   -1.4730 H       1  UNL1        0.0654
     32 H           5.1647    2.2036   -2.1839 H       1  UNL1        0.0633
     33 H           6.7363    0.7874    1.5469 H       1  UNL1        0.0633
     34 H           4.5653    0.0819    2.2655 H       1  UNL1        0.0654
     35 H           0.4165    0.2606   -0.3104 H       1  UNL1        0.1491
     36 H          -2.0942   -0.7520    0.9189 H       1  UNL1        0.0498
     37 H          -1.3741   -1.0785   -2.0561 H       1  UNL1        0.0283
     38 H          -0.9977   -2.1810   -0.7433 H       1  UNL1        0.0283
     39 H          -3.1878   -2.4696   -2.1840 H       1  UNL1        0.0266
     40 H          -3.0944   -2.9994   -0.5046 H       1  UNL1        0.0266
     41 H          -4.2481   -0.6715    0.0838 H       1  UNL1        0.0278
     42 H          -5.1346   -1.9768   -0.6847 H       1  UNL1        0.0278
     43 H          -5.8081   -0.3497   -2.0825 H       1  UNL1        0.0454
     44 H          -4.7839    1.7217   -2.4215 H       1  UNL1        0.0278
     45 H          -4.7052    1.3194   -0.6232 H       1  UNL1        0.0278
     46 H          -2.6273    2.2533   -2.0215 H       1  UNL1        0.0266
     47 H          -2.4576    0.5687   -2.4966 H       1  UNL1        0.0266
     48 H          -2.9372    1.2861    0.4189 H       1  UNL1        0.0283
     49 H          -1.3818    1.8087   -0.2095 H       1  UNL1        0.0283
@<TRIPOS>BOND
     1     1     2    1
     2     2     3    1
     3     2     4    1
     4     4     5    1
     5     5     6   ar
     6     6     7   ar
     7     7     8   ar
     8     8     9    1
     9     8    10   ar
    10    10    11   ar
    11     2    12    1
    12    12    13    2
    13    12    14   am
    14    14    15    1
    15    15    16    1
    16    16    17    1
    17    17    18    1
    18    18    19    1
    19    19    20    1
    20    20    21    3
    21    19    22    1
    22    22    23    1
    23    23    24    1
    24    11     5   ar
    25    24    15    1
    26     1    25    1
    27     1    26    1
    28     1    27    1
    29     3    28    1
    30     3    29    1
    31     3    30    1
    32     6    31    1
    33     7    32    1
    34    10    33    1
    35    11    34    1
    36    14    35    1
    37    15    36    1
    38    16    37    1
    39    16    38    1
    40    17    39    1
    41    17    40    1
    42    18    41    1
    43    18    42    1
    44    19    43    1
    45    22    44    1
    46    22    45    1
    47    23    46    1
    48    23    47    1
    49    24    48    1
    50    24    49    1
