
     RDKit          3D

 51 53  0  0  0  0  0  0  0  0999 V2000
   -4.3808    4.7538    0.2470 C   0  0  0  0  0  0  0  0  0  0  0  0
   -4.7071    3.4464    0.6357 O   0  0  0  0  0  0  0  0  0  0  0  0
   -3.8240    2.3984    0.4489 C   0  0  0  0  0  0  0  0  0  0  0  0
   -4.1081    1.1068    0.8162 C   0  0  0  0  0  0  0  0  0  0  0  0
   -3.2165    0.0538    0.6259 C   0  0  0  0  0  0  0  0  0  0  0  0
   -1.9905    0.2928    0.0444 C   0  0  0  0  0  0  0  0  0  0  0  0
   -1.7267    1.6152   -0.3175 C   0  0  0  0  0  0  0  0  0  0  0  0
   -2.6043    2.6532   -0.1303 C   0  0  0  0  0  0  0  0  0  0  0  0
   -0.4615    1.6472   -0.8384 C   0  0  0  0  0  0  0  0  0  0  0  0
    0.2528    2.8668   -1.3625 C   0  0  0  0  0  0  0  0  0  0  0  0
    0.0169    0.3635   -0.7881 C   0  0  0  0  0  0  0  0  0  0  0  0
    1.3513   -0.0132   -1.2611 C   0  0  0  0  0  0  0  0  0  0  0  0
    2.3849    0.3973   -0.2012 C   0  0  0  0  0  0  0  0  0  0  0  0
    3.7027   -0.0043   -0.7256 C   0  0  0  0  0  0  0  0  0  0  0  0
    3.8699   -0.5724   -1.8363 O   0  0  0  0  0  0  0  0  0  0  0  0
    4.8963    0.2449    0.0371 N   0  0  0  0  0  0  0  0  0  0  0  0
    6.4502   -0.2199   -0.5636 S   0  0  0  0  0  6  0  0  0  0  0  0
    7.6700    0.2385    0.6277 C   0  0  0  0  0  0  0  0  0  0  0  0
    6.4418   -1.7307   -0.6531 O   0  0  0  0  0  0  0  0  0  0  0  0
    6.6852    0.4123   -1.8951 O   0  0  0  0  0  0  0  0  0  0  0  0
   -0.9088   -0.4843   -0.2501 N   0  0  0  0  0  0  0  0  0  0  0  0
   -0.7019   -1.8534    0.0263 C   0  0  0  0  0  0  0  0  0  0  0  0
    0.5469   -2.2582   -0.0053 O   0  0  0  0  0  0  0  0  0  0  0  0
   -1.6070   -2.9021    0.3342 C   0  0  0  0  0  0  0  0  0  0  0  0
   -1.2716   -3.9304    1.2257 C   0  0  0  0  0  0  0  0  0  0  0  0
   -2.1006   -4.9891    1.4381 C   0  0  0  0  0  0  0  0  0  0  0  0
   -3.3024   -5.0808    0.7776 C   0  0  0  0  0  0  0  0  0  0  0  0
   -4.3361   -6.4402    1.0688 Cl  0  0  0  0  0  0  0  0  0  0  0  0
   -3.6780   -4.1110   -0.0989 C   0  0  0  0  0  0  0  0  0  0  0  0
   -2.8120   -3.0427   -0.2957 C   0  0  0  0  0  0  0  0  0  0  0  0
   -5.2730    5.4121    0.3065 H   0  0  0  0  0  0  0  0  0  0  0  0
   -4.0434    4.7667   -0.8242 H   0  0  0  0  0  0  0  0  0  0  0  0
   -3.5702    5.1936    0.8888 H   0  0  0  0  0  0  0  0  0  0  0  0
   -5.0552    0.8890    1.2703 H   0  0  0  0  0  0  0  0  0  0  0  0
   -3.4826   -0.9251    0.9669 H   0  0  0  0  0  0  0  0  0  0  0  0
   -2.3568    3.6699   -0.4294 H   0  0  0  0  0  0  0  0  0  0  0  0
   -0.4704    3.5540   -1.8611 H   0  0  0  0  0  0  0  0  0  0  0  0
    0.7460    3.4215   -0.5648 H   0  0  0  0  0  0  0  0  0  0  0  0
    0.9766    2.5790   -2.1694 H   0  0  0  0  0  0  0  0  0  0  0  0
    1.4671   -1.0362   -1.5934 H   0  0  0  0  0  0  0  0  0  0  0  0
    1.5378    0.6166   -2.1924 H   0  0  0  0  0  0  0  0  0  0  0  0
    2.1017   -0.1163    0.7266 H   0  0  0  0  0  0  0  0  0  0  0  0
    2.3083    1.4803   -0.0077 H   0  0  0  0  0  0  0  0  0  0  0  0
    4.7671    0.7160    0.9602 H   0  0  0  0  0  0  0  0  0  0  0  0
    7.6525    1.3443    0.7360 H   0  0  0  0  0  0  0  0  0  0  0  0
    7.3716   -0.1930    1.6035 H   0  0  0  0  0  0  0  0  0  0  0  0
    8.6853   -0.1208    0.3083 H   0  0  0  0  0  0  0  0  0  0  0  0
   -0.3176   -3.8828    1.7670 H   0  0  0  0  0  0  0  0  0  0  0  0
   -1.8119   -5.7826    2.1438 H   0  0  0  0  0  0  0  0  0  0  0  0
   -4.6088   -4.1596   -0.6252 H   0  0  0  0  0  0  0  0  0  0  0  0
   -3.1554   -2.2848   -1.0207 H   0  0  0  0  0  0  0  0  0  0  0  0
  1  2  1  0
  2  3  1  0
  3  4  2  0
  4  5  1  0
  5  6  2  0
  6  7  1  0
  7  8  2  0
  7  9  1  0
  9 10  1  0
  9 11  2  0
 11 12  1  0
 12 13  1  0
 13 14  1  0
 14 15  2  0
 14 16  1  0
 16 17  1  0
 17 18  1  0
 17 19  2  0
 17 20  2  0
 11 21  1  0
 21 22  1  0
 22 23  2  0
 22 24  1  0
 24 25  2  0
 25 26  1  0
 26 27  2  0
 27 28  1  0
 27 29  1  0
 29 30  2  0
  8  3  1  0
 30 24  1  0
 21  6  1  0
  1 31  1  0
  1 32  1  0
  1 33  1  0
  4 34  1  0
  5 35  1  0
  8 36  1  0
 10 37  1  0
 10 38  1  0
 10 39  1  0
 12 40  1  0
 12 41  1  0
 13 42  1  0
 13 43  1  0
 16 44  1  0
 18 45  1  0
 18 46  1  0
 18 47  1  0
 25 48  1  0
 26 49  1  0
 29 50  1  0
 30 51  1  0
M  END
$$$$
