@<TRIPOS>MOLECULE
*****
 51 53 0 0 0
SMALL
GASTEIGER

@<TRIPOS>ATOM
      1 C          -4.3808    4.7538    0.2470 C.3     1  UNL1        0.0788
      2 O          -4.7071    3.4464    0.6357 O.3     1  UNL1       -0.4951
      3 C          -3.8240    2.3984    0.4489 C.ar    1  UNL1        0.1208
      4 C          -4.1081    1.1068    0.8162 C.ar    1  UNL1       -0.0180
      5 C          -3.2165    0.0538    0.6259 C.ar    1  UNL1       -0.0337
      6 C          -1.9905    0.2928    0.0444 C.ar    1  UNL1        0.0574
      7 C          -1.7267    1.6152   -0.3175 C.ar    1  UNL1        0.0069
      8 C          -2.6043    2.6532   -0.1303 C.ar    1  UNL1       -0.0105
      9 C          -0.4615    1.6472   -0.8384 C.ar    1  UNL1       -0.0214
     10 C           0.2528    2.8668   -1.3625 C.3     1  UNL1       -0.0374
     11 C           0.0169    0.3635   -0.7881 C.ar    1  UNL1        0.0312
     12 C           1.3513   -0.0132   -1.2611 C.3     1  UNL1       -0.0033
     13 C           2.3849    0.3973   -0.2012 C.3     1  UNL1        0.0308
     14 C           3.7027   -0.0043   -0.7256 C.2     1  UNL1        0.2320
     15 O           3.8699   -0.5724   -1.8363 O.2     1  UNL1       -0.2742
     16 N           4.8963    0.2449    0.0371 N.am    1  UNL1       -0.1902
     17 S           6.4502   -0.2199   -0.5636 S.O2    1  UNL1        0.0423
     18 C           7.6700    0.2385    0.6277 C.3     1  UNL1        0.0736
     19 O           6.4418   -1.7307   -0.6531 O.2     1  UNL1       -0.1554
     20 O           6.6852    0.4123   -1.8951 O.2     1  UNL1       -0.1554
     21 N          -0.9088   -0.4843   -0.2501 N.ar    1  UNL1       -0.2799
     22 C          -0.7019   -1.8534    0.0263 C.2     1  UNL1        0.2631
     23 O           0.5469   -2.2582   -0.0053 O.2     1  UNL1       -0.2667
     24 C          -1.6070   -2.9021    0.3342 C.ar    1  UNL1        0.0399
     25 C          -1.2716   -3.9304    1.2257 C.ar    1  UNL1       -0.0480
     26 C          -2.1006   -4.9891    1.4381 C.ar    1  UNL1       -0.0427
     27 C          -3.3024   -5.0808    0.7776 C.ar    1  UNL1        0.0410
     28 CL         -4.3361   -6.4402    1.0688 Cl      1  UNL1       -0.0835
     29 C          -3.6780   -4.1110   -0.0989 C.ar    1  UNL1       -0.0427
     30 C          -2.8120   -3.0427   -0.2957 C.ar    1  UNL1       -0.0480
     31 H          -5.2730    5.4121    0.3065 H       1  UNL1        0.0660
     32 H          -4.0434    4.7667   -0.8242 H       1  UNL1        0.0660
     33 H          -3.5702    5.1936    0.8888 H       1  UNL1        0.0660
     34 H          -5.0552    0.8890    1.2703 H       1  UNL1        0.0655
     35 H          -3.4826   -0.9251    0.9669 H       1  UNL1        0.0640
     36 H          -2.3568    3.6699   -0.4294 H       1  UNL1        0.0661
     37 H          -0.4704    3.5540   -1.8611 H       1  UNL1        0.0278
     38 H           0.7460    3.4215   -0.5648 H       1  UNL1        0.0278
     39 H           0.9766    2.5790   -2.1694 H       1  UNL1        0.0278
     40 H           1.4671   -1.0362   -1.5934 H       1  UNL1        0.0332
     41 H           1.5378    0.6166   -2.1924 H       1  UNL1        0.0332
     42 H           2.1017   -0.1163    0.7266 H       1  UNL1        0.0362
     43 H           2.3083    1.4803   -0.0077 H       1  UNL1        0.0362
     44 H           4.7671    0.7160    0.9602 H       1  UNL1        0.1761
     45 H           7.6525    1.3443    0.7360 H       1  UNL1        0.0482
     46 H           7.3716   -0.1930    1.6035 H       1  UNL1        0.0482
     47 H           8.6853   -0.1208    0.3083 H       1  UNL1        0.0482
     48 H          -0.3176   -3.8828    1.7670 H       1  UNL1        0.0626
     49 H          -1.8119   -5.7826    2.1438 H       1  UNL1        0.0632
     50 H          -4.6088   -4.1596   -0.6252 H       1  UNL1        0.0632
     51 H          -3.1554   -2.2848   -1.0207 H       1  UNL1        0.0626
@<TRIPOS>BOND
     1     1     2    1
     2     2     3    1
     3     3     4   ar
     4     4     5   ar
     5     5     6   ar
     6     6     7   ar
     7     7     8   ar
     8     7     9   ar
     9     9    10    1
    10     9    11   ar
    11    11    12    1
    12    12    13    1
    13    13    14    1
    14    14    15    2
    15    14    16   am
    16    16    17    1
    17    17    18    1
    18    17    19    2
    19    17    20    2
    20    11    21   ar
    21    21    22   am
    22    22    23    2
    23    22    24    1
    24    24    25   ar
    25    25    26   ar
    26    26    27   ar
    27    27    28    1
    28    27    29   ar
    29    29    30   ar
    30     8     3   ar
    31    30    24   ar
    32    21     6   ar
    33     1    31    1
    34     1    32    1
    35     1    33    1
    36     4    34    1
    37     5    35    1
    38     8    36    1
    39    10    37    1
    40    10    38    1
    41    10    39    1
    42    12    40    1
    43    12    41    1
    44    13    42    1
    45    13    43    1
    46    16    44    1
    47    18    45    1
    48    18    46    1
    49    18    47    1
    50    25    48    1
    51    26    49    1
    52    29    50    1
    53    30    51    1
