@<TRIPOS>MOLECULE
*****
 49 52 0 0 0
SMALL
GASTEIGER

@<TRIPOS>ATOM
      1 C          -3.8549   -1.1474   -1.8722 C.3     1  UNL1        0.1763
      2 C          -4.2806   -1.7077   -0.5325 C.3     1  UNL1        0.0674
      3 N          -5.0605   -0.7381    0.2404 N.am    1  UNL1       -0.2767
      4 C          -4.1196    0.3321    0.4878 C.3     1  UNL1        0.0457
      5 C          -3.4613    0.6764   -0.8223 C.3     1  UNL1        0.1121
      6 O          -4.2695    0.1994   -1.8682 O.3     1  UNL1       -0.3419
      7 C          -2.1838   -0.0737   -1.0060 C.3     1  UNL1        0.1647
      8 O          -2.4756   -0.9870   -1.9879 O.3     1  UNL1       -0.3346
      9 C          -1.0209    0.7765   -1.3153 C.2     1  UNL1        0.2449
     10 O          -0.4639    0.5529   -2.4170 O.2     1  UNL1       -0.2729
     11 N          -0.5950    1.7711   -0.3958 N.am    1  UNL1       -0.3090
     12 C           0.5426    2.6562   -0.6155 C.3     1  UNL1        0.0369
     13 C           1.7686    1.8708   -0.3522 C.ar    1  UNL1       -0.0303
     14 C           2.2065    1.8605    0.9753 C.ar    1  UNL1       -0.0565
     15 C           3.3439    1.1638    1.3263 C.ar    1  UNL1       -0.0537
     16 C           4.0802    0.4570    0.3725 C.ar    1  UNL1       -0.0179
     17 C           3.6616    0.4561   -0.9465 C.ar    1  UNL1       -0.0537
     18 C           2.5220    1.1627   -1.2603 C.ar    1  UNL1       -0.0565
     19 C           5.2925   -0.3021    0.6577 C.ar    1  UNL1       -0.0179
     20 C           5.5968   -1.4406   -0.0935 C.ar    1  UNL1       -0.0540
     21 C           6.7259   -2.2047    0.1194 C.ar    1  UNL1       -0.0612
     22 C           7.6109   -1.8466    1.1161 C.ar    1  UNL1       -0.0617
     23 C           7.3261   -0.7128    1.8784 C.ar    1  UNL1       -0.0612
     24 C           6.1926    0.0391    1.6514 C.ar    1  UNL1       -0.0540
     25 C          -6.3759   -0.5465    0.7833 C.2     1  UNL1        0.3252
     26 O          -6.7446    0.4810    1.4458 O.2     1  UNL1       -0.2505
     27 N          -7.4302   -1.5030    0.6370 N.am    1  UNL1       -0.1812
     28 O          -8.5484   -1.0340    1.2591 O.3     1  UNL1       -0.2939
     29 H          -4.3005   -1.6835   -2.7265 H       1  UNL1        0.0926
     30 H          -4.9050   -2.6048   -0.7363 H       1  UNL1        0.0515
     31 H          -3.4259   -2.0981    0.0709 H       1  UNL1        0.0515
     32 H          -4.5678    1.2240    0.9687 H       1  UNL1        0.0491
     33 H          -3.2844   -0.0554    1.1430 H       1  UNL1        0.0491
     34 H          -3.3828    1.7614   -0.9085 H       1  UNL1        0.0644
     35 H          -1.9473   -0.6344   -0.0784 H       1  UNL1        0.0721
     36 H          -1.1660    1.8464    0.4997 H       1  UNL1        0.1491
     37 H           0.4511    3.4876    0.1105 H       1  UNL1        0.0512
     38 H           0.5266    3.0593   -1.6549 H       1  UNL1        0.0512
     39 H           1.6813    2.3873    1.7644 H       1  UNL1        0.0621
     40 H           3.7239    1.1246    2.3393 H       1  UNL1        0.0624
     41 H           4.1645   -0.0562   -1.7355 H       1  UNL1        0.0624
     42 H           2.1800    1.1795   -2.2827 H       1  UNL1        0.0621
     43 H           4.9257   -1.7569   -0.8870 H       1  UNL1        0.0624
     44 H           6.9499   -3.0790   -0.4659 H       1  UNL1        0.0618
     45 H           8.5109   -2.4185    1.3159 H       1  UNL1        0.0618
     46 H           7.9873   -0.3894    2.6706 H       1  UNL1        0.0618
     47 H           5.9332    0.9325    2.2253 H       1  UNL1        0.0624
     48 H          -7.2313   -2.3810    0.1093 H       1  UNL1        0.1838
     49 H          -8.8090   -0.1844    0.7926 H       1  UNL1        0.2414
@<TRIPOS>BOND
     1     1     2    1
     2     2     3    1
     3     3     4    1
     4     4     5    1
     5     5     6    1
     6     5     7    1
     7     7     8    1
     8     7     9    1
     9     9    10    2
    10     9    11   am
    11    11    12    1
    12    12    13    1
    13    13    14   ar
    14    14    15   ar
    15    15    16   ar
    16    16    17   ar
    17    17    18   ar
    18    16    19    1
    19    19    20   ar
    20    20    21   ar
    21    21    22   ar
    22    22    23   ar
    23    23    24   ar
    24     3    25   am
    25    25    26    2
    26    25    27   am
    27    27    28    1
    28     6     1    1
    29    18    13   ar
    30    24    19   ar
    31     8     1    1
    32     1    29    1
    33     2    30    1
    34     2    31    1
    35     4    32    1
    36     4    33    1
    37     5    34    1
    38     7    35    1
    39    11    36    1
    40    12    37    1
    41    12    38    1
    42    14    39    1
    43    15    40    1
    44    17    41    1
    45    18    42    1
    46    20    43    1
    47    21    44    1
    48    22    45    1
    49    23    46    1
    50    24    47    1
    51    27    48    1
    52    28    49    1
