@<TRIPOS>MOLECULE
*****
 70 76 0 0 0
SMALL
GASTEIGER

@<TRIPOS>ATOM
      1 O          -0.3934   -2.9521   -2.0807 O.2     1  UNL1       -0.2662
      2 C           0.1278   -2.1102   -1.2996 C.2     1  UNL1        0.2867
      3 C           1.4415   -2.3432   -0.7759 C.ar    1  UNL1        0.1939
      4 O           2.1539   -3.3755   -1.1381 O.2     1  UNL1       -0.4499
      5 C           3.3135   -3.3810   -0.5309 C.ar    1  UNL1        0.1362
      6 C           4.3860   -4.3684   -0.6686 C.ar    1  UNL1        0.0174
      7 C           5.5678   -4.2658    0.0222 C.ar    1  UNL1       -0.0497
      8 C           6.5657   -5.2214   -0.1152 C.ar    1  UNL1       -0.0427
      9 C           6.3789   -6.2883   -0.9510 C.ar    1  UNL1        0.0410
     10 CL          7.6247   -7.5098   -1.1343 Cl      1  UNL1       -0.0835
     11 C           5.1937   -6.4203   -1.6637 C.ar    1  UNL1       -0.0427
     12 C           4.2073   -5.4447   -1.5065 C.ar    1  UNL1       -0.0497
     13 C           3.3549   -2.2606    0.2901 C.ar    1  UNL1       -0.0116
     14 C           2.1411   -1.5792    0.1381 C.ar    1  UNL1        0.0079
     15 C           1.8432   -0.3589    0.8735 C.3     1  UNL1        0.0032
     16 C           0.8497    0.5577    0.3082 C.ar    1  UNL1       -0.0198
     17 C           1.1308    1.8739    0.7119 C.ar    1  UNL1       -0.0354
     18 C           0.3290    2.9168    0.3204 C.ar    1  UNL1        0.0301
     19 N           0.6386    4.2385    0.7510 N.pl3   1  UNL1       -0.3275
     20 C           1.8313    4.4711    1.5600 C.3     1  UNL1        0.0248
     21 C           1.7357    5.8299    2.2310 C.3     1  UNL1        0.0117
     22 N           1.5929    6.9002    1.2980 N.3     1  UNL1       -0.3130
     23 C           0.8185    6.5373    0.1359 C.3     1  UNL1        0.0117
     24 C          -0.1478    5.4115    0.4571 C.3     1  UNL1        0.0248
     25 C          -0.7443    2.6262   -0.4729 C.ar    1  UNL1       -0.0389
     26 C          -1.0442    1.3439   -0.8858 C.ar    1  UNL1       -0.0382
     27 C          -0.2565    0.2811   -0.5055 C.ar    1  UNL1        0.0406
     28 N          -0.7156   -0.9583   -1.0193 N.am    1  UNL1       -0.2603
     29 C          -2.1028   -1.1458   -1.2920 C.3     1  UNL1        0.0458
     30 C          -2.7978   -1.6517   -0.0456 C.ar    1  UNL1       -0.0220
     31 C          -2.1157   -2.4847    0.8301 C.ar    1  UNL1       -0.0565
     32 C          -2.7932   -2.8887    1.9671 C.ar    1  UNL1       -0.0614
     33 C          -4.0903   -2.4994    2.2483 C.ar    1  UNL1       -0.0612
     34 C          -4.7113   -1.6742    1.3412 C.ar    1  UNL1       -0.0537
     35 C          -4.0872   -1.2270    0.1707 C.ar    1  UNL1       -0.0117
     36 C          -4.8531   -0.3875   -0.7577 C.ar    1  UNL1        0.0005
     37 C          -5.4680    0.7334   -0.2074 C.ar    1  UNL1       -0.0511
     38 C          -6.2362    1.5989   -0.9719 C.ar    1  UNL1       -0.0430
     39 C          -6.3517    1.2714   -2.3255 C.ar    1  UNL1        0.0276
     40 N          -5.7583    0.1911   -2.8532 N.ar    1  UNL1       -0.2627
     41 C          -5.0212   -0.6232   -2.0791 C.ar    1  UNL1        0.0353
     42 H           5.7246   -3.4174    0.6901 H       1  UNL1        0.0625
     43 H           7.4860   -5.1371    0.4287 H       1  UNL1        0.0632
     44 H           5.0539   -7.2786   -2.3292 H       1  UNL1        0.0632
     45 H           3.2741   -5.5183   -2.0487 H       1  UNL1        0.0625
     46 H           4.1854   -1.9678    0.9344 H       1  UNL1        0.0658
     47 H           1.6204   -0.5918    1.9595 H       1  UNL1        0.0363
     48 H           2.8174    0.2139    0.9356 H       1  UNL1        0.0363
     49 H           2.0096    2.0065    1.3424 H       1  UNL1        0.0639
     50 H           2.6920    4.5044    0.8556 H       1  UNL1        0.0476
     51 H           1.9597    3.7434    2.3674 H       1  UNL1        0.0476
     52 H           2.6517    6.0280    2.8497 H       1  UNL1        0.0439
     53 H           0.8700    5.8328    2.9466 H       1  UNL1        0.0439
     54 H           1.3444    7.8046    1.7008 H       1  UNL1        0.1220
     55 H           1.5068    6.2911   -0.6877 H       1  UNL1        0.0439
     56 H           0.2913    7.4648   -0.1806 H       1  UNL1        0.0439
     57 H          -0.6715    5.7147    1.4034 H       1  UNL1        0.0476
     58 H          -0.8245    5.2602   -0.3767 H       1  UNL1        0.0476
     59 H          -1.4015    3.4105   -0.8045 H       1  UNL1        0.0637
     60 H          -1.8835    1.1731   -1.5115 H       1  UNL1        0.0637
     61 H          -2.2101   -2.0262   -2.0082 H       1  UNL1        0.0518
     62 H          -2.6897   -0.3029   -1.6415 H       1  UNL1        0.0518
     63 H          -1.0937   -2.8088    0.6388 H       1  UNL1        0.0621
     64 H          -2.2761   -3.5357    2.6589 H       1  UNL1        0.0618
     65 H          -4.6452   -2.7982    3.1231 H       1  UNL1        0.0618
     66 H          -5.7345   -1.3383    1.5113 H       1  UNL1        0.0624
     67 H          -5.3795    0.9841    0.8511 H       1  UNL1        0.0625
     68 H          -6.7215    2.4746   -0.5622 H       1  UNL1        0.0633
     69 H          -6.9591    1.9682   -2.9000 H       1  UNL1        0.0829
     70 H          -4.5346   -1.5170   -2.5092 H       1  UNL1        0.0836
@<TRIPOS>BOND
     1     1     2    2
     2     2     3    1
     3     3     4   ar
     4     4     5   ar
     5     5     6    1
     6     6     7   ar
     7     7     8   ar
     8     8     9   ar
     9     9    10    1
    10     9    11   ar
    11    11    12   ar
    12     5    13   ar
    13    13    14   ar
    14    14    15    1
    15    15    16    1
    16    16    17   ar
    17    17    18   ar
    18    18    19    1
    19    19    20    1
    20    20    21    1
    21    21    22    1
    22    22    23    1
    23    23    24    1
    24    18    25   ar
    25    25    26   ar
    26    26    27   ar
    27    27    28    1
    28    28    29    1
    29    29    30    1
    30    30    31   ar
    31    31    32   ar
    32    32    33   ar
    33    33    34   ar
    34    34    35   ar
    35    35    36    1
    36    36    37   ar
    37    37    38   ar
    38    38    39   ar
    39    39    40   ar
    40    40    41   ar
    41    28     2   am
    42    35    30   ar
    43    41    36   ar
    44    14     3   ar
    45    27    16   ar
    46    12     6   ar
    47    24    19    1
    48     7    42    1
    49     8    43    1
    50    11    44    1
    51    12    45    1
    52    13    46    1
    53    15    47    1
    54    15    48    1
    55    17    49    1
    56    20    50    1
    57    20    51    1
    58    21    52    1
    59    21    53    1
    60    22    54    1
    61    23    55    1
    62    23    56    1
    63    24    57    1
    64    24    58    1
    65    25    59    1
    66    26    60    1
    67    29    61    1
    68    29    62    1
    69    31    63    1
    70    32    64    1
    71    33    65    1
    72    34    66    1
    73    37    67    1
    74    38    68    1
    75    39    69    1
    76    41    70    1
