
     RDKit          3D

 44 46  0  0  0  0  0  0  0  0999 V2000
    2.9167   -1.7961   -3.6320 C   0  0  0  0  0  0  0  0  0  0  0  0
    2.2362   -2.0409   -2.4125 O   0  0  0  0  0  0  0  0  0  0  0  0
    2.5034   -1.2051   -1.3222 C   0  0  0  0  0  0  0  0  0  0  0  0
    3.3977   -0.1636   -1.3984 C   0  0  0  0  0  0  0  0  0  0  0  0
    3.6583    0.6581   -0.3212 C   0  0  0  0  0  0  0  0  0  0  0  0
    3.0228    0.4671    0.8980 C   0  0  0  0  0  0  0  0  0  0  0  0
    3.2836    1.3219    2.0455 C   0  0  0  0  0  0  0  0  0  0  0  0
    4.2370    2.4523    2.0009 C   0  0  0  0  0  0  0  0  0  0  0  0
    2.6709    1.0827    3.1100 O   0  0  0  0  0  0  0  0  0  0  0  0
    2.1293   -0.5838    0.9521 C   0  0  0  0  0  0  0  0  0  0  0  0
    1.8623   -1.4093   -0.1170 C   0  0  0  0  0  0  0  0  0  0  0  0
    0.8976   -2.5197   -0.0015 C   0  0  0  0  0  0  0  0  0  0  0  0
   -0.6570   -2.1189   -0.8073 S   0  0  0  0  0  0  0  0  0  0  0  0
   -1.4233   -0.7848    0.0970 C   0  0  0  0  0  0  0  0  0  0  0  0
   -1.0028   -0.1306    1.1881 N   0  0  0  0  0  0  0  0  0  0  0  0
   -1.9252    0.8115    1.5208 C   0  0  0  0  0  0  0  0  0  0  0  0
   -2.0396    1.7595    2.5153 C   0  0  0  0  0  0  0  0  0  0  0  0
   -3.1178    2.6121    2.6194 C   0  0  0  0  0  0  0  0  0  0  0  0
   -4.1181    2.5088    1.6904 C   0  0  0  0  0  0  0  0  0  0  0  0
   -4.0344    1.5783    0.6912 C   0  0  0  0  0  0  0  0  0  0  0  0
   -2.9465    0.7242    0.5931 C   0  0  0  0  0  0  0  0  0  0  0  0
   -2.6125   -0.2592   -0.2640 N   0  0  0  0  0  0  0  0  0  0  0  0
   -3.4308   -0.6578   -1.3830 C   0  0  0  0  0  0  0  0  0  0  0  0
   -4.3931   -1.7340   -0.9970 C   0  0  0  0  0  0  0  0  0  0  0  0
   -5.1558   -2.1576   -1.9043 O   0  0  0  0  0  0  0  0  0  0  0  0
   -4.4337   -2.2367    0.3119 O   0  0  0  0  0  0  0  0  0  0  0  0
    2.5784   -2.4713   -4.4373 H   0  0  0  0  0  0  0  0  0  0  0  0
    4.0167   -1.9487   -3.5376 H   0  0  0  0  0  0  0  0  0  0  0  0
    2.7553   -0.7274   -3.8862 H   0  0  0  0  0  0  0  0  0  0  0  0
    3.8986   -0.0134   -2.3587 H   0  0  0  0  0  0  0  0  0  0  0  0
    4.3735    1.4739   -0.4182 H   0  0  0  0  0  0  0  0  0  0  0  0
    5.1055    2.1569    1.3565 H   0  0  0  0  0  0  0  0  0  0  0  0
    4.6763    2.6484    3.0033 H   0  0  0  0  0  0  0  0  0  0  0  0
    3.8087    3.3660    1.5490 H   0  0  0  0  0  0  0  0  0  0  0  0
    1.6280   -0.7323    1.9181 H   0  0  0  0  0  0  0  0  0  0  0  0
    1.3072   -3.4296   -0.5082 H   0  0  0  0  0  0  0  0  0  0  0  0
    0.7209   -2.7262    1.0870 H   0  0  0  0  0  0  0  0  0  0  0  0
   -1.2396    1.8225    3.2366 H   0  0  0  0  0  0  0  0  0  0  0  0
   -3.1854    3.3531    3.4137 H   0  0  0  0  0  0  0  0  0  0  0  0
   -4.9715    3.1474    1.7313 H   0  0  0  0  0  0  0  0  0  0  0  0
   -4.8045    1.4548   -0.0740 H   0  0  0  0  0  0  0  0  0  0  0  0
   -4.0650    0.1816   -1.7661 H   0  0  0  0  0  0  0  0  0  0  0  0
   -2.8467   -1.0448   -2.2388 H   0  0  0  0  0  0  0  0  0  0  0  0
   -5.2818   -2.6891    0.6325 H   0  0  0  0  0  0  0  0  0  0  0  0
  1  2  1  0
  2  3  1  0
  3  4  2  0
  4  5  1  0
  5  6  2  0
  6  7  1  0
  7  8  1  0
  7  9  2  0
  6 10  1  0
 10 11  2  0
 11 12  1  0
 12 13  1  0
 13 14  1  0
 14 15  2  0
 15 16  1  0
 16 17  2  0
 17 18  1  0
 18 19  2  0
 19 20  1  0
 20 21  2  0
 21 22  1  0
 22 23  1  0
 23 24  1  0
 24 25  2  0
 24 26  1  0
 11  3  1  0
 22 14  1  0
 21 16  1  0
  1 27  1  0
  1 28  1  0
  1 29  1  0
  4 30  1  0
  5 31  1  0
  8 32  1  0
  8 33  1  0
  8 34  1  0
 10 35  1  0
 12 36  1  0
 12 37  1  0
 17 38  1  0
 18 39  1  0
 19 40  1  0
 20 41  1  0
 23 42  1  0
 23 43  1  0
 26 44  1  0
M  END
$$$$
