@<TRIPOS>MOLECULE
*****
 44 46 0 0 0
SMALL
GASTEIGER

@<TRIPOS>ATOM
      1 C           2.9167   -1.7961   -3.6320 C.3     1  UNL1        0.0788
      2 O           2.2362   -2.0409   -2.4125 O.3     1  UNL1       -0.4948
      3 C           2.5034   -1.2051   -1.3222 C.ar    1  UNL1        0.1241
      4 C           3.3977   -0.1636   -1.3984 C.ar    1  UNL1       -0.0190
      5 C           3.6583    0.6581   -0.3212 C.ar    1  UNL1       -0.0478
      6 C           3.0228    0.4671    0.8980 C.ar    1  UNL1        0.0176
      7 C           3.2836    1.3219    2.0455 C.2     1  UNL1        0.1601
      8 C           4.2370    2.4523    2.0009 C.3     1  UNL1       -0.0014
      9 O           2.6709    1.0827    3.1100 O.2     1  UNL1       -0.2924
     10 C           2.1293   -0.5838    0.9521 C.ar    1  UNL1       -0.0438
     11 C           1.8623   -1.4093   -0.1170 C.ar    1  UNL1        0.0051
     12 C           0.8976   -2.5197   -0.0015 C.3     1  UNL1        0.0297
     13 S          -0.6570   -2.1189   -0.8073 S.3     1  UNL1       -0.0828
     14 C          -1.4233   -0.7848    0.0970 C.ar    1  UNL1        0.1707
     15 N          -1.0028   -0.1306    1.1881 N.ar    1  UNL1       -0.2218
     16 C          -1.9252    0.8115    1.5208 C.ar    1  UNL1        0.0902
     17 C          -2.0396    1.7595    2.5153 C.ar    1  UNL1       -0.0342
     18 C          -3.1178    2.6121    2.6194 C.ar    1  UNL1       -0.0596
     19 C          -4.1181    2.5088    1.6904 C.ar    1  UNL1       -0.0597
     20 C          -4.0344    1.5783    0.6912 C.ar    1  UNL1       -0.0360
     21 C          -2.9465    0.7242    0.5931 C.ar    1  UNL1        0.0700
     22 N          -2.6125   -0.2592   -0.2640 N.ar    1  UNL1       -0.3078
     23 C          -3.4308   -0.6578   -1.3830 C.3     1  UNL1        0.1226
     24 C          -4.3931   -1.7340   -0.9970 C.2     1  UNL1        0.3248
     25 O          -5.1558   -2.1576   -1.9043 O.2     1  UNL1       -0.2490
     26 O          -4.4337   -2.2367    0.3119 O.3     1  UNL1       -0.4794
     27 H           2.5784   -2.4713   -4.4373 H       1  UNL1        0.0660
     28 H           4.0167   -1.9487   -3.5376 H       1  UNL1        0.0660
     29 H           2.7553   -0.7274   -3.8862 H       1  UNL1        0.0660
     30 H           3.8986   -0.0134   -2.3587 H       1  UNL1        0.0654
     31 H           4.3735    1.4739   -0.4182 H       1  UNL1        0.0626
     32 H           5.1055    2.1569    1.3565 H       1  UNL1        0.0309
     33 H           4.6763    2.6484    3.0033 H       1  UNL1        0.0309
     34 H           3.8087    3.3660    1.5490 H       1  UNL1        0.0309
     35 H           1.6280   -0.7323    1.9181 H       1  UNL1        0.0629
     36 H           1.3072   -3.4296   -0.5082 H       1  UNL1        0.0430
     37 H           0.7209   -2.7262    1.0870 H       1  UNL1        0.0430
     38 H          -1.2396    1.8225    3.2366 H       1  UNL1        0.0639
     39 H          -3.1854    3.3531    3.4137 H       1  UNL1        0.0618
     40 H          -4.9715    3.1474    1.7313 H       1  UNL1        0.0618
     41 H          -4.8045    1.4548   -0.0740 H       1  UNL1        0.0639
     42 H          -4.0650    0.1816   -1.7661 H       1  UNL1        0.0608
     43 H          -2.8467   -1.0448   -2.2388 H       1  UNL1        0.0608
     44 H          -5.2818   -2.6891    0.6325 H       1  UNL1        0.2951
@<TRIPOS>BOND
     1     1     2    1
     2     2     3    1
     3     3     4   ar
     4     4     5   ar
     5     5     6   ar
     6     6     7    1
     7     7     8    1
     8     7     9    2
     9     6    10   ar
    10    10    11   ar
    11    11    12    1
    12    12    13    1
    13    13    14    1
    14    14    15   ar
    15    15    16   ar
    16    16    17   ar
    17    17    18   ar
    18    18    19   ar
    19    19    20   ar
    20    20    21   ar
    21    21    22   ar
    22    22    23    1
    23    23    24    1
    24    24    25    2
    25    24    26    1
    26    11     3   ar
    27    22    14   ar
    28    21    16   ar
    29     1    27    1
    30     1    28    1
    31     1    29    1
    32     4    30    1
    33     5    31    1
    34     8    32    1
    35     8    33    1
    36     8    34    1
    37    10    35    1
    38    12    36    1
    39    12    37    1
    40    17    38    1
    41    18    39    1
    42    19    40    1
    43    20    41    1
    44    23    42    1
    45    23    43    1
    46    26    44    1
