@<TRIPOS>MOLECULE
*****
 67 71 0 0 0
SMALL
GASTEIGER

@<TRIPOS>ATOM
      1 C           5.1099    3.6352   -1.1012 C.3     1  UNL1       -0.0391
      2 C           3.8566    2.8637   -1.0600 C.ar    1  UNL1       -0.0426
      3 C           2.6689    3.5303   -1.3904 C.ar    1  UNL1       -0.0565
      4 C           1.4739    2.8689   -1.3628 C.ar    1  UNL1       -0.0402
      5 C           1.4436    1.5338   -1.0057 C.ar    1  UNL1        0.0343
      6 N           0.2118    0.8027   -0.9645 N.am    1  UNL1       -0.2815
      7 C          -0.6003    0.7049    0.1652 C.2     1  UNL1        0.2483
      8 O          -0.2149    1.3044    1.2167 O.2     1  UNL1       -0.2699
      9 C          -1.8610   -0.0254    0.2587 C.ar    1  UNL1        0.0370
     10 C          -2.3182   -0.6902   -0.8574 C.ar    1  UNL1       -0.0493
     11 C          -3.5017   -1.4061   -0.8567 C.ar    1  UNL1       -0.0566
     12 C          -4.2428   -1.4499    0.3066 C.ar    1  UNL1       -0.0333
     13 C          -5.5154   -2.2147    0.3292 C.3     1  UNL1        0.0241
     14 N          -6.6338   -1.4104   -0.0525 N.3     1  UNL1       -0.2957
     15 C          -7.8367   -2.2098   -0.0083 C.3     1  UNL1        0.0120
     16 C          -9.0921   -1.4758   -0.2083 C.3     1  UNL1        0.0114
     17 N          -9.0437   -0.0732   -0.2861 N.3     1  UNL1       -0.3029
     18 C         -10.2335    0.6182    0.1254 C.3     1  UNL1       -0.0127
     19 C          -7.8908    0.5853    0.1804 C.3     1  UNL1        0.0114
     20 C          -6.8557   -0.2856    0.8354 C.3     1  UNL1        0.0120
     21 C          -3.7770   -0.7837    1.4117 C.ar    1  UNL1       -0.0566
     22 C          -2.6005   -0.0693    1.4189 C.ar    1  UNL1       -0.0493
     23 C           2.6235    0.8953   -0.6841 C.ar    1  UNL1       -0.0325
     24 C           3.8552    1.5371   -0.7019 C.ar    1  UNL1       -0.0132
     25 C           5.0901    0.8352   -0.3649 C.ar    1  UNL1       -0.0175
     26 C           6.2106    0.9206   -1.1644 C.ar    1  UNL1       -0.0534
     27 C           7.3799    0.2626   -0.8447 C.ar    1  UNL1       -0.0520
     28 C           7.4810   -0.5094    0.2872 C.ar    1  UNL1        0.0010
     29 C           8.7504   -1.2247    0.6345 C.ar    1  UNL1        0.0802
     30 C           8.8601   -2.0228    1.8017 C.ar    1  UNL1        0.0049
     31 S          10.5229   -2.6194    1.7308 S.2     1  UNL1       -0.0605
     32 C          10.8823   -1.7063    0.1060 C.ar    1  UNL1        0.1561
     33 N          12.2138   -1.8746   -0.4278 N.pl3   1  UNL1       -0.3375
     34 N           9.8645   -1.2025   -0.0646 N.ar    1  UNL1       -0.2252
     35 C           6.3801   -0.6101    1.0980 C.ar    1  UNL1       -0.0520
     36 C           5.1949    0.0582    0.7721 C.ar    1  UNL1       -0.0534
     37 H           4.8985    4.6792   -0.7129 H       1  UNL1        0.0278
     38 H           5.8631    3.2390   -0.4156 H       1  UNL1        0.0278
     39 H           5.4740    3.8263   -2.1390 H       1  UNL1        0.0278
     40 H           2.6994    4.5888   -1.6726 H       1  UNL1        0.0621
     41 H           0.5235    3.3257   -1.6064 H       1  UNL1        0.0636
     42 H          -0.0644    0.3308   -1.8395 H       1  UNL1        0.1551
     43 H          -1.7868   -0.6978   -1.8039 H       1  UNL1        0.0625
     44 H          -3.8407   -1.9256   -1.7605 H       1  UNL1        0.0621
     45 H          -5.4155   -3.0814   -0.3231 H       1  UNL1        0.0476
     46 H          -5.6811   -2.5188    1.3971 H       1  UNL1        0.0476
     47 H          -7.8200   -2.7588    0.9671 H       1  UNL1        0.0439
     48 H          -7.6961   -3.0153   -0.7875 H       1  UNL1        0.0439
     49 H          -9.6023   -1.8650   -1.1381 H       1  UNL1        0.0439
     50 H          -9.8099   -1.7586    0.6174 H       1  UNL1        0.0439
     51 H         -10.9577    0.6298   -0.7177 H       1  UNL1        0.0391
     52 H         -10.6408    0.0673    1.0102 H       1  UNL1        0.0391
     53 H          -9.9540    1.6637    0.3685 H       1  UNL1        0.0391
     54 H          -7.3889    1.1132   -0.6708 H       1  UNL1        0.0439
     55 H          -8.1346    1.4079    0.9113 H       1  UNL1        0.0439
     56 H          -7.2487   -0.6513    1.8045 H       1  UNL1        0.0439
     57 H          -5.9442    0.3343    0.9592 H       1  UNL1        0.0439
     58 H          -4.3532   -0.8128    2.3340 H       1  UNL1        0.0621
     59 H          -2.2208    0.4578    2.2747 H       1  UNL1        0.0625
     60 H           2.6378   -0.1568   -0.3979 H       1  UNL1        0.0642
     61 H           6.1231    1.5328   -2.0662 H       1  UNL1        0.0624
     62 H           8.2387    0.3554   -1.4993 H       1  UNL1        0.0624
     63 H           8.0903   -2.2191    2.5646 H       1  UNL1        0.0716
     64 H          12.8717   -1.0932   -0.5567 H       1  UNL1        0.1442
     65 H          12.4929   -2.8325   -0.6839 H       1  UNL1        0.1442
     66 H           6.4407   -1.2169    1.9986 H       1  UNL1        0.0624
     67 H           4.3499   -0.0408    1.4281 H       1  UNL1        0.0624
@<TRIPOS>BOND
     1     1     2    1
     2     2     3   ar
     3     3     4   ar
     4     4     5   ar
     5     5     6    1
     6     6     7   am
     7     7     8    2
     8     7     9    1
     9     9    10   ar
    10    10    11   ar
    11    11    12   ar
    12    12    13    1
    13    13    14    1
    14    14    15    1
    15    15    16    1
    16    16    17    1
    17    17    18    1
    18    17    19    1
    19    19    20    1
    20    12    21   ar
    21    21    22   ar
    22     5    23   ar
    23    23    24   ar
    24    24    25    1
    25    25    26   ar
    26    26    27   ar
    27    27    28   ar
    28    28    29    1
    29    29    30   ar
    30    30    31   ar
    31    31    32   ar
    32    32    33    1
    33    32    34   ar
    34    28    35   ar
    35    35    36   ar
    36    24     2   ar
    37    36    25   ar
    38    22     9   ar
    39    34    29   ar
    40    20    14    1
    41     1    37    1
    42     1    38    1
    43     1    39    1
    44     3    40    1
    45     4    41    1
    46     6    42    1
    47    10    43    1
    48    11    44    1
    49    13    45    1
    50    13    46    1
    51    15    47    1
    52    15    48    1
    53    16    49    1
    54    16    50    1
    55    18    51    1
    56    18    52    1
    57    18    53    1
    58    19    54    1
    59    19    55    1
    60    20    56    1
    61    20    57    1
    62    21    58    1
    63    22    59    1
    64    23    60    1
    65    26    61    1
    66    27    62    1
    67    30    63    1
    68    33    64    1
    69    33    65    1
    70    35    66    1
    71    36    67    1
