
     RDKit          3D

 67 71  0  0  0  0  0  0  0  0999 V2000
    5.1099    3.6352   -1.1012 C   0  0  0  0  0  0  0  0  0  0  0  0
    3.8566    2.8637   -1.0600 C   0  0  0  0  0  0  0  0  0  0  0  0
    2.6689    3.5303   -1.3904 C   0  0  0  0  0  0  0  0  0  0  0  0
    1.4739    2.8689   -1.3628 C   0  0  0  0  0  0  0  0  0  0  0  0
    1.4436    1.5338   -1.0057 C   0  0  0  0  0  0  0  0  0  0  0  0
    0.2118    0.8027   -0.9645 N   0  0  0  0  0  0  0  0  0  0  0  0
   -0.6003    0.7049    0.1652 C   0  0  0  0  0  0  0  0  0  0  0  0
   -0.2149    1.3044    1.2167 O   0  0  0  0  0  0  0  0  0  0  0  0
   -1.8610   -0.0254    0.2587 C   0  0  0  0  0  0  0  0  0  0  0  0
   -2.3182   -0.6902   -0.8574 C   0  0  0  0  0  0  0  0  0  0  0  0
   -3.5017   -1.4061   -0.8567 C   0  0  0  0  0  0  0  0  0  0  0  0
   -4.2428   -1.4499    0.3066 C   0  0  0  0  0  0  0  0  0  0  0  0
   -5.5154   -2.2147    0.3292 C   0  0  0  0  0  0  0  0  0  0  0  0
   -6.6338   -1.4104   -0.0525 N   0  0  0  0  0  0  0  0  0  0  0  0
   -7.8367   -2.2098   -0.0083 C   0  0  0  0  0  0  0  0  0  0  0  0
   -9.0921   -1.4758   -0.2083 C   0  0  0  0  0  0  0  0  0  0  0  0
   -9.0437   -0.0732   -0.2861 N   0  0  0  0  0  0  0  0  0  0  0  0
  -10.2335    0.6182    0.1254 C   0  0  0  0  0  0  0  0  0  0  0  0
   -7.8908    0.5853    0.1804 C   0  0  0  0  0  0  0  0  0  0  0  0
   -6.8557   -0.2856    0.8354 C   0  0  0  0  0  0  0  0  0  0  0  0
   -3.7770   -0.7837    1.4117 C   0  0  0  0  0  0  0  0  0  0  0  0
   -2.6005   -0.0693    1.4189 C   0  0  0  0  0  0  0  0  0  0  0  0
    2.6235    0.8953   -0.6841 C   0  0  0  0  0  0  0  0  0  0  0  0
    3.8552    1.5371   -0.7019 C   0  0  0  0  0  0  0  0  0  0  0  0
    5.0901    0.8352   -0.3649 C   0  0  0  0  0  0  0  0  0  0  0  0
    6.2106    0.9206   -1.1644 C   0  0  0  0  0  0  0  0  0  0  0  0
    7.3799    0.2626   -0.8447 C   0  0  0  0  0  0  0  0  0  0  0  0
    7.4810   -0.5094    0.2872 C   0  0  0  0  0  0  0  0  0  0  0  0
    8.7504   -1.2247    0.6345 C   0  0  0  0  0  0  0  0  0  0  0  0
    8.8601   -2.0228    1.8017 C   0  0  0  0  0  0  0  0  0  0  0  0
   10.5229   -2.6194    1.7308 S   0  0  0  0  0  0  0  0  0  0  0  0
   10.8823   -1.7063    0.1060 C   0  0  0  0  0  0  0  0  0  0  0  0
   12.2138   -1.8746   -0.4278 N   0  0  0  0  0  0  0  0  0  0  0  0
    9.8645   -1.2025   -0.0646 N   0  0  0  0  0  0  0  0  0  0  0  0
    6.3801   -0.6101    1.0980 C   0  0  0  0  0  0  0  0  0  0  0  0
    5.1949    0.0582    0.7721 C   0  0  0  0  0  0  0  0  0  0  0  0
    4.8985    4.6792   -0.7129 H   0  0  0  0  0  0  0  0  0  0  0  0
    5.8631    3.2390   -0.4156 H   0  0  0  0  0  0  0  0  0  0  0  0
    5.4740    3.8263   -2.1390 H   0  0  0  0  0  0  0  0  0  0  0  0
    2.6994    4.5888   -1.6726 H   0  0  0  0  0  0  0  0  0  0  0  0
    0.5235    3.3257   -1.6064 H   0  0  0  0  0  0  0  0  0  0  0  0
   -0.0644    0.3308   -1.8395 H   0  0  0  0  0  0  0  0  0  0  0  0
   -1.7868   -0.6978   -1.8039 H   0  0  0  0  0  0  0  0  0  0  0  0
   -3.8407   -1.9256   -1.7605 H   0  0  0  0  0  0  0  0  0  0  0  0
   -5.4155   -3.0814   -0.3231 H   0  0  0  0  0  0  0  0  0  0  0  0
   -5.6811   -2.5188    1.3971 H   0  0  0  0  0  0  0  0  0  0  0  0
   -7.8200   -2.7588    0.9671 H   0  0  0  0  0  0  0  0  0  0  0  0
   -7.6961   -3.0153   -0.7875 H   0  0  0  0  0  0  0  0  0  0  0  0
   -9.6023   -1.8650   -1.1381 H   0  0  0  0  0  0  0  0  0  0  0  0
   -9.8099   -1.7586    0.6174 H   0  0  0  0  0  0  0  0  0  0  0  0
  -10.9577    0.6298   -0.7177 H   0  0  0  0  0  0  0  0  0  0  0  0
  -10.6408    0.0673    1.0102 H   0  0  0  0  0  0  0  0  0  0  0  0
   -9.9540    1.6637    0.3685 H   0  0  0  0  0  0  0  0  0  0  0  0
   -7.3889    1.1132   -0.6708 H   0  0  0  0  0  0  0  0  0  0  0  0
   -8.1346    1.4079    0.9113 H   0  0  0  0  0  0  0  0  0  0  0  0
   -7.2487   -0.6513    1.8045 H   0  0  0  0  0  0  0  0  0  0  0  0
   -5.9442    0.3343    0.9592 H   0  0  0  0  0  0  0  0  0  0  0  0
   -4.3532   -0.8128    2.3340 H   0  0  0  0  0  0  0  0  0  0  0  0
   -2.2208    0.4578    2.2747 H   0  0  0  0  0  0  0  0  0  0  0  0
    2.6378   -0.1568   -0.3979 H   0  0  0  0  0  0  0  0  0  0  0  0
    6.1231    1.5328   -2.0662 H   0  0  0  0  0  0  0  0  0  0  0  0
    8.2387    0.3554   -1.4993 H   0  0  0  0  0  0  0  0  0  0  0  0
    8.0903   -2.2191    2.5646 H   0  0  0  0  0  0  0  0  0  0  0  0
   12.8717   -1.0932   -0.5567 H   0  0  0  0  0  0  0  0  0  0  0  0
   12.4929   -2.8325   -0.6839 H   0  0  0  0  0  0  0  0  0  0  0  0
    6.4407   -1.2169    1.9986 H   0  0  0  0  0  0  0  0  0  0  0  0
    4.3499   -0.0408    1.4281 H   0  0  0  0  0  0  0  0  0  0  0  0
  1  2  1  0
  2  3  2  0
  3  4  1  0
  4  5  2  0
  5  6  1  0
  6  7  1  0
  7  8  2  0
  7  9  1  0
  9 10  2  0
 10 11  1  0
 11 12  2  0
 12 13  1  0
 13 14  1  0
 14 15  1  0
 15 16  1  0
 16 17  1  0
 17 18  1  0
 17 19  1  0
 19 20  1  0
 12 21  1  0
 21 22  2  0
  5 23  1  0
 23 24  2  0
 24 25  1  0
 25 26  2  0
 26 27  1  0
 27 28  2  0
 28 29  1  0
 29 30  2  0
 30 31  1  0
 31 32  1  0
 32 33  1  0
 32 34  2  0
 28 35  1  0
 35 36  2  0
 24  2  1  0
 36 25  1  0
 22  9  1  0
 34 29  1  0
 20 14  1  0
  1 37  1  0
  1 38  1  0
  1 39  1  0
  3 40  1  0
  4 41  1  0
  6 42  1  0
 10 43  1  0
 11 44  1  0
 13 45  1  0
 13 46  1  0
 15 47  1  0
 15 48  1  0
 16 49  1  0
 16 50  1  0
 18 51  1  0
 18 52  1  0
 18 53  1  0
 19 54  1  0
 19 55  1  0
 20 56  1  0
 20 57  1  0
 21 58  1  0
 22 59  1  0
 23 60  1  0
 26 61  1  0
 27 62  1  0
 30 63  1  0
 33 64  1  0
 33 65  1  0
 35 66  1  0
 36 67  1  0
M  END
$$$$
