@<TRIPOS>MOLECULE
*****
 41 44 0 0 0
SMALL
GASTEIGER

@<TRIPOS>ATOM
      1 C          -6.4112   -0.7943   -1.0117 C.3     1  UNL1       -0.0307
      2 C          -5.2505   -0.1373   -1.6734 C.3     1  UNL1        0.0869
      3 O          -4.0548   -0.1275   -0.9907 O.3     1  UNL1       -0.4904
      4 C          -3.7462    0.4772    0.1997 C.ar    1  UNL1        0.1415
      5 C          -4.6291    1.2408    0.9380 C.ar    1  UNL1       -0.0181
      6 C          -4.2215    1.8158    2.1318 C.ar    1  UNL1       -0.0582
      7 C          -2.9405    1.6287    2.5836 C.ar    1  UNL1       -0.0598
      8 C          -2.0691    0.8670    1.8408 C.ar    1  UNL1       -0.0369
      9 C          -2.4292    0.2781    0.6525 C.ar    1  UNL1        0.0746
     10 N          -1.5607   -0.5171   -0.1307 N.pl3   1  UNL1       -0.2965
     11 C          -0.2189   -0.7274    0.2865 C.ar    1  UNL1        0.1249
     12 C           0.8110   -0.0917   -0.4086 C.ar    1  UNL1        0.0023
     13 C           2.1412   -0.2464   -0.0736 C.ar    1  UNL1        0.0516
     14 N           3.2921    0.2428   -0.5894 N.ar    1  UNL1       -0.3539
     15 C           4.3561   -0.2340    0.1112 C.ar    1  UNL1        0.0505
     16 C           5.7629    0.0396   -0.1268 C.ar    1  UNL1        0.0355
     17 C           6.2993    0.8624   -1.0857 C.ar    1  UNL1        0.0582
     18 N           7.6510    0.8096   -0.9724 N.ar    1  UNL1       -0.1817
     19 N           7.9913   -0.0073    0.0127 N.ar    1  UNL1       -0.2841
     20 C           6.8362   -0.4912    0.5460 C.ar    1  UNL1        0.0314
     21 C           3.8062   -1.0381    1.0846 C.ar    1  UNL1       -0.0271
     22 C           2.4341   -1.0765    1.0079 C.ar    1  UNL1        0.0185
     23 C           1.4129   -1.6991    1.6895 C.ar    1  UNL1        0.0389
     24 N           0.1352   -1.5175    1.3246 N.ar    1  UNL1       -0.2395
     25 H          -6.6040   -0.5850    0.0275 H       1  UNL1        0.0262
     26 H          -6.3666   -1.9086   -1.1138 H       1  UNL1        0.0262
     27 H          -7.3276   -0.5149   -1.6027 H       1  UNL1        0.0262
     28 H          -5.0827   -0.7142   -2.6349 H       1  UNL1        0.0694
     29 H          -5.5706    0.9164   -1.9564 H       1  UNL1        0.0694
     30 H          -5.6394    1.4136    0.5935 H       1  UNL1        0.0655
     31 H          -4.9350    2.4122    2.6929 H       1  UNL1        0.0619
     32 H          -2.6114    2.0680    3.5104 H       1  UNL1        0.0618
     33 H          -1.0333    0.6971    2.1816 H       1  UNL1        0.0637
     34 H          -1.8785   -0.9645   -1.0207 H       1  UNL1        0.1537
     35 H           0.5898    0.5604   -1.2621 H       1  UNL1        0.0673
     36 H           3.4015    0.8892   -1.4039 H       1  UNL1        0.1659
     37 H           5.8046    1.4714   -1.8264 H       1  UNL1        0.0854
     38 H           8.9765   -0.2006    0.2766 H       1  UNL1        0.1882
     39 H           6.8253   -1.1831    1.3715 H       1  UNL1        0.0830
     40 H           4.4070   -1.5777    1.8257 H       1  UNL1        0.0645
     41 H           1.6468   -2.3361    2.5207 H       1  UNL1        0.0837
@<TRIPOS>BOND
     1     1     2    1
     2     2     3    1
     3     3     4    1
     4     4     5   ar
     5     5     6   ar
     6     6     7   ar
     7     7     8   ar
     8     8     9   ar
     9     9    10    1
    10    10    11    1
    11    11    12   ar
    12    12    13   ar
    13    13    14   ar
    14    14    15   ar
    15    15    16    1
    16    16    17   ar
    17    17    18   ar
    18    18    19   ar
    19    19    20   ar
    20    15    21   ar
    21    21    22   ar
    22    22    23   ar
    23    23    24   ar
    24     9     4   ar
    25    24    11   ar
    26    22    13   ar
    27    20    16   ar
    28     1    25    1
    29     1    26    1
    30     1    27    1
    31     2    28    1
    32     2    29    1
    33     5    30    1
    34     6    31    1
    35     7    32    1
    36     8    33    1
    37    10    34    1
    38    12    35    1
    39    14    36    1
    40    17    37    1
    41    19    38    1
    42    20    39    1
    43    21    40    1
    44    23    41    1
