@<TRIPOS>MOLECULE
*****
 57 61 0 0 0
SMALL
GASTEIGER

@<TRIPOS>ATOM
      1 C          -6.0526   -3.7183    0.3009 C.3     1  UNL1        0.0365
      2 O          -5.2823   -3.4509   -0.8182 O.3     1  UNL1       -0.3827
      3 C          -5.5732   -2.2257   -1.3583 C.3     1  UNL1        0.0502
      4 C          -5.3391   -1.0651   -0.4272 C.3     1  UNL1       -0.0147
      5 C          -5.6762    0.2289   -1.1009 C.3     1  UNL1       -0.0322
      6 C          -4.8734    1.3952   -0.6702 C.3     1  UNL1        0.0140
      7 N          -3.4927    1.1231   -0.3216 N.pl3   1  UNL1       -0.3109
      8 C          -2.7785    2.2072    0.2370 C.ar    1  UNL1        0.1843
      9 N          -3.4860    3.2191    0.8560 N.ar    1  UNL1       -0.2338
     10 C          -2.8891    4.2598    1.4392 C.ar    1  UNL1        0.0480
     11 C          -1.5048    4.3102    1.4132 C.ar    1  UNL1        0.0496
     12 N          -0.8053    3.3337    0.8147 N.ar    1  UNL1       -0.2166
     13 C          -1.4186    2.2601    0.2119 C.ar    1  UNL1        0.2615
     14 O          -0.6574    1.2828   -0.3952 O.3     1  UNL1       -0.4353
     15 C           0.7420    1.3549   -0.3963 C.ar    1  UNL1        0.1306
     16 C           1.4962    0.7698    0.5957 C.ar    1  UNL1       -0.0175
     17 C           2.8867    0.8432    0.5942 C.ar    1  UNL1       -0.0370
     18 C           3.5724    1.4965   -0.3881 C.ar    1  UNL1        0.0330
     19 N           4.9796    1.6098   -0.4914 N.pl3   1  UNL1       -0.2937
     20 C           5.8492    0.5385   -0.0503 C.ar    1  UNL1        0.1634
     21 N           6.9830    0.2726    0.1165 N.ar    1  UNL1       -0.2246
     22 C           7.5225   -0.8478    0.5168 C.ar    1  UNL1        0.0803
     23 C           8.8730   -1.1465    0.7108 C.ar    1  UNL1       -0.0351
     24 C           9.2432   -2.3943    1.1411 C.ar    1  UNL1       -0.0597
     25 C           8.3766   -3.4035    1.4049 C.ar    1  UNL1       -0.0606
     26 C           7.0296   -3.1326    1.2198 C.ar    1  UNL1       -0.0458
     27 C           6.6414   -1.8625    0.7810 C.ar    1  UNL1        0.0408
     28 S           5.0716   -1.1182    0.4284 S.2     1  UNL1       -0.0521
     29 C           2.8079    2.0925   -1.3977 C.ar    1  UNL1       -0.0370
     30 C           1.4309    2.0183   -1.3934 C.ar    1  UNL1       -0.0175
     31 C          -2.9790   -0.1866   -0.5363 C.3     1  UNL1        0.0140
     32 C          -3.9749   -1.1496    0.1289 C.3     1  UNL1       -0.0322
     33 H          -5.8024   -4.7516    0.6971 H       1  UNL1        0.0523
     34 H          -5.7534   -3.0145    1.1361 H       1  UNL1        0.0523
     35 H          -7.1266   -3.6368    0.1374 H       1  UNL1        0.0523
     36 H          -4.9805   -2.0818   -2.2909 H       1  UNL1        0.0562
     37 H          -6.6684   -2.1742   -1.6461 H       1  UNL1        0.0562
     38 H          -6.0660   -1.2045    0.4307 H       1  UNL1        0.0324
     39 H          -5.5614    0.0900   -2.1962 H       1  UNL1        0.0284
     40 H          -6.7507    0.4506   -0.9306 H       1  UNL1        0.0284
     41 H          -4.8203    2.1640   -1.4962 H       1  UNL1        0.0464
     42 H          -5.3166    1.9341    0.1908 H       1  UNL1        0.0464
     43 H          -3.4487    5.0478    1.9228 H       1  UNL1        0.0846
     44 H          -1.0357    5.1573    1.8896 H       1  UNL1        0.0846
     45 H           0.9595    0.2500    1.3762 H       1  UNL1        0.0655
     46 H           3.4084    0.3749    1.4128 H       1  UNL1        0.0637
     47 H           5.4394    2.4690   -0.8899 H       1  UNL1        0.1541
     48 H           9.6656   -0.4223    0.5335 H       1  UNL1        0.0639
     49 H          10.3021   -2.5931    1.2822 H       1  UNL1        0.0618
     50 H           8.6927   -4.3560    1.7366 H       1  UNL1        0.0618
     51 H           6.2465   -3.8520    1.3954 H       1  UNL1        0.0629
     52 H           3.3274    2.6211   -2.1928 H       1  UNL1        0.0637
     53 H           0.8699    2.4870   -2.1848 H       1  UNL1        0.0655
     54 H          -2.0284   -0.3215    0.0421 H       1  UNL1        0.0464
     55 H          -2.8480   -0.4347   -1.6111 H       1  UNL1        0.0464
     56 H          -3.8969   -0.9495    1.2009 H       1  UNL1        0.0284
     57 H          -3.5300   -2.1685   -0.0816 H       1  UNL1        0.0284
@<TRIPOS>BOND
     1     1     2    1
     2     2     3    1
     3     3     4    1
     4     4     5    1
     5     5     6    1
     6     6     7    1
     7     7     8    1
     8     8     9   ar
     9     9    10   ar
    10    10    11   ar
    11    11    12   ar
    12    12    13   ar
    13    13    14    1
    14    14    15    1
    15    15    16   ar
    16    16    17   ar
    17    17    18   ar
    18    18    19    1
    19    19    20    1
    20    20    21   ar
    21    21    22   ar
    22    22    23   ar
    23    23    24   ar
    24    24    25   ar
    25    25    26   ar
    26    26    27   ar
    27    27    28   ar
    28    18    29   ar
    29    29    30   ar
    30     7    31    1
    31    31    32    1
    32    32     4    1
    33    13     8   ar
    34    30    15   ar
    35    28    20   ar
    36    27    22   ar
    37     1    33    1
    38     1    34    1
    39     1    35    1
    40     3    36    1
    41     3    37    1
    42     4    38    1
    43     5    39    1
    44     5    40    1
    45     6    41    1
    46     6    42    1
    47    10    43    1
    48    11    44    1
    49    16    45    1
    50    17    46    1
    51    19    47    1
    52    23    48    1
    53    24    49    1
    54    25    50    1
    55    26    51    1
    56    29    52    1
    57    30    53    1
    58    31    54    1
    59    31    55    1
    60    32    56    1
    61    32    57    1
