
     RDKit          3D

 63 62  0  0  0  0  0  0  0  0999 V2000
   -6.0600    3.0536    1.2959 C   0  0  0  0  0  0  0  0  0  0  0  0
   -5.4004    1.7856    0.8763 C   0  0  0  0  0  0  0  0  0  0  0  0
   -5.9687    0.6723    1.1267 O   0  0  0  0  0  0  0  0  0  0  0  0
   -4.1504    1.8569    0.2058 N   0  0  0  0  0  0  0  0  0  0  0  0
   -3.5028    0.6588   -0.2038 C   0  0  1  0  0  0  0  0  0  0  0  0
   -3.1486    0.6228   -1.6702 C   0  0  0  0  0  0  0  0  0  0  0  0
   -4.3348    0.7467   -2.5726 C   0  0  0  0  0  0  0  0  0  0  0  0
   -5.2939   -0.3922   -2.3141 C   0  0  0  0  0  0  0  0  0  0  0  0
   -3.8453    0.6132   -4.0000 C   0  0  0  0  0  0  0  0  0  0  0  0
   -2.2180    0.5055    0.5378 C   0  0  0  0  0  0  0  0  0  0  0  0
   -1.8058    1.3308    1.3847 O   0  0  0  0  0  0  0  0  0  0  0  0
   -1.4231   -0.6307    0.2715 N   0  0  0  0  0  0  0  0  0  0  0  0
   -0.1592   -0.7607    1.0154 C   0  0  2  0  0  0  0  0  0  0  0  0
    0.9624   -0.9863    0.0727 C   0  0  0  0  0  0  0  0  0  0  0  0
    0.6741   -1.1254   -1.1612 O   0  0  0  0  0  0  0  0  0  0  0  0
    2.3230   -1.0622    0.3970 N   0  0  0  0  0  0  0  0  0  0  0  0
    3.3817   -1.2876   -0.5619 C   0  0  2  0  0  0  0  0  0  0  0  0
    4.0610   -2.5601   -0.2055 C   0  0  0  0  0  0  0  0  0  0  0  0
    5.0005   -2.9270   -0.9128 O   0  0  0  0  0  0  0  0  0  0  0  0
    4.3740   -0.1483   -0.6103 C   0  0  0  0  0  0  0  0  0  0  0  0
    5.0489    0.0907    0.6978 C   0  0  0  0  0  0  0  0  0  0  0  0
    6.0132    1.2448    0.5524 C   0  0  0  0  0  0  0  0  0  0  0  0
    7.0843    0.9737   -0.4925 C   0  0  0  0  0  0  0  0  0  0  0  0
    7.9764    2.1336   -0.5674 N   0  0  0  0  0  0  0  0  0  0  0  0
   -0.3517   -2.0634    1.8036 C   0  0  0  0  0  0  0  0  0  0  0  0
   -1.5832   -1.8937    2.7115 C   0  0  0  0  0  0  0  0  0  0  0  0
    0.8318   -2.4365    2.6317 C   0  0  0  0  0  0  0  0  0  0  0  0
   -5.7153    3.2928    2.3424 H   0  0  0  0  0  0  0  0  0  0  0  0
   -5.7759    3.9111    0.6738 H   0  0  0  0  0  0  0  0  0  0  0  0
   -7.1696    2.9249    1.2821 H   0  0  0  0  0  0  0  0  0  0  0  0
   -3.7241    2.7945    0.0231 H   0  0  0  0  0  0  0  0  0  0  0  0
   -4.1196   -0.2162    0.0847 H   0  0  0  0  0  0  0  0  0  0  0  0
   -2.3621    1.3631   -1.9196 H   0  0  0  0  0  0  0  0  0  0  0  0
   -2.6906   -0.3768   -1.8669 H   0  0  0  0  0  0  0  0  0  0  0  0
   -4.8353    1.7340   -2.5045 H   0  0  0  0  0  0  0  0  0  0  0  0
   -5.7525   -0.7765   -3.2460 H   0  0  0  0  0  0  0  0  0  0  0  0
   -4.8042   -1.2562   -1.8201 H   0  0  0  0  0  0  0  0  0  0  0  0
   -6.1282   -0.0755   -1.6611 H   0  0  0  0  0  0  0  0  0  0  0  0
   -3.3863   -0.3643   -4.2101 H   0  0  0  0  0  0  0  0  0  0  0  0
   -4.6677    0.8399   -4.6992 H   0  0  0  0  0  0  0  0  0  0  0  0
   -3.0290    1.3838   -4.1126 H   0  0  0  0  0  0  0  0  0  0  0  0
   -1.6719   -1.3761   -0.4115 H   0  0  0  0  0  0  0  0  0  0  0  0
    0.0125    0.0620    1.7018 H   0  0  0  0  0  0  0  0  0  0  0  0
    2.6169   -0.9429    1.3861 H   0  0  0  0  0  0  0  0  0  0  0  0
    2.9824   -1.3950   -1.6016 H   0  0  0  0  0  0  0  0  0  0  0  0
    3.7438   -3.1455    0.6442 H   0  0  0  0  0  0  0  0  0  0  0  0
    3.9298    0.7687   -0.9932 H   0  0  0  0  0  0  0  0  0  0  0  0
    5.1568   -0.4787   -1.3489 H   0  0  0  0  0  0  0  0  0  0  0  0
    5.5252   -0.7983    1.1273 H   0  0  0  0  0  0  0  0  0  0  0  0
    4.2725    0.4517    1.4326 H   0  0  0  0  0  0  0  0  0  0  0  0
    5.4643    2.1482    0.1902 H   0  0  0  0  0  0  0  0  0  0  0  0
    6.4654    1.5429    1.5172 H   0  0  0  0  0  0  0  0  0  0  0  0
    6.6482    0.8826   -1.5047 H   0  0  0  0  0  0  0  0  0  0  0  0
    7.7128    0.1043   -0.2520 H   0  0  0  0  0  0  0  0  0  0  0  0
    7.3780    2.9918   -0.4235 H   0  0  0  0  0  0  0  0  0  0  0  0
    8.4506    2.1220   -1.4876 H   0  0  0  0  0  0  0  0  0  0  0  0
   -0.6227   -2.8500    1.0745 H   0  0  0  0  0  0  0  0  0  0  0  0
   -1.9280   -2.8897    3.0555 H   0  0  0  0  0  0  0  0  0  0  0  0
   -2.4211   -1.4473    2.1156 H   0  0  0  0  0  0  0  0  0  0  0  0
   -1.3593   -1.1940    3.5266 H   0  0  0  0  0  0  0  0  0  0  0  0
    1.5608   -2.9721    1.9963 H   0  0  0  0  0  0  0  0  0  0  0  0
    1.2422   -1.5813    3.1948 H   0  0  0  0  0  0  0  0  0  0  0  0
    0.5158   -3.1969    3.4089 H   0  0  0  0  0  0  0  0  0  0  0  0
  1  2  1  0
  2  3  2  0
  2  4  1  0
  4  5  1  0
  5  6  1  0
  6  7  1  0
  7  8  1  0
  7  9  1  0
  5 10  1  0
 10 11  2  0
 10 12  1  0
 12 13  1  0
 13 14  1  0
 14 15  2  0
 14 16  1  0
 16 17  1  0
 17 18  1  0
 18 19  2  0
 17 20  1  0
 20 21  1  0
 21 22  1  0
 22 23  1  0
 23 24  1  0
 13 25  1  0
 25 26  1  0
 25 27  1  0
  1 28  1  0
  1 29  1  0
  1 30  1  0
  4 31  1  0
  5 32  1  6
  6 33  1  0
  6 34  1  0
  7 35  1  0
  8 36  1  0
  8 37  1  0
  8 38  1  0
  9 39  1  0
  9 40  1  0
  9 41  1  0
 12 42  1  0
 13 43  1  1
 16 44  1  0
 17 45  1  6
 18 46  1  0
 20 47  1  0
 20 48  1  0
 21 49  1  0
 21 50  1  0
 22 51  1  0
 22 52  1  0
 23 53  1  0
 23 54  1  0
 24 55  1  0
 24 56  1  0
 25 57  1  0
 26 58  1  0
 26 59  1  0
 26 60  1  0
 27 61  1  0
 27 62  1  0
 27 63  1  0
M  END
$$$$
