@<TRIPOS>MOLECULE
*****
 63 62 0 0 0
SMALL
GASTEIGER

@<TRIPOS>ATOM
      1 C          -6.0600    3.0536    1.2959 C.3     0  UNK0        0.0122
      2 C          -5.4004    1.7856    0.8763 C.2     0  UNK0        0.2105
      3 O          -5.9687    0.6723    1.1267 O.2     0  UNK0       -0.2761
      4 N          -4.1504    1.8569    0.2058 N.am    1  LEU1       -0.3042
      5 CA         -3.5028    0.6588   -0.2038 C.3     1  LEU1        0.0996
      6 CB         -3.1486    0.6228   -1.6702 C.3     1  LEU1       -0.0236
      7 CG         -4.3348    0.7467   -2.5726 C.3     1  LEU1       -0.0446
      8 CD1        -5.2939   -0.3922   -2.3141 C.3     1  LEU1       -0.0626
      9 CD2        -3.8453    0.6132   -4.0000 C.3     1  LEU1       -0.0626
     10 C          -2.2180    0.5055    0.5378 C.2     1  LEU1        0.2340
     11 O          -1.8058    1.3308    1.3847 O.2     1  LEU1       -0.2738
     12 N          -1.4231   -0.6307    0.2715 N.am    2  VAL2       -0.3022
     13 CA         -0.1592   -0.7607    1.0154 C.3     2  VAL2        0.1017
     14 C           0.9624   -0.9863    0.0727 C.2     2  VAL2        0.2341
     15 O           0.6741   -1.1254   -1.1612 O.2     2  VAL2       -0.2738
     16 N           2.3230   -1.0622    0.3970 N.am    3  LYS3       -0.3044
     17 CA          3.3817   -1.2876   -0.5619 C.3     3  LYS3        0.0785
     18 C           4.0610   -2.5601   -0.2055 C.2     3  LYS3        0.1404
     19 O           5.0005   -2.9270   -0.9128 O.2     3  LYS3       -0.2991
     20 CB          4.3740   -0.1483   -0.6103 C.3     3  LYS3       -0.0278
     21 CG          5.0489    0.0907    0.6978 C.3     3  LYS3       -0.0498
     22 CD          6.0132    1.2448    0.5524 C.3     3  LYS3       -0.0406
     23 CE          7.0843    0.9737   -0.4925 C.3     3  LYS3       -0.0069
     24 NZ          7.9764    2.1336   -0.5674 N.3     3  LYS3       -0.3300
     25 CB         -0.3517   -2.0634    1.8036 C.3     2  VAL2       -0.0197
     26 CG1        -1.5832   -1.8937    2.7115 C.3     2  VAL2       -0.0605
     27 CG2         0.8318   -2.4365    2.6317 C.3     2  VAL2       -0.0605
     28 H          -5.7153    3.2928    2.3424 H       0  UNK0        0.0322
     29 H          -5.7759    3.9111    0.6738 H       0  UNK0        0.0322
     30 H          -7.1696    2.9249    1.2821 H       0  UNK0        0.0322
     31 H          -3.7241    2.7945    0.0231 H       1  LEU1        0.1494
     32 HA         -4.1196   -0.2162    0.0847 H       1  LEU1        0.0594
     33 HB1        -2.3621    1.3631   -1.9196 H       1  LEU1        0.0290
     34 HB2        -2.6906   -0.3768   -1.8669 H       1  LEU1        0.0290
     35 HG         -4.8353    1.7340   -2.5045 H       1  LEU1        0.0296
     36 HD11       -5.7525   -0.7765   -3.2460 H       1  LEU1        0.0232
     37 HD12       -4.8042   -1.2562   -1.8201 H       1  LEU1        0.0232
     38 HD13       -6.1282   -0.0755   -1.6611 H       1  LEU1        0.0232
     39 HD21       -3.3863   -0.3643   -4.2101 H       1  LEU1        0.0232
     40 HD22       -4.6677    0.8399   -4.6992 H       1  LEU1        0.0232
     41 HD23       -3.0290    1.3838   -4.1126 H       1  LEU1        0.0232
     42 H          -1.6719   -1.3761   -0.4115 H       2  VAL2        0.1495
     43 HA          0.0125    0.0620    1.7018 H       2  VAL2        0.0597
     44 H           2.6169   -0.9429    1.3861 H       3  LYS3        0.1494
     45 HA          2.9824   -1.3950   -1.6016 H       3  LYS3        0.0574
     46 H           3.7438   -3.1455    0.6442 H       3  LYS3        0.1046
     47 HB1         3.9298    0.7687   -0.9932 H       3  LYS3        0.0287
     48 HB2         5.1568   -0.4787   -1.3489 H       3  LYS3        0.0287
     49 HG1         5.5252   -0.7983    1.1273 H       3  LYS3        0.0266
     50 HG2         4.2725    0.4517    1.4326 H       3  LYS3        0.0266
     51 HD1         5.4643    2.1482    0.1902 H       3  LYS3        0.0277
     52 HD2         6.4654    1.5429    1.5172 H       3  LYS3        0.0277
     53 HE1         6.6482    0.8826   -1.5047 H       3  LYS3        0.0422
     54 HE2         7.7128    0.1043   -0.2520 H       3  LYS3        0.0422
     55 HZ1         7.3780    2.9918   -0.4235 H       3  LYS3        0.1182
     56 HZ2         8.4506    2.1220   -1.4876 H       3  LYS3        0.1182
     57 HB         -0.6227   -2.8500    1.0745 H       2  VAL2        0.0318
     58 HG11       -1.9280   -2.8897    3.0555 H       2  VAL2        0.0233
     59 HG12       -2.4211   -1.4473    2.1156 H       2  VAL2        0.0233
     60 HG13       -1.3593   -1.1940    3.5266 H       2  VAL2        0.0233
     61 HG21        1.5608   -2.9721    1.9963 H       2  VAL2        0.0233
     62 HG22        1.2422   -1.5813    3.1948 H       2  VAL2        0.0233
     63 HG23        0.5158   -3.1969    3.4089 H       2  VAL2        0.0233
@<TRIPOS>BOND
     1     1     2    1
     2     2     3    2
     3     2     4   am
     4     4     5    1
     5     5     6    1
     6     6     7    1
     7     7     8    1
     8     7     9    1
     9     5    10    1
    10    10    11    2
    11    10    12   am
    12    12    13    1
    13    13    14    1
    14    14    15    2
    15    14    16   am
    16    16    17    1
    17    17    18    1
    18    18    19    2
    19    17    20    1
    20    20    21    1
    21    21    22    1
    22    22    23    1
    23    23    24    1
    24    13    25    1
    25    25    26    1
    26    25    27    1
    27     1    28    1
    28     1    29    1
    29     1    30    1
    30     4    31    1
    31     5    32    1
    32     6    33    1
    33     6    34    1
    34     7    35    1
    35     8    36    1
    36     8    37    1
    37     8    38    1
    38     9    39    1
    39     9    40    1
    40     9    41    1
    41    12    42    1
    42    13    43    1
    43    16    44    1
    44    17    45    1
    45    18    46    1
    46    20    47    1
    47    20    48    1
    48    21    49    1
    49    21    50    1
    50    22    51    1
    51    22    52    1
    52    23    53    1
    53    23    54    1
    54    24    55    1
    55    24    56    1
    56    25    57    1
    57    26    58    1
    58    26    59    1
    59    26    60    1
    60    27    61    1
    61    27    62    1
    62    27    63    1
