@<TRIPOS>MOLECULE
*****
 42 43 0 0 0
SMALL
GASTEIGER

@<TRIPOS>ATOM
      1 C           6.5964    1.1866   -1.1336 C.3     1  UNL1       -0.0397
      2 C           5.4894    0.3126   -0.6506 C.ar    1  UNL1       -0.0503
      3 C           4.5573   -0.1431   -1.5466 C.ar    1  UNL1       -0.0570
      4 C           3.5062   -0.9610   -1.1434 C.ar    1  UNL1       -0.0348
      5 C           3.4097   -1.3159    0.1948 C.ar    1  UNL1        0.1086
      6 C           4.3836   -0.8247    1.0613 C.ar    1  UNL1       -0.0348
      7 C           5.4313   -0.0183    0.7006 C.ar    1  UNL1       -0.0570
      8 S           2.1351   -2.3445    0.8548 S.O2    1  UNL1        0.0756
      9 O           2.7215   -3.0593    2.0293 O.2     1  UNL1       -0.1499
     10 O           1.7492   -3.3906   -0.1439 O.2     1  UNL1       -0.1499
     11 N           0.8368   -1.3589    1.3381 N.am    1  UNL1       -0.1683
     12 C          -0.2528   -0.9828    0.5192 C.2     1  UNL1        0.3327
     13 O          -0.2056   -1.4418   -0.6477 O.2     1  UNL1       -0.2499
     14 N          -1.3029   -0.1615    0.9753 N.am    1  UNL1       -0.2309
     15 N          -2.3972    0.2129    0.1439 N.3     1  UNL1       -0.2258
     16 C          -3.3519   -0.8542    0.3849 C.3     1  UNL1        0.0168
     17 C          -4.5416   -0.7804   -0.5481 C.3     1  UNL1       -0.0386
     18 C          -5.3742    0.4011   -0.0931 C.3     1  UNL1       -0.0518
     19 C          -4.8207    1.6124   -0.8213 C.3     1  UNL1       -0.0518
     20 C          -3.7298    2.3072   -0.1007 C.3     1  UNL1       -0.0386
     21 C          -2.7880    1.4791    0.6755 C.3     1  UNL1        0.0168
     22 H           7.1913    0.6212   -1.8836 H       1  UNL1        0.0278
     23 H           7.2562    1.4806   -0.2925 H       1  UNL1        0.0278
     24 H           6.1575    2.1039   -1.5472 H       1  UNL1        0.0278
     25 H           4.5997    0.1123   -2.5976 H       1  UNL1        0.0621
     26 H           2.7375   -1.3551   -1.7977 H       1  UNL1        0.0637
     27 H           4.3198   -1.0955    2.1146 H       1  UNL1        0.0637
     28 H           6.1549    0.3291    1.4263 H       1  UNL1        0.0621
     29 H           0.8542   -1.0009    2.3396 H       1  UNL1        0.1782
     30 H          -1.2033    0.1491    1.9869 H       1  UNL1        0.1708
     31 H          -2.8380   -1.8184    0.1600 H       1  UNL1        0.0443
     32 H          -3.6942   -0.8817    1.4222 H       1  UNL1        0.0443
     33 H          -5.0945   -1.7339   -0.4661 H       1  UNL1        0.0278
     34 H          -4.2315   -0.6037   -1.5933 H       1  UNL1        0.0278
     35 H          -6.4576    0.2630   -0.2761 H       1  UNL1        0.0266
     36 H          -5.2133    0.5727    1.0116 H       1  UNL1        0.0266
     37 H          -4.5634    1.3252   -1.8655 H       1  UNL1        0.0266
     38 H          -5.6747    2.3152   -0.9248 H       1  UNL1        0.0266
     39 H          -3.1697    2.9262   -0.8613 H       1  UNL1        0.0278
     40 H          -4.1809    3.0478    0.5968 H       1  UNL1        0.0278
     41 H          -3.1567    1.2943    1.7237 H       1  UNL1        0.0443
     42 H          -1.8453    2.0738    0.8236 H       1  UNL1        0.0443
@<TRIPOS>BOND
     1     1     2    1
     2     2     3   ar
     3     3     4   ar
     4     4     5   ar
     5     5     6   ar
     6     6     7   ar
     7     5     8    1
     8     8     9    2
     9     8    10    2
    10     8    11    1
    11    11    12   am
    12    12    13    2
    13    12    14   am
    14    14    15    1
    15    15    16    1
    16    16    17    1
    17    17    18    1
    18    18    19    1
    19    19    20    1
    20    20    21    1
    21     7     2   ar
    22    21    15    1
    23     1    22    1
    24     1    23    1
    25     1    24    1
    26     3    25    1
    27     4    26    1
    28     6    27    1
    29     7    28    1
    30    11    29    1
    31    14    30    1
    32    16    31    1
    33    16    32    1
    34    17    33    1
    35    17    34    1
    36    18    35    1
    37    18    36    1
    38    19    37    1
    39    19    38    1
    40    20    39    1
    41    20    40    1
    42    21    41    1
    43    21    42    1
