@<TRIPOS>MOLECULE
*****
 24 25 0 0 0
SMALL
GASTEIGER

@<TRIPOS>ATOM
      1 CL          4.4805    1.1164    0.4244 Cl      1  UNL1       -0.0820
      2 C           2.9168    0.4012    0.1503 C.ar    1  UNL1        0.0596
      3 C           2.8113   -0.9708    0.0638 C.ar    1  UNL1       -0.0417
      4 C           1.5723   -1.5614   -0.1546 C.ar    1  UNL1       -0.0568
      5 C           0.5086   -0.7174   -0.2727 C.ar    1  UNL1       -0.0414
      6 C          -0.7642   -1.4842   -0.5053 C.3     1  UNL1       -0.0262
      7 C          -1.7099   -1.0814    0.6120 C.3     1  UNL1       -0.0364
      8 C          -2.3943    0.1922    0.1790 C.3     1  UNL1       -0.0035
      9 N          -1.6376    1.3436    0.5814 N.3     1  UNL1       -0.3119
     10 C          -0.5431    1.6746   -0.3095 C.3     1  UNL1        0.0229
     11 C           0.5366    0.6739   -0.1970 C.ar    1  UNL1       -0.0107
     12 C           1.7953    1.2271    0.0225 C.ar    1  UNL1        0.0639
     13 CL          1.9484    2.9822    0.1359 Cl      1  UNL1       -0.0817
     14 H           3.6805   -1.6074    0.1631 H       1  UNL1        0.0633
     15 H           1.4203   -2.6370   -0.2329 H       1  UNL1        0.0621
     16 H          -1.1906   -1.1085   -1.4689 H       1  UNL1        0.0314
     17 H          -0.5749   -2.5571   -0.5705 H       1  UNL1        0.0314
     18 H          -1.0914   -0.9058    1.5176 H       1  UNL1        0.0281
     19 H          -2.4098   -1.8935    0.8933 H       1  UNL1        0.0281
     20 H          -3.4160    0.2940    0.6463 H       1  UNL1        0.0424
     21 H          -2.5972    0.1729   -0.9235 H       1  UNL1        0.0424
     22 H          -2.2922    2.1608    0.6216 H       1  UNL1        0.1222
     23 H          -0.9090    1.6408   -1.3518 H       1  UNL1        0.0474
     24 H          -0.1403    2.6448   -0.0247 H       1  UNL1        0.0474
@<TRIPOS>BOND
     1     1     2    1
     2     2     3   ar
     3     3     4   ar
     4     4     5   ar
     5     5     6    1
     6     6     7    1
     7     7     8    1
     8     8     9    1
     9     9    10    1
    10    10    11    1
    11    11    12   ar
    12    12    13    1
    13    12     2   ar
    14    11     5   ar
    15     3    14    1
    16     4    15    1
    17     6    16    1
    18     6    17    1
    19     7    18    1
    20     7    19    1
    21     8    20    1
    22     8    21    1
    23     9    22    1
    24    10    23    1
    25    10    24    1
