
     RDKit          3D

 24 25  0  0  0  0  0  0  0  0999 V2000
    4.4805    1.1164    0.4244 Cl  0  0  0  0  0  0  0  0  0  0  0  0
    2.9168    0.4012    0.1503 C   0  0  0  0  0  0  0  0  0  0  0  0
    2.8113   -0.9708    0.0638 C   0  0  0  0  0  0  0  0  0  0  0  0
    1.5723   -1.5614   -0.1546 C   0  0  0  0  0  0  0  0  0  0  0  0
    0.5086   -0.7174   -0.2727 C   0  0  0  0  0  0  0  0  0  0  0  0
   -0.7642   -1.4842   -0.5053 C   0  0  0  0  0  0  0  0  0  0  0  0
   -1.7099   -1.0814    0.6120 C   0  0  0  0  0  0  0  0  0  0  0  0
   -2.3943    0.1922    0.1790 C   0  0  0  0  0  0  0  0  0  0  0  0
   -1.6376    1.3436    0.5814 N   0  0  0  0  0  0  0  0  0  0  0  0
   -0.5431    1.6746   -0.3095 C   0  0  0  0  0  0  0  0  0  0  0  0
    0.5366    0.6739   -0.1970 C   0  0  0  0  0  0  0  0  0  0  0  0
    1.7953    1.2271    0.0225 C   0  0  0  0  0  0  0  0  0  0  0  0
    1.9484    2.9822    0.1359 Cl  0  0  0  0  0  0  0  0  0  0  0  0
    3.6805   -1.6074    0.1631 H   0  0  0  0  0  0  0  0  0  0  0  0
    1.4203   -2.6370   -0.2329 H   0  0  0  0  0  0  0  0  0  0  0  0
   -1.1906   -1.1085   -1.4689 H   0  0  0  0  0  0  0  0  0  0  0  0
   -0.5749   -2.5571   -0.5705 H   0  0  0  0  0  0  0  0  0  0  0  0
   -1.0914   -0.9058    1.5176 H   0  0  0  0  0  0  0  0  0  0  0  0
   -2.4098   -1.8935    0.8933 H   0  0  0  0  0  0  0  0  0  0  0  0
   -3.4160    0.2940    0.6463 H   0  0  0  0  0  0  0  0  0  0  0  0
   -2.5972    0.1729   -0.9235 H   0  0  0  0  0  0  0  0  0  0  0  0
   -2.2922    2.1608    0.6216 H   0  0  0  0  0  0  0  0  0  0  0  0
   -0.9090    1.6408   -1.3518 H   0  0  0  0  0  0  0  0  0  0  0  0
   -0.1403    2.6448   -0.0247 H   0  0  0  0  0  0  0  0  0  0  0  0
  1  2  1  0
  2  3  2  0
  3  4  1  0
  4  5  2  0
  5  6  1  0
  6  7  1  0
  7  8  1  0
  8  9  1  0
  9 10  1  0
 10 11  1  0
 11 12  2  0
 12 13  1  0
 12  2  1  0
 11  5  1  0
  3 14  1  0
  4 15  1  0
  6 16  1  0
  6 17  1  0
  7 18  1  0
  7 19  1  0
  8 20  1  0
  8 21  1  0
  9 22  1  0
 10 23  1  0
 10 24  1  0
M  END
$$$$
