
     RDKit          3D

 38 41  0  0  0  0  0  0  0  0999 V2000
   -2.3927   -1.5902    2.3364 O   0  0  0  0  0  0  0  0  0  0  0  0
   -2.4889   -1.0292    1.2159 C   0  0  0  0  0  0  0  0  0  0  0  0
   -3.7291   -0.3441    0.9009 C   0  0  0  0  0  0  0  0  0  0  0  0
   -4.1214    0.7667    1.6110 C   0  0  0  0  0  0  0  0  0  0  0  0
   -5.2943    1.4315    1.3165 C   0  0  0  0  0  0  0  0  0  0  0  0
   -6.1067    0.9958    0.2959 C   0  0  0  0  0  0  0  0  0  0  0  0
   -5.7169   -0.1245   -0.4251 C   0  0  0  0  0  0  0  0  0  0  0  0
   -6.5219   -0.5543   -1.4406 F   0  0  0  0  0  0  0  0  0  0  0  0
   -4.5480   -0.7771   -0.1204 C   0  0  0  0  0  0  0  0  0  0  0  0
   -1.4076   -1.0615    0.2758 N   0  0  0  0  0  0  0  0  0  0  0  0
   -1.5250   -0.4179   -0.9944 C   0  0  0  0  0  0  0  0  0  0  0  0
   -0.4122    0.5521   -1.3101 C   0  0  0  0  0  0  0  0  0  0  0  0
    0.8660    0.1232   -0.6845 C   0  0  0  0  0  0  0  0  0  0  0  0
    2.0634    0.6227   -0.8309 O   0  0  0  0  0  0  0  0  0  0  0  0
    2.9385   -0.0248   -0.1151 C   0  0  0  0  0  0  0  0  0  0  0  0
    4.3850    0.2702   -0.0381 C   0  0  0  0  0  0  0  0  0  0  0  0
    5.2388   -0.5017    0.7180 C   0  0  0  0  0  0  0  0  0  0  0  0
    6.5826   -0.1855    0.7753 C   0  0  0  0  0  0  0  0  0  0  0  0
    7.0127    0.9089    0.0575 C   0  0  0  0  0  0  0  0  0  0  0  0
    8.3287    1.3058    0.0528 F   0  0  0  0  0  0  0  0  0  0  0  0
    6.1502    1.6895   -0.7081 C   0  0  0  0  0  0  0  0  0  0  0  0
    4.8571    1.3387   -0.7282 N   0  0  0  0  0  0  0  0  0  0  0  0
    2.2805   -0.9955    0.5310 N   0  0  0  0  0  0  0  0  0  0  0  0
    0.9832   -0.9220    0.1902 C   0  0  0  0  0  0  0  0  0  0  0  0
   -0.1863   -1.7469    0.6222 C   0  0  0  0  0  0  0  0  0  0  0  0
   -3.5305    1.1652    2.4272 H   0  0  0  0  0  0  0  0  0  0  0  0
   -5.6080    2.3025    1.8670 H   0  0  0  0  0  0  0  0  0  0  0  0
   -7.0373    1.4723    0.0178 H   0  0  0  0  0  0  0  0  0  0  0  0
   -4.2971   -1.6585   -0.7204 H   0  0  0  0  0  0  0  0  0  0  0  0
   -1.6458   -1.2019   -1.7955 H   0  0  0  0  0  0  0  0  0  0  0  0
   -2.4847    0.1639   -1.0215 H   0  0  0  0  0  0  0  0  0  0  0  0
   -0.3271    0.6170   -2.4197 H   0  0  0  0  0  0  0  0  0  0  0  0
   -0.7420    1.5640   -0.9627 H   0  0  0  0  0  0  0  0  0  0  0  0
    4.8544   -1.3579    1.2687 H   0  0  0  0  0  0  0  0  0  0  0  0
    7.2929   -0.7750    1.3717 H   0  0  0  0  0  0  0  0  0  0  0  0
    6.5215    2.5576   -1.2662 H   0  0  0  0  0  0  0  0  0  0  0  0
   -0.1425   -1.8264    1.7409 H   0  0  0  0  0  0  0  0  0  0  0  0
   -0.0897   -2.7528    0.2106 H   0  0  0  0  0  0  0  0  0  0  0  0
  1  2  2  0
  2  3  1  0
  3  4  2  0
  4  5  1  0
  5  6  2  0
  6  7  1  0
  7  8  1  0
  7  9  2  0
  2 10  1  0
 10 11  1  0
 11 12  1  0
 12 13  1  0
 13 14  1  0
 14 15  1  0
 15 16  1  0
 16 17  2  0
 17 18  1  0
 18 19  2  0
 19 20  1  0
 19 21  1  0
 21 22  2  0
 15 23  2  0
 23 24  1  0
 24 25  1  0
  9  3  1  0
 25 10  1  0
 24 13  2  0
 22 16  1  0
  4 26  1  0
  5 27  1  0
  6 28  1  0
  9 29  1  0
 11 30  1  0
 11 31  1  0
 12 32  1  0
 12 33  1  0
 17 34  1  0
 18 35  1  0
 21 36  1  0
 25 37  1  0
 25 38  1  0
M  END
$$$$
