@<TRIPOS>MOLECULE
*****
 38 41 0 0 0
SMALL
GASTEIGER

@<TRIPOS>ATOM
      1 O          -2.3927   -1.5902    2.3364 O.2     1  UNL1       -0.2700
      2 C          -2.4889   -1.0292    1.2159 C.2     1  UNL1        0.2470
      3 C          -3.7291   -0.3441    0.9009 C.ar    1  UNL1        0.0396
      4 C          -4.1214    0.7667    1.6110 C.ar    1  UNL1       -0.0495
      5 C          -5.2943    1.4315    1.3165 C.ar    1  UNL1       -0.0583
      6 C          -6.1067    0.9958    0.2959 C.ar    1  UNL1       -0.0264
      7 C          -5.7169   -0.1245   -0.4251 C.ar    1  UNL1        0.1241
      8 F          -6.5219   -0.5543   -1.4406 F       1  UNL1       -0.2055
      9 C          -4.5480   -0.7771   -0.1204 C.ar    1  UNL1       -0.0143
     10 N          -1.4076   -1.0615    0.2758 N.am    1  UNL1       -0.2912
     11 C          -1.5250   -0.4179   -0.9944 C.3     1  UNL1        0.0223
     12 C          -0.4122    0.5521   -1.3101 C.3     1  UNL1        0.0233
     13 C           0.8660    0.1232   -0.6845 C.ar    1  UNL1        0.1319
     14 O           2.0634    0.6227   -0.8309 O.2     1  UNL1       -0.4387
     15 C           2.9385   -0.0248   -0.1151 C.ar    1  UNL1        0.2465
     16 C           4.3850    0.2702   -0.0381 C.ar    1  UNL1        0.1257
     17 C           5.2388   -0.5017    0.7180 C.ar    1  UNL1       -0.0283
     18 C           6.5826   -0.1855    0.7753 C.ar    1  UNL1       -0.0228
     19 C           7.0127    0.9089    0.0575 C.ar    1  UNL1        0.1414
     20 F           8.3287    1.3058    0.0528 F       1  UNL1       -0.2039
     21 C           6.1502    1.6895   -0.7081 C.ar    1  UNL1        0.0636
     22 N           4.8571    1.3387   -0.7282 N.ar    1  UNL1       -0.2474
     23 N           2.2805   -0.9955    0.5310 N.ar    1  UNL1       -0.2108
     24 C           0.9832   -0.9220    0.1902 C.ar    1  UNL1        0.1003
     25 C          -0.1863   -1.7469    0.6222 C.3     1  UNL1        0.0605
     26 H          -3.5305    1.1652    2.4272 H       1  UNL1        0.0625
     27 H          -5.6080    2.3025    1.8670 H       1  UNL1        0.0619
     28 H          -7.0373    1.4723    0.0178 H       1  UNL1        0.0646
     29 H          -4.2971   -1.6585   -0.7204 H       1  UNL1        0.0654
     30 H          -1.6458   -1.2019   -1.7955 H       1  UNL1        0.0469
     31 H          -2.4847    0.1639   -1.0215 H       1  UNL1        0.0469
     32 H          -0.3271    0.6170   -2.4197 H       1  UNL1        0.0359
     33 H          -0.7420    1.5640   -0.9627 H       1  UNL1        0.0359
     34 H           4.8544   -1.3579    1.2687 H       1  UNL1        0.0641
     35 H           7.2929   -0.7750    1.3717 H       1  UNL1        0.0647
     36 H           6.5215    2.5576   -1.2662 H       1  UNL1        0.0859
     37 H          -0.1425   -1.8264    1.7409 H       1  UNL1        0.0530
     38 H          -0.0897   -2.7528    0.2106 H       1  UNL1        0.0530
@<TRIPOS>BOND
     1     1     2    2
     2     2     3    1
     3     3     4   ar
     4     4     5   ar
     5     5     6   ar
     6     6     7   ar
     7     7     8    1
     8     7     9   ar
     9     2    10   am
    10    10    11    1
    11    11    12    1
    12    12    13    1
    13    13    14   ar
    14    14    15   ar
    15    15    16    1
    16    16    17   ar
    17    17    18   ar
    18    18    19   ar
    19    19    20    1
    20    19    21   ar
    21    21    22   ar
    22    15    23   ar
    23    23    24   ar
    24    24    25    1
    25     9     3   ar
    26    25    10    1
    27    24    13   ar
    28    22    16   ar
    29     4    26    1
    30     5    27    1
    31     6    28    1
    32     9    29    1
    33    11    30    1
    34    11    31    1
    35    12    32    1
    36    12    33    1
    37    17    34    1
    38    18    35    1
    39    21    36    1
    40    25    37    1
    41    25    38    1
