
     RDKit          3D

 44 48  0  0  0  0  0  0  0  0999 V2000
    5.6816    0.0366    2.6464 C   0  0  0  0  0  0  0  0  0  0  0  0
    4.3307   -0.0967    2.8324 C   0  0  0  0  0  0  0  0  0  0  0  0
    3.4274   -0.0170    1.7997 C   0  0  0  0  0  0  0  0  0  0  0  0
    3.9212    0.2077    0.5257 C   0  0  0  0  0  0  0  0  0  0  0  0
    3.0233    0.3054   -0.6300 C   0  0  0  0  0  0  0  0  0  0  0  0
    3.4191   -0.0960   -1.8882 C   0  0  0  0  0  0  0  0  0  0  0  0
    2.5638    0.0030   -2.9614 C   0  0  0  0  0  0  0  0  0  0  0  0
    1.2625    0.5083   -2.8439 C   0  0  0  0  0  0  0  0  0  0  0  0
    0.4056    0.5984   -4.0531 C   0  0  0  0  0  0  0  0  0  0  0  0
   -0.4034   -0.9925   -4.3087 S   0  0  0  0  0  0  0  0  0  0  0  0
   -1.5777   -1.3262   -3.0119 C   0  0  0  0  0  0  0  0  0  0  0  0
   -2.3551   -2.4470   -2.9036 N   0  0  0  0  0  0  0  0  0  0  0  0
   -3.1058   -2.3595   -1.8253 N   0  0  0  0  0  0  0  0  0  0  0  0
   -2.8224   -1.2032   -1.2424 C   0  0  0  0  0  0  0  0  0  0  0  0
   -3.3854   -0.6392   -0.0196 C   0  0  0  0  0  0  0  0  0  0  0  0
   -2.9766    0.5875    0.4592 C   0  0  0  0  0  0  0  0  0  0  0  0
   -3.5075    1.1221    1.6122 C   0  0  0  0  0  0  0  0  0  0  0  0
   -4.4650    0.4630    2.3376 C   0  0  0  0  0  0  0  0  0  0  0  0
   -4.8782   -0.7661    1.8629 C   0  0  0  0  0  0  0  0  0  0  0  0
   -4.3492   -1.3089    0.7057 C   0  0  0  0  0  0  0  0  0  0  0  0
   -5.8445   -1.2104    2.7790 O   0  0  0  0  0  0  0  0  0  0  0  0
   -6.3644   -0.0880    3.4683 C   0  0  0  0  0  0  0  0  0  0  0  0
   -5.1828    0.7303    3.5160 O   0  0  0  0  0  0  0  0  0  0  0  0
   -1.9117   -0.6160   -1.9733 O   0  0  0  0  0  0  0  0  0  0  0  0
    0.8770    0.9062   -1.5856 C   0  0  0  0  0  0  0  0  0  0  0  0
    1.7458    0.8062   -0.4922 C   0  0  0  0  0  0  0  0  0  0  0  0
    5.2690    0.3430    0.3249 C   0  0  0  0  0  0  0  0  0  0  0  0
    6.1479    0.2580    1.3809 C   0  0  0  0  0  0  0  0  0  0  0  0
    6.3828   -0.0258    3.4505 H   0  0  0  0  0  0  0  0  0  0  0  0
    3.9944   -0.2720    3.8519 H   0  0  0  0  0  0  0  0  0  0  0  0
    2.3607   -0.1255    1.9679 H   0  0  0  0  0  0  0  0  0  0  0  0
    4.4323   -0.4911   -1.9863 H   0  0  0  0  0  0  0  0  0  0  0  0
    2.8679   -0.3080   -3.9425 H   0  0  0  0  0  0  0  0  0  0  0  0
   -0.3251    1.4347   -3.9770 H   0  0  0  0  0  0  0  0  0  0  0  0
    1.1006    0.8350   -4.8961 H   0  0  0  0  0  0  0  0  0  0  0  0
   -2.2122    1.1343   -0.1029 H   0  0  0  0  0  0  0  0  0  0  0  0
   -3.1437    2.0861    1.9312 H   0  0  0  0  0  0  0  0  0  0  0  0
   -4.6987   -2.2783    0.3632 H   0  0  0  0  0  0  0  0  0  0  0  0
   -7.1390    0.3916    2.8377 H   0  0  0  0  0  0  0  0  0  0  0  0
   -6.7070   -0.3868    4.4597 H   0  0  0  0  0  0  0  0  0  0  0  0
   -0.1085    1.3112   -1.4413 H   0  0  0  0  0  0  0  0  0  0  0  0
    1.4252    1.1231    0.4867 H   0  0  0  0  0  0  0  0  0  0  0  0
    5.6235    0.5177   -0.6774 H   0  0  0  0  0  0  0  0  0  0  0  0
    7.2013    0.3727    1.1631 H   0  0  0  0  0  0  0  0  0  0  0  0
  1  2  2  0
  2  3  1  0
  3  4  2  0
  4  5  1  0
  5  6  2  0
  6  7  1  0
  7  8  2  0
  8  9  1  0
  9 10  1  0
 10 11  1  0
 11 12  2  0
 12 13  1  0
 13 14  2  0
 14 15  1  0
 15 16  2  0
 16 17  1  0
 17 18  2  0
 18 19  1  0
 19 20  2  0
 19 21  1  0
 21 22  1  0
 22 23  1  0
 14 24  1  0
  8 25  1  0
 25 26  2  0
  4 27  1  0
 27 28  2  0
 28  1  1  0
 26  5  1  0
 24 11  1  0
 20 15  1  0
 23 18  1  0
  1 29  1  0
  2 30  1  0
  3 31  1  0
  6 32  1  0
  7 33  1  0
  9 34  1  0
  9 35  1  0
 16 36  1  0
 17 37  1  0
 20 38  1  0
 22 39  1  0
 22 40  1  0
 25 41  1  0
 26 42  1  0
 27 43  1  0
 28 44  1  0
M  END
$$$$
