@<TRIPOS>MOLECULE
*****
 44 48 0 0 0
SMALL
GASTEIGER

@<TRIPOS>ATOM
      1 C           5.6816    0.0366    2.6464 C.ar    1  UNL1       -0.0617
      2 C           4.3307   -0.0967    2.8324 C.ar    1  UNL1       -0.0612
      3 C           3.4274   -0.0170    1.7997 C.ar    1  UNL1       -0.0540
      4 C           3.9212    0.2077    0.5257 C.ar    1  UNL1       -0.0179
      5 C           3.0233    0.3054   -0.6300 C.ar    1  UNL1       -0.0179
      6 C           3.4191   -0.0960   -1.8882 C.ar    1  UNL1       -0.0537
      7 C           2.5638    0.0030   -2.9614 C.ar    1  UNL1       -0.0572
      8 C           1.2625    0.5083   -2.8439 C.ar    1  UNL1       -0.0370
      9 C           0.4056    0.5984   -4.0531 C.3     1  UNL1        0.0278
     10 S          -0.4034   -0.9925   -4.3087 S.3     1  UNL1       -0.0609
     11 C          -1.5777   -1.3262   -3.0119 C.ar    1  UNL1        0.2779
     12 N          -2.3551   -2.4470   -2.9036 N.ar    1  UNL1       -0.1006
     13 N          -3.1058   -2.3595   -1.8253 N.ar    1  UNL1       -0.1065
     14 C          -2.8224   -1.2032   -1.2424 C.ar    1  UNL1        0.2493
     15 C          -3.3854   -0.6392   -0.0196 C.ar    1  UNL1        0.0422
     16 C          -2.9766    0.5875    0.4592 C.ar    1  UNL1       -0.0458
     17 C          -3.5075    1.1221    1.6122 C.ar    1  UNL1       -0.0154
     18 C          -4.4650    0.4630    2.3376 C.ar    1  UNL1        0.1663
     19 C          -4.8782   -0.7661    1.8629 C.ar    1  UNL1        0.1670
     20 C          -4.3492   -1.3089    0.7057 C.ar    1  UNL1       -0.0039
     21 O          -5.8445   -1.2104    2.7790 O.3     1  UNL1       -0.4526
     22 C          -6.3644   -0.0880    3.4683 C.3     1  UNL1        0.2332
     23 O          -5.1828    0.7303    3.5160 O.3     1  UNL1       -0.4526
     24 O          -1.9117   -0.6160   -1.9733 O.2     1  UNL1       -0.4110
     25 C           0.8770    0.9062   -1.5856 C.ar    1  UNL1       -0.0572
     26 C           1.7458    0.8062   -0.4922 C.ar    1  UNL1       -0.0537
     27 C           5.2690    0.3430    0.3249 C.ar    1  UNL1       -0.0540
     28 C           6.1479    0.2580    1.3809 C.ar    1  UNL1       -0.0612
     29 H           6.3828   -0.0258    3.4505 H       1  UNL1        0.0618
     30 H           3.9944   -0.2720    3.8519 H       1  UNL1        0.0618
     31 H           2.3607   -0.1255    1.9679 H       1  UNL1        0.0624
     32 H           4.4323   -0.4911   -1.9863 H       1  UNL1        0.0624
     33 H           2.8679   -0.3080   -3.9425 H       1  UNL1        0.0621
     34 H          -0.3251    1.4347   -3.9770 H       1  UNL1        0.0430
     35 H           1.1006    0.8350   -4.8961 H       1  UNL1        0.0430
     36 H          -2.2122    1.1343   -0.1029 H       1  UNL1        0.0626
     37 H          -3.1437    2.0861    1.9312 H       1  UNL1        0.0655
     38 H          -4.6987   -2.2783    0.3632 H       1  UNL1        0.0663
     39 H          -7.1390    0.3916    2.8377 H       1  UNL1        0.1166
     40 H          -6.7070   -0.3868    4.4597 H       1  UNL1        0.1166
     41 H          -0.1085    1.3112   -1.4413 H       1  UNL1        0.0621
     42 H           1.4252    1.1231    0.4867 H       1  UNL1        0.0624
     43 H           5.6235    0.5177   -0.6774 H       1  UNL1        0.0624
     44 H           7.2013    0.3727    1.1631 H       1  UNL1        0.0618
@<TRIPOS>BOND
     1     1     2   ar
     2     2     3   ar
     3     3     4   ar
     4     4     5    1
     5     5     6   ar
     6     6     7   ar
     7     7     8   ar
     8     8     9    1
     9     9    10    1
    10    10    11    1
    11    11    12   ar
    12    12    13   ar
    13    13    14   ar
    14    14    15    1
    15    15    16   ar
    16    16    17   ar
    17    17    18   ar
    18    18    19   ar
    19    19    20   ar
    20    19    21    1
    21    21    22    1
    22    22    23    1
    23    14    24   ar
    24     8    25   ar
    25    25    26   ar
    26     4    27   ar
    27    27    28   ar
    28    28     1   ar
    29    26     5   ar
    30    24    11   ar
    31    20    15   ar
    32    23    18    1
    33     1    29    1
    34     2    30    1
    35     3    31    1
    36     6    32    1
    37     7    33    1
    38     9    34    1
    39     9    35    1
    40    16    36    1
    41    17    37    1
    42    20    38    1
    43    22    39    1
    44    22    40    1
    45    25    41    1
    46    26    42    1
    47    27    43    1
    48    28    44    1
