@<TRIPOS>MOLECULE
*****
 31 33 0 0 0
SMALL
GASTEIGER

@<TRIPOS>ATOM
      1 N           1.4087    3.1111   -0.3633 N.am    1  UNL1       -0.3126
      2 C           0.3891    2.1546   -0.2953 C.2     1  UNL1        0.3084
      3 O          -0.3522    3.0984   -0.6548 O.2     1  UNL1       -0.2521
      4 N           0.1304    0.7991   -0.0025 N.am    1  UNL1       -0.2237
      5 C          -1.2534    0.4075   -0.1089 C.ar    1  UNL1        0.0464
      6 C          -2.0926    1.4122    0.3868 C.ar    1  UNL1       -0.0396
      7 C          -3.4483    1.1952    0.3457 C.ar    1  UNL1       -0.0600
      8 C          -3.8953    0.0083   -0.1771 C.ar    1  UNL1       -0.0614
      9 C          -3.0639   -0.9989   -0.6726 C.ar    1  UNL1       -0.0564
     10 C          -1.6768   -0.8021   -0.6425 C.ar    1  UNL1       -0.0181
     11 C          -1.0225   -1.9807   -1.2029 C.3     1  UNL1        0.0375
     12 C           0.3308   -2.2754   -0.7078 C.2     1  UNL1        0.1693
     13 O           0.7183   -3.4517   -0.9309 O.2     1  UNL1       -0.2916
     14 C           1.2809   -1.4065   -0.0007 C.ar    1  UNL1        0.0395
     15 C           1.2159   -0.0492    0.3318 C.ar    1  UNL1        0.0532
     16 C           2.1925    0.6395    1.0098 C.ar    1  UNL1       -0.0392
     17 C           3.3183   -0.0276    1.3969 C.ar    1  UNL1       -0.0600
     18 C           3.4232   -1.3775    1.0859 C.ar    1  UNL1       -0.0610
     19 C           2.4346   -2.0895    0.3963 C.ar    1  UNL1       -0.0494
     20 H           1.8559    3.8260    0.2513 H       1  UNL1        0.1465
     21 H           2.0652    3.3812   -1.1321 H       1  UNL1        0.1465
     22 H          -1.6632    2.2937    0.7881 H       1  UNL1        0.0636
     23 H          -4.1489    1.9194    0.7065 H       1  UNL1        0.0618
     24 H          -4.9787   -0.1644   -0.2096 H       1  UNL1        0.0618
     25 H          -3.4758   -1.9106   -1.0710 H       1  UNL1        0.0621
     26 H          -1.6406   -2.8770   -0.9158 H       1  UNL1        0.0394
     27 H          -1.0199   -1.9933   -2.3218 H       1  UNL1        0.0394
     28 H           2.0247    1.6621    1.2136 H       1  UNL1        0.0636
     29 H           4.0855    0.4925    1.9233 H       1  UNL1        0.0618
     30 H           4.3267   -1.8696    1.4081 H       1  UNL1        0.0618
     31 H           2.5315   -3.1268    0.1658 H       1  UNL1        0.0625
@<TRIPOS>BOND
     1     1     2   am
     2     2     3    2
     3     2     4   am
     4     4     5    1
     5     5     6   ar
     6     6     7   ar
     7     7     8   ar
     8     8     9   ar
     9     9    10   ar
    10    10    11    1
    11    11    12    1
    12    12    13    2
    13    12    14    1
    14    14    15   ar
    15    15    16   ar
    16    16    17   ar
    17    17    18   ar
    18    18    19   ar
    19    15     4    1
    20    10     5   ar
    21    19    14   ar
    22     1    20    1
    23     1    21    1
    24     6    22    1
    25     7    23    1
    26     8    24    1
    27     9    25    1
    28    11    26    1
    29    11    27    1
    30    16    28    1
    31    17    29    1
    32    18    30    1
    33    19    31    1
