@<TRIPOS>MOLECULE
*****
 44 47 0 0 0
SMALL
GASTEIGER

@<TRIPOS>ATOM
      1 C          -1.6696    2.4529   -2.3747 C.3     1  UNL1        0.0788
      2 O          -1.4398    1.9402   -1.0913 O.3     1  UNL1       -0.4948
      3 C          -2.1459    0.8502   -0.6133 C.ar    1  UNL1        0.1251
      4 C          -3.0930    0.3042   -1.4829 C.ar    1  UNL1       -0.0190
      5 C          -3.8515   -0.7764   -1.1108 C.ar    1  UNL1       -0.0506
      6 C          -3.6511   -1.3069    0.1443 C.ar    1  UNL1       -0.0174
      7 C          -4.4091   -2.4018    0.5343 C.ar    1  UNL1       -0.0540
      8 C          -4.2746   -2.9982    1.7660 C.ar    1  UNL1       -0.0612
      9 C          -3.3412   -2.4540    2.6091 C.ar    1  UNL1       -0.0612
     10 C          -2.5607   -1.3595    2.2633 C.ar    1  UNL1       -0.0536
     11 C          -2.7046   -0.7686    1.0240 C.ar    1  UNL1       -0.0100
     12 C          -1.9430    0.3248    0.6377 C.ar    1  UNL1        0.0157
     13 C          -0.9198    0.9074    1.5298 C.3     1  UNL1        0.0256
     14 N           0.4040    0.4770    1.3364 N.3     1  UNL1       -0.3086
     15 C           1.1397    0.7646    0.1918 C.3     1  UNL1        0.0154
     16 C           1.6051    2.0794   -0.2888 C.3     1  UNL1       -0.0287
     17 C           2.5697    1.2967    0.4904 C.3     1  UNL1        0.0010
     18 C           3.6115    0.4590   -0.1026 C.ar    1  UNL1       -0.0428
     19 C           4.6215   -0.0164    0.7015 C.ar    1  UNL1       -0.0583
     20 C           5.6596   -0.8130    0.2561 C.ar    1  UNL1       -0.0615
     21 C           5.6922   -1.1580   -1.0790 C.ar    1  UNL1       -0.0617
     22 C           4.6929   -0.6960   -1.9089 C.ar    1  UNL1       -0.0615
     23 C           3.6477    0.1105   -1.4416 C.ar    1  UNL1       -0.0583
     24 H          -0.9500    3.2863   -2.5567 H       1  UNL1        0.0660
     25 H          -1.5382    1.6292   -3.0981 H       1  UNL1        0.0660
     26 H          -2.6856    2.8936   -2.4130 H       1  UNL1        0.0660
     27 H          -3.2477    0.7262   -2.4719 H       1  UNL1        0.0654
     28 H          -4.5879   -1.1978   -1.7915 H       1  UNL1        0.0625
     29 H          -5.1313   -2.8027   -0.1513 H       1  UNL1        0.0624
     30 H          -4.8890   -3.8547    2.0322 H       1  UNL1        0.0618
     31 H          -3.2213   -2.9134    3.5915 H       1  UNL1        0.0618
     32 H          -1.8421   -0.9966    2.9817 H       1  UNL1        0.0624
     33 H          -1.2219    0.7342    2.5778 H       1  UNL1        0.0475
     34 H          -1.0108    2.0442    1.4426 H       1  UNL1        0.0475
     35 H           0.7378   -0.3187    1.9052 H       1  UNL1        0.1225
     36 H           1.0551   -0.0132   -0.6210 H       1  UNL1        0.0466
     37 H           1.7374    2.2362   -1.3899 H       1  UNL1        0.0287
     38 H           1.1686    2.9809    0.1876 H       1  UNL1        0.0287
     39 H           2.7568    1.6004    1.5423 H       1  UNL1        0.0364
     40 H           4.6647    0.2134    1.7780 H       1  UNL1        0.0620
     41 H           6.4527   -1.1767    0.9307 H       1  UNL1        0.0618
     42 H           6.5024   -1.7787   -1.4219 H       1  UNL1        0.0618
     43 H           4.7315   -0.9736   -2.9549 H       1  UNL1        0.0618
     44 H           2.8789    0.4634   -2.0901 H       1  UNL1        0.0620
@<TRIPOS>BOND
     1     1     2    1
     2     2     3    1
     3     3     4   ar
     4     4     5   ar
     5     5     6   ar
     6     6     7   ar
     7     7     8   ar
     8     8     9   ar
     9     9    10   ar
    10    10    11   ar
    11    11    12   ar
    12    12    13    1
    13    13    14    1
    14    14    15    1
    15    15    16    1
    16    16    17    1
    17    17    18    1
    18    18    19   ar
    19    19    20   ar
    20    20    21   ar
    21    21    22   ar
    22    22    23   ar
    23    12     3   ar
    24    17    15    1
    25    23    18   ar
    26    11     6   ar
    27     1    24    1
    28     1    25    1
    29     1    26    1
    30     4    27    1
    31     5    28    1
    32     7    29    1
    33     8    30    1
    34     9    31    1
    35    10    32    1
    36    13    33    1
    37    13    34    1
    38    14    35    1
    39    15    36    1
    40    16    37    1
    41    16    38    1
    42    17    39    1
    43    19    40    1
    44    20    41    1
    45    21    42    1
    46    22    43    1
    47    23    44    1
