
     RDKit          3D

 35 37  0  0  0  0  0  0  0  0999 V2000
   -3.8940    2.2003    1.9659 N   0  0  0  0  0  0  0  0  0  0  0  0
   -3.7034    0.9910    1.2416 C   0  0  0  0  0  0  0  0  0  0  0  0
   -2.4375    0.8547    0.8489 N   0  0  0  0  0  0  0  0  0  0  0  0
   -1.9825   -0.2061    0.1416 C   0  0  0  0  0  0  0  0  0  0  0  0
   -0.6604   -0.3477   -0.2681 O   0  0  0  0  0  0  0  0  0  0  0  0
    0.2271    0.6987    0.0956 C   0  0  0  0  0  0  0  0  0  0  0  0
    1.6199    0.4481   -0.3927 C   0  0  0  0  0  0  0  0  0  0  0  0
    2.5733    1.5672   -0.0048 C   0  0  0  0  0  0  0  0  0  0  0  0
    3.8369    1.3069   -0.7959 C   0  0  0  0  0  0  0  0  0  0  0  0
    4.4571    0.0084   -0.4438 C   0  0  0  0  0  0  0  0  0  0  0  0
    3.5545   -1.1357   -0.1890 C   0  0  0  0  0  0  0  0  0  0  0  0
    2.1620   -0.7915    0.2390 C   0  0  0  0  0  0  0  0  0  0  0  0
   -2.9451   -1.1488   -0.1452 C   0  0  0  0  0  0  0  0  0  0  0  0
   -2.8491   -2.3234   -0.8265 N   0  0  0  0  0  0  0  0  0  0  0  0
   -4.0817   -2.9019   -0.8421 C   0  0  0  0  0  0  0  0  0  0  0  0
   -4.9458   -2.1019   -0.1785 N   0  0  0  0  0  0  0  0  0  0  0  0
   -4.2659   -1.0227    0.2554 C   0  0  0  0  0  0  0  0  0  0  0  0
   -4.6280    0.0715    0.9582 N   0  0  0  0  0  0  0  0  0  0  0  0
   -3.6372    3.1198    1.5177 H   0  0  0  0  0  0  0  0  0  0  0  0
   -4.2370    2.5433    2.8896 H   0  0  0  0  0  0  0  0  0  0  0  0
   -0.1223    1.6456   -0.4013 H   0  0  0  0  0  0  0  0  0  0  0  0
    0.2427    0.8377    1.1948 H   0  0  0  0  0  0  0  0  0  0  0  0
    1.6077    0.3850   -1.4997 H   0  0  0  0  0  0  0  0  0  0  0  0
    2.1658    2.5595   -0.1852 H   0  0  0  0  0  0  0  0  0  0  0  0
    2.8346    1.3925    1.0656 H   0  0  0  0  0  0  0  0  0  0  0  0
    4.5671    2.1084   -0.5614 H   0  0  0  0  0  0  0  0  0  0  0  0
    3.5678    1.3375   -1.8754 H   0  0  0  0  0  0  0  0  0  0  0  0
    5.1964    0.1621    0.3925 H   0  0  0  0  0  0  0  0  0  0  0  0
    5.1155   -0.2951   -1.3105 H   0  0  0  0  0  0  0  0  0  0  0  0
    4.0077   -1.7649    0.6055 H   0  0  0  0  0  0  0  0  0  0  0  0
    3.4602   -1.8184   -1.0839 H   0  0  0  0  0  0  0  0  0  0  0  0
    2.0684   -0.6773    1.3480 H   0  0  0  0  0  0  0  0  0  0  0  0
    1.4792   -1.6275   -0.0243 H   0  0  0  0  0  0  0  0  0  0  0  0
   -4.3899   -3.8543   -1.2979 H   0  0  0  0  0  0  0  0  0  0  0  0
   -5.9642   -2.2210    0.0094 H   0  0  0  0  0  0  0  0  0  0  0  0
  1  2  1  0
  2  3  2  0
  3  4  1  0
  4  5  1  0
  5  6  1  0
  6  7  1  0
  7  8  1  0
  8  9  1  0
  9 10  1  0
 10 11  1  0
 11 12  1  0
  4 13  2  0
 13 14  1  0
 14 15  2  0
 15 16  1  0
 16 17  1  0
 17 18  2  0
 18  2  1  0
 12  7  1  0
 17 13  1  0
  1 19  1  0
  1 20  1  0
  6 21  1  0
  6 22  1  0
  7 23  1  0
  8 24  1  0
  8 25  1  0
  9 26  1  0
  9 27  1  0
 10 28  1  0
 10 29  1  0
 11 30  1  0
 11 31  1  0
 12 32  1  0
 12 33  1  0
 15 34  1  0
 16 35  1  0
M  END
$$$$
