@<TRIPOS>MOLECULE
*****
 35 37 0 0 0
SMALL
GASTEIGER

@<TRIPOS>ATOM
      1 N          -3.8940    2.2003    1.9659 N.pl3   1  UNL1       -0.3273
      2 C          -3.7034    0.9910    1.2416 C.ar    1  UNL1        0.2176
      3 N          -2.4375    0.8547    0.8489 N.ar    1  UNL1       -0.1777
      4 C          -1.9825   -0.2061    0.1416 C.ar    1  UNL1        0.2476
      5 O          -0.6604   -0.3477   -0.2681 O.3     1  UNL1       -0.4745
      6 C           0.2271    0.6987    0.0956 C.3     1  UNL1        0.0941
      7 C           1.6199    0.4481   -0.3927 C.3     1  UNL1       -0.0067
      8 C           2.5733    1.5672   -0.0048 C.3     1  UNL1       -0.0471
      9 C           3.8369    1.3069   -0.7959 C.3     1  UNL1       -0.0527
     10 C           4.4571    0.0084   -0.4438 C.3     1  UNL1       -0.0530
     11 C           3.5545   -1.1357   -0.1890 C.3     1  UNL1       -0.0527
     12 C           2.1620   -0.7915    0.2390 C.3     1  UNL1       -0.0471
     13 C          -2.9451   -1.1488   -0.1452 C.ar    1  UNL1        0.1690
     14 N          -2.8491   -2.3234   -0.8265 N.ar    1  UNL1       -0.2289
     15 C          -4.0817   -2.9019   -0.8421 C.ar    1  UNL1        0.0958
     16 N          -4.9458   -2.1019   -0.1785 N.ar    1  UNL1       -0.3291
     17 C          -4.2659   -1.0227    0.2554 C.ar    1  UNL1        0.1665
     18 N          -4.6280    0.0715    0.9582 N.ar    1  UNL1       -0.1950
     19 H          -3.6372    3.1198    1.5177 H       1  UNL1        0.1452
     20 H          -4.2370    2.5433    2.8896 H       1  UNL1        0.1452
     21 H          -0.1223    1.6456   -0.4013 H       1  UNL1        0.0700
     22 H           0.2427    0.8377    1.1948 H       1  UNL1        0.0700
     23 H           1.6077    0.3850   -1.4997 H       1  UNL1        0.0334
     24 H           2.1658    2.5595   -0.1852 H       1  UNL1        0.0269
     25 H           2.8346    1.3925    1.0656 H       1  UNL1        0.0269
     26 H           4.5671    2.1084   -0.5614 H       1  UNL1        0.0265
     27 H           3.5678    1.3375   -1.8754 H       1  UNL1        0.0265
     28 H           5.1964    0.1621    0.3925 H       1  UNL1        0.0265
     29 H           5.1155   -0.2951   -1.3105 H       1  UNL1        0.0265
     30 H           4.0077   -1.7649    0.6055 H       1  UNL1        0.0265
     31 H           3.4602   -1.8184   -1.0839 H       1  UNL1        0.0265
     32 H           2.0684   -0.6773    1.3480 H       1  UNL1        0.0269
     33 H           1.4792   -1.6275   -0.0243 H       1  UNL1        0.0269
     34 H          -4.3899   -3.8543   -1.2979 H       1  UNL1        0.1027
     35 H          -5.9642   -2.2210    0.0094 H       1  UNL1        0.1682
@<TRIPOS>BOND
     1     1     2    1
     2     2     3   ar
     3     3     4   ar
     4     4     5    1
     5     5     6    1
     6     6     7    1
     7     7     8    1
     8     8     9    1
     9     9    10    1
    10    10    11    1
    11    11    12    1
    12     4    13   ar
    13    13    14   ar
    14    14    15   ar
    15    15    16   ar
    16    16    17   ar
    17    17    18   ar
    18    18     2   ar
    19    12     7    1
    20    17    13   ar
    21     1    19    1
    22     1    20    1
    23     6    21    1
    24     6    22    1
    25     7    23    1
    26     8    24    1
    27     8    25    1
    28     9    26    1
    29     9    27    1
    30    10    28    1
    31    10    29    1
    32    11    30    1
    33    11    31    1
    34    12    32    1
    35    12    33    1
    36    15    34    1
    37    16    35    1
