@<TRIPOS>MOLECULE
*****
 9 9 0 0 0
SMALL
GASTEIGER

@<TRIPOS>ATOM
      1 N          -1.0852   -0.6147   -0.2187 N.ar    1  UNL1       -0.2847
      2 C          -0.6645    0.6623   -0.0255 C.ar    1  UNL1        0.0223
      3 C           0.7112    0.6432   -0.2554 C.ar    1  UNL1       -0.0245
      4 C           1.0723   -0.6617   -0.5829 C.ar    1  UNL1        0.0491
      5 N          -0.0605   -1.3876   -0.5459 N.ar    1  UNL1       -0.1823
      6 H          -2.0883   -0.8824   -0.1089 H       1  UNL1        0.1882
      7 H          -1.2824    1.5239    0.2531 H       1  UNL1        0.0824
      8 H           1.2824    1.5745   -0.1579 H       1  UNL1        0.0648
      9 H           2.1150   -0.8576   -0.7945 H       1  UNL1        0.0848
@<TRIPOS>BOND
     1     1     2   ar
     2     2     3   ar
     3     3     4   ar
     4     4     5   ar
     5     5     1   ar
     6     1     6    1
     7     2     7    1
     8     3     8    1
     9     4     9    1
