
     RDKit          3D

  9  9  0  0  0  0  0  0  0  0999 V2000
   -1.0852   -0.6147   -0.2187 N   0  0  0  0  0  0  0  0  0  0  0  0
   -0.6645    0.6623   -0.0255 C   0  0  0  0  0  0  0  0  0  0  0  0
    0.7112    0.6432   -0.2554 C   0  0  0  0  0  0  0  0  0  0  0  0
    1.0723   -0.6617   -0.5829 C   0  0  0  0  0  0  0  0  0  0  0  0
   -0.0605   -1.3876   -0.5459 N   0  0  0  0  0  0  0  0  0  0  0  0
   -2.0883   -0.8824   -0.1089 H   0  0  0  0  0  0  0  0  0  0  0  0
   -1.2824    1.5239    0.2531 H   0  0  0  0  0  0  0  0  0  0  0  0
    1.2824    1.5745   -0.1579 H   0  0  0  0  0  0  0  0  0  0  0  0
    2.1150   -0.8576   -0.7945 H   0  0  0  0  0  0  0  0  0  0  0  0
  1  2  1  0
  2  3  2  0
  3  4  1  0
  4  5  2  0
  5  1  1  0
  1  6  1  0
  2  7  1  0
  3  8  1  0
  4  9  1  0
M  END
$$$$
