@<TRIPOS>MOLECULE
*****
 41 44 0 0 0
SMALL
GASTEIGER

@<TRIPOS>ATOM
      1 CL         -3.5150   -3.8138    2.7399 Cl      1  UNL1       -0.0835
      2 C          -2.5017   -2.7068    1.8273 C.ar    1  UNL1        0.0413
      3 C          -2.8908   -1.3940    1.7413 C.ar    1  UNL1       -0.0396
      4 C          -2.1222   -0.4652    1.0274 C.ar    1  UNL1       -0.0379
      5 C          -0.9729   -1.0238    0.4498 C.ar    1  UNL1       -0.0126
      6 C          -0.5393   -2.3487    0.5088 C.ar    1  UNL1       -0.0523
      7 C          -1.3470   -3.1936    1.2263 C.ar    1  UNL1       -0.0428
      8 C           0.0084   -0.2390   -0.3456 C.2     1  UNL1        0.0073
      9 C           1.3163   -0.4149   -0.0402 C.2     1  UNL1       -0.0574
     10 C           2.3872    0.2920   -0.7754 C.3     1  UNL1       -0.0182
     11 C           3.7250    0.0196   -0.1448 C.3     1  UNL1       -0.0004
     12 N           3.7481    0.4317    1.2398 N.3     1  UNL1       -0.3154
     13 C           2.6678   -0.1591    1.9774 C.3     1  UNL1       -0.0004
     14 C           1.8965   -1.1590    1.0914 C.3     1  UNL1       -0.0182
     15 C          -0.4247    0.7800   -1.3468 C.ar    1  UNL1        0.0747
     16 C          -1.6519    1.4738   -1.3031 C.ar    1  UNL1       -0.0211
     17 C          -2.8197    1.4594   -0.4216 C.3     1  UNL1       -0.0216
     18 C          -2.6212    0.9308    0.9553 C.3     1  UNL1       -0.0230
     19 C          -1.8236    2.4010   -2.3381 C.ar    1  UNL1       -0.0551
     20 C          -0.7879    2.5294   -3.2709 C.ar    1  UNL1       -0.0433
     21 C           0.4042    1.8009   -3.2455 C.ar    1  UNL1        0.0283
     22 N           0.5231    0.9320   -2.2440 N.ar    1  UNL1       -0.2547
     23 H          -3.7823   -0.9893    2.1975 H       1  UNL1        0.0635
     24 H           0.3803   -2.5901   -0.0289 H       1  UNL1        0.0624
     25 H          -1.0267   -4.2226    1.2837 H       1  UNL1        0.0632
     26 H           2.4293   -0.0413   -1.8495 H       1  UNL1        0.0323
     27 H           2.2074    1.3580   -0.7027 H       1  UNL1        0.0323
     28 H           4.0675   -1.0277   -0.2154 H       1  UNL1        0.0427
     29 H           4.5131    0.6080   -0.7036 H       1  UNL1        0.0427
     30 H           4.6672    0.2003    1.6666 H       1  UNL1        0.1220
     31 H           3.0986   -0.7268    2.8256 H       1  UNL1        0.0427
     32 H           2.0260    0.6232    2.3806 H       1  UNL1        0.0427
     33 H           2.5796   -1.9368    0.7884 H       1  UNL1        0.0323
     34 H           1.1481   -1.5666    1.8143 H       1  UNL1        0.0323
     35 H          -3.6684    0.8929   -0.9043 H       1  UNL1        0.0317
     36 H          -3.1926    2.4983   -0.3207 H       1  UNL1        0.0317
     37 H          -1.9898    1.6277    1.5496 H       1  UNL1        0.0317
     38 H          -3.6188    0.9210    1.4402 H       1  UNL1        0.0317
     39 H          -2.7045    3.0171   -2.4546 H       1  UNL1        0.0621
     40 H          -0.9229    3.2469   -4.0703 H       1  UNL1        0.0633
     41 H           1.1301    1.9753   -4.0051 H       1  UNL1        0.0830
@<TRIPOS>BOND
     1     1     2    1
     2     2     3   ar
     3     3     4   ar
     4     4     5   ar
     5     5     6   ar
     6     6     7   ar
     7     5     8    1
     8     8     9    2
     9     9    10    1
    10    10    11    1
    11    11    12    1
    12    12    13    1
    13    13    14    1
    14     8    15    1
    15    15    16   ar
    16    16    17    1
    17    17    18    1
    18    16    19   ar
    19    19    20   ar
    20    20    21   ar
    21    21    22   ar
    22     7     2   ar
    23    14     9    1
    24    22    15   ar
    25    18     4    1
    26     3    23    1
    27     6    24    1
    28     7    25    1
    29    10    26    1
    30    10    27    1
    31    11    28    1
    32    11    29    1
    33    12    30    1
    34    13    31    1
    35    13    32    1
    36    14    33    1
    37    14    34    1
    38    17    35    1
    39    17    36    1
    40    18    37    1
    41    18    38    1
    42    19    39    1
    43    20    40    1
    44    21    41    1
