
     RDKit          3D

 41 44  0  0  0  0  0  0  0  0999 V2000
   -3.5150   -3.8138    2.7399 Cl  0  0  0  0  0  0  0  0  0  0  0  0
   -2.5017   -2.7068    1.8273 C   0  0  0  0  0  0  0  0  0  0  0  0
   -2.8908   -1.3940    1.7413 C   0  0  0  0  0  0  0  0  0  0  0  0
   -2.1222   -0.4652    1.0274 C   0  0  0  0  0  0  0  0  0  0  0  0
   -0.9729   -1.0238    0.4498 C   0  0  0  0  0  0  0  0  0  0  0  0
   -0.5393   -2.3487    0.5088 C   0  0  0  0  0  0  0  0  0  0  0  0
   -1.3470   -3.1936    1.2263 C   0  0  0  0  0  0  0  0  0  0  0  0
    0.0084   -0.2390   -0.3456 C   0  0  0  0  0  0  0  0  0  0  0  0
    1.3163   -0.4149   -0.0402 C   0  0  0  0  0  0  0  0  0  0  0  0
    2.3872    0.2920   -0.7754 C   0  0  0  0  0  0  0  0  0  0  0  0
    3.7250    0.0196   -0.1448 C   0  0  0  0  0  0  0  0  0  0  0  0
    3.7481    0.4317    1.2398 N   0  0  0  0  0  0  0  0  0  0  0  0
    2.6678   -0.1591    1.9774 C   0  0  0  0  0  0  0  0  0  0  0  0
    1.8965   -1.1590    1.0914 C   0  0  0  0  0  0  0  0  0  0  0  0
   -0.4247    0.7800   -1.3468 C   0  0  0  0  0  0  0  0  0  0  0  0
   -1.6519    1.4738   -1.3031 C   0  0  0  0  0  0  0  0  0  0  0  0
   -2.8197    1.4594   -0.4216 C   0  0  0  0  0  0  0  0  0  0  0  0
   -2.6212    0.9308    0.9553 C   0  0  0  0  0  0  0  0  0  0  0  0
   -1.8236    2.4010   -2.3381 C   0  0  0  0  0  0  0  0  0  0  0  0
   -0.7879    2.5294   -3.2709 C   0  0  0  0  0  0  0  0  0  0  0  0
    0.4042    1.8009   -3.2455 C   0  0  0  0  0  0  0  0  0  0  0  0
    0.5231    0.9320   -2.2440 N   0  0  0  0  0  0  0  0  0  0  0  0
   -3.7823   -0.9893    2.1975 H   0  0  0  0  0  0  0  0  0  0  0  0
    0.3803   -2.5901   -0.0289 H   0  0  0  0  0  0  0  0  0  0  0  0
   -1.0267   -4.2226    1.2837 H   0  0  0  0  0  0  0  0  0  0  0  0
    2.4293   -0.0413   -1.8495 H   0  0  0  0  0  0  0  0  0  0  0  0
    2.2074    1.3580   -0.7027 H   0  0  0  0  0  0  0  0  0  0  0  0
    4.0675   -1.0277   -0.2154 H   0  0  0  0  0  0  0  0  0  0  0  0
    4.5131    0.6080   -0.7036 H   0  0  0  0  0  0  0  0  0  0  0  0
    4.6672    0.2003    1.6666 H   0  0  0  0  0  0  0  0  0  0  0  0
    3.0986   -0.7268    2.8256 H   0  0  0  0  0  0  0  0  0  0  0  0
    2.0260    0.6232    2.3806 H   0  0  0  0  0  0  0  0  0  0  0  0
    2.5796   -1.9368    0.7884 H   0  0  0  0  0  0  0  0  0  0  0  0
    1.1481   -1.5666    1.8143 H   0  0  0  0  0  0  0  0  0  0  0  0
   -3.6684    0.8929   -0.9043 H   0  0  0  0  0  0  0  0  0  0  0  0
   -3.1926    2.4983   -0.3207 H   0  0  0  0  0  0  0  0  0  0  0  0
   -1.9898    1.6277    1.5496 H   0  0  0  0  0  0  0  0  0  0  0  0
   -3.6188    0.9210    1.4402 H   0  0  0  0  0  0  0  0  0  0  0  0
   -2.7045    3.0171   -2.4546 H   0  0  0  0  0  0  0  0  0  0  0  0
   -0.9229    3.2469   -4.0703 H   0  0  0  0  0  0  0  0  0  0  0  0
    1.1301    1.9753   -4.0051 H   0  0  0  0  0  0  0  0  0  0  0  0
  1  2  1  0
  2  3  2  0
  3  4  1  0
  4  5  2  0
  5  6  1  0
  6  7  2  0
  5  8  1  0
  8  9  2  3
  9 10  1  0
 10 11  1  0
 11 12  1  0
 12 13  1  0
 13 14  1  0
  8 15  1  0
 15 16  2  0
 16 17  1  0
 17 18  1  0
 16 19  1  0
 19 20  2  0
 20 21  1  0
 21 22  2  0
  7  2  1  0
 14  9  1  0
 22 15  1  0
 18  4  1  0
  3 23  1  0
  6 24  1  0
  7 25  1  0
 10 26  1  0
 10 27  1  0
 11 28  1  0
 11 29  1  0
 12 30  1  0
 13 31  1  0
 13 32  1  0
 14 33  1  0
 14 34  1  0
 17 35  1  0
 17 36  1  0
 18 37  1  0
 18 38  1  0
 19 39  1  0
 20 40  1  0
 21 41  1  0
M  END
$$$$
