@<TRIPOS>MOLECULE
*****
 69 71 0 0 0
SMALL
GASTEIGER

@<TRIPOS>ATOM
      1 C          -8.2241    0.8698   -0.1282 C.3     1  UNL1       -0.0130
      2 N          -7.0813    0.4449   -0.9126 N.3     1  UNL1       -0.3069
      3 C          -7.0259    1.2690   -2.1250 C.3     1  UNL1       -0.0130
      4 C          -5.8450    0.5940   -0.1536 C.3     1  UNL1        0.0141
      5 C          -4.6518    0.1619   -0.9423 C.3     1  UNL1        0.0275
      6 N          -3.4623    0.3428   -0.1132 N.am    1  UNL1       -0.2987
      7 C          -3.0671   -0.7714    0.7074 C.3     1  UNL1        0.0305
      8 C          -1.5788   -1.1062    0.5171 C.3     1  UNL1        0.0308
      9 N          -0.7274   -0.0930    1.0270 N.am    1  UNL1       -0.2955
     10 C           0.6454   -0.2014    1.0345 C.2     1  UNL1        0.2490
     11 O           1.2440    0.8398    1.5606 O.2     1  UNL1       -0.2699
     12 C           1.5574   -1.2444    0.5745 C.ar    1  UNL1        0.0657
     13 C           1.2536   -2.3696   -0.0863 C.ar    1  UNL1       -0.0370
     14 C           2.1579   -3.2766   -0.4863 C.ar    1  UNL1       -0.0023
     15 C           2.0818   -4.5421   -1.1994 C.3     1  UNL1       -0.0064
     16 C           1.9060   -5.6504   -0.1829 C.3     1  UNL1       -0.0556
     17 C           1.0334   -4.5660   -2.2562 C.3     1  UNL1       -0.0556
     18 C           3.4259   -4.7819   -1.8761 C.3     1  UNL1       -0.0556
     19 S           3.7182   -2.5358    0.1051 S.2     1  UNL1       -0.0771
     20 C           2.9363   -1.0682    0.8309 C.ar    1  UNL1        0.0853
     21 N           3.6488   -0.0375    1.4880 N.am    1  UNL1       -0.2629
     22 C           4.1343    1.0870    0.7281 C.2     1  UNL1        0.3085
     23 O           3.8915    1.0817   -0.4845 O.2     1  UNL1       -0.2521
     24 N           4.8502    2.1445    1.3253 N.am    1  UNL1       -0.2678
     25 C           5.3670    3.2874    0.6716 C.ar    1  UNL1        0.0546
     26 C           5.2698    3.5830   -0.6580 C.ar    1  UNL1       -0.0389
     27 C           5.8196    4.7390   -1.1853 C.ar    1  UNL1       -0.0585
     28 C           6.4850    5.6402   -0.4060 C.ar    1  UNL1       -0.0419
     29 C           6.5944    5.3614    0.9370 C.ar    1  UNL1        0.0610
     30 CL          7.4479    6.5174    1.9353 Cl      1  UNL1       -0.0820
     31 C           6.0473    4.2124    1.4574 C.ar    1  UNL1        0.0804
     32 CL          6.2447    3.9564    3.1786 Cl      1  UNL1       -0.0801
     33 C          -1.2304    1.1820    1.5982 C.3     1  UNL1        0.0233
     34 C          -1.6008    2.1151    0.4747 C.3     1  UNL1        0.0399
     35 C          -2.8290    1.6115   -0.2162 C.2     1  UNL1        0.2171
     36 O          -3.3408    2.4707   -0.9906 O.2     1  UNL1       -0.2755
     37 H          -8.8945    1.5102   -0.7428 H       1  UNL1        0.0391
     38 H          -7.9426    1.3076    0.8335 H       1  UNL1        0.0391
     39 H          -8.8225   -0.0520    0.0916 H       1  UNL1        0.0391
     40 H          -6.7261    2.3156   -1.8837 H       1  UNL1        0.0391
     41 H          -8.0473    1.3128   -2.5255 H       1  UNL1        0.0391
     42 H          -6.3726    0.7800   -2.8496 H       1  UNL1        0.0391
     43 H          -5.9401   -0.0693    0.7253 H       1  UNL1        0.0442
     44 H          -5.7649    1.6666    0.1128 H       1  UNL1        0.0442
     45 H          -4.4927    0.7511   -1.8612 H       1  UNL1        0.0477
     46 H          -4.7463   -0.9080   -1.1773 H       1  UNL1        0.0477
     47 H          -3.3201   -0.5604    1.7576 H       1  UNL1        0.0480
     48 H          -3.5997   -1.7021    0.3524 H       1  UNL1        0.0480
     49 H          -1.4316   -2.0774    1.0324 H       1  UNL1        0.0480
     50 H          -1.4671   -1.1685   -0.5747 H       1  UNL1        0.0480
     51 H           0.1842   -2.6247   -0.3618 H       1  UNL1        0.0634
     52 H           2.5383   -5.3549    0.7015 H       1  UNL1        0.0238
     53 H           2.2470   -6.6350   -0.5586 H       1  UNL1        0.0238
     54 H           0.8691   -5.6536    0.1719 H       1  UNL1        0.0238
     55 H           0.7319   -5.6426   -2.4103 H       1  UNL1        0.0238
     56 H           0.0955   -4.0431   -1.9570 H       1  UNL1        0.0238
     57 H           1.4295   -4.2248   -3.2224 H       1  UNL1        0.0238
     58 H           3.6547   -5.8543   -1.8439 H       1  UNL1        0.0238
     59 H           3.3588   -4.4311   -2.9466 H       1  UNL1        0.0238
     60 H           4.2235   -4.1525   -1.4094 H       1  UNL1        0.0238
     61 H           3.8497   -0.0436    2.5216 H       1  UNL1        0.1569
     62 H           4.9949    2.0312    2.3812 H       1  UNL1        0.1564
     63 H           4.7469    2.8967   -1.3320 H       1  UNL1        0.0637
     64 H           5.7288    4.9493   -2.2405 H       1  UNL1        0.0619
     65 H           6.9264    6.5600   -0.8060 H       1  UNL1        0.0633
     66 H          -0.4044    1.6712    2.1779 H       1  UNL1        0.0469
     67 H          -2.0843    0.9506    2.2248 H       1  UNL1        0.0469
     68 H          -0.7879    2.1232   -0.2854 H       1  UNL1        0.0374
     69 H          -1.8302    3.1048    0.8702 H       1  UNL1        0.0374
@<TRIPOS>BOND
     1     1     2    1
     2     2     3    1
     3     2     4    1
     4     4     5    1
     5     5     6    1
     6     6     7    1
     7     7     8    1
     8     8     9    1
     9     9    10   am
    10    10    11    2
    11    10    12    1
    12    12    13   ar
    13    13    14   ar
    14    14    15    1
    15    15    16    1
    16    15    17    1
    17    15    18    1
    18    14    19   ar
    19    19    20   ar
    20    20    21    1
    21    21    22   am
    22    22    23    2
    23    22    24   am
    24    24    25    1
    25    25    26   ar
    26    26    27   ar
    27    27    28   ar
    28    28    29   ar
    29    29    30    1
    30    29    31   ar
    31    31    32    1
    32     9    33    1
    33    33    34    1
    34    34    35    1
    35    35    36    2
    36    35     6   am
    37    20    12   ar
    38    31    25   ar
    39     1    37    1
    40     1    38    1
    41     1    39    1
    42     3    40    1
    43     3    41    1
    44     3    42    1
    45     4    43    1
    46     4    44    1
    47     5    45    1
    48     5    46    1
    49     7    47    1
    50     7    48    1
    51     8    49    1
    52     8    50    1
    53    13    51    1
    54    16    52    1
    55    16    53    1
    56    16    54    1
    57    17    55    1
    58    17    56    1
    59    17    57    1
    60    18    58    1
    61    18    59    1
    62    18    60    1
    63    21    61    1
    64    24    62    1
    65    26    63    1
    66    27    64    1
    67    28    65    1
    68    33    66    1
    69    33    67    1
    70    34    68    1
    71    34    69    1
