
     RDKit          3D

 69 71  0  0  0  0  0  0  0  0999 V2000
   -8.2241    0.8698   -0.1282 C   0  0  0  0  0  0  0  0  0  0  0  0
   -7.0813    0.4449   -0.9126 N   0  0  0  0  0  0  0  0  0  0  0  0
   -7.0259    1.2690   -2.1250 C   0  0  0  0  0  0  0  0  0  0  0  0
   -5.8450    0.5940   -0.1536 C   0  0  0  0  0  0  0  0  0  0  0  0
   -4.6518    0.1619   -0.9423 C   0  0  0  0  0  0  0  0  0  0  0  0
   -3.4623    0.3428   -0.1132 N   0  0  0  0  0  0  0  0  0  0  0  0
   -3.0671   -0.7714    0.7074 C   0  0  0  0  0  0  0  0  0  0  0  0
   -1.5788   -1.1062    0.5171 C   0  0  0  0  0  0  0  0  0  0  0  0
   -0.7274   -0.0930    1.0270 N   0  0  0  0  0  0  0  0  0  0  0  0
    0.6454   -0.2014    1.0345 C   0  0  0  0  0  0  0  0  0  0  0  0
    1.2440    0.8398    1.5606 O   0  0  0  0  0  0  0  0  0  0  0  0
    1.5574   -1.2444    0.5745 C   0  0  0  0  0  0  0  0  0  0  0  0
    1.2536   -2.3696   -0.0863 C   0  0  0  0  0  0  0  0  0  0  0  0
    2.1579   -3.2766   -0.4863 C   0  0  0  0  0  0  0  0  0  0  0  0
    2.0818   -4.5421   -1.1994 C   0  0  0  0  0  0  0  0  0  0  0  0
    1.9060   -5.6504   -0.1829 C   0  0  0  0  0  0  0  0  0  0  0  0
    1.0334   -4.5660   -2.2562 C   0  0  0  0  0  0  0  0  0  0  0  0
    3.4259   -4.7819   -1.8761 C   0  0  0  0  0  0  0  0  0  0  0  0
    3.7182   -2.5358    0.1051 S   0  0  0  0  0  0  0  0  0  0  0  0
    2.9363   -1.0682    0.8309 C   0  0  0  0  0  0  0  0  0  0  0  0
    3.6488   -0.0375    1.4880 N   0  0  0  0  0  0  0  0  0  0  0  0
    4.1343    1.0870    0.7281 C   0  0  0  0  0  0  0  0  0  0  0  0
    3.8915    1.0817   -0.4845 O   0  0  0  0  0  0  0  0  0  0  0  0
    4.8502    2.1445    1.3253 N   0  0  0  0  0  0  0  0  0  0  0  0
    5.3670    3.2874    0.6716 C   0  0  0  0  0  0  0  0  0  0  0  0
    5.2698    3.5830   -0.6580 C   0  0  0  0  0  0  0  0  0  0  0  0
    5.8196    4.7390   -1.1853 C   0  0  0  0  0  0  0  0  0  0  0  0
    6.4850    5.6402   -0.4060 C   0  0  0  0  0  0  0  0  0  0  0  0
    6.5944    5.3614    0.9370 C   0  0  0  0  0  0  0  0  0  0  0  0
    7.4479    6.5174    1.9353 Cl  0  0  0  0  0  0  0  0  0  0  0  0
    6.0473    4.2124    1.4574 C   0  0  0  0  0  0  0  0  0  0  0  0
    6.2447    3.9564    3.1786 Cl  0  0  0  0  0  0  0  0  0  0  0  0
   -1.2304    1.1820    1.5982 C   0  0  0  0  0  0  0  0  0  0  0  0
   -1.6008    2.1151    0.4747 C   0  0  0  0  0  0  0  0  0  0  0  0
   -2.8290    1.6115   -0.2162 C   0  0  0  0  0  0  0  0  0  0  0  0
   -3.3408    2.4707   -0.9906 O   0  0  0  0  0  0  0  0  0  0  0  0
   -8.8945    1.5102   -0.7428 H   0  0  0  0  0  0  0  0  0  0  0  0
   -7.9426    1.3076    0.8335 H   0  0  0  0  0  0  0  0  0  0  0  0
   -8.8225   -0.0520    0.0916 H   0  0  0  0  0  0  0  0  0  0  0  0
   -6.7261    2.3156   -1.8837 H   0  0  0  0  0  0  0  0  0  0  0  0
   -8.0473    1.3128   -2.5255 H   0  0  0  0  0  0  0  0  0  0  0  0
   -6.3726    0.7800   -2.8496 H   0  0  0  0  0  0  0  0  0  0  0  0
   -5.9401   -0.0693    0.7253 H   0  0  0  0  0  0  0  0  0  0  0  0
   -5.7649    1.6666    0.1128 H   0  0  0  0  0  0  0  0  0  0  0  0
   -4.4927    0.7511   -1.8612 H   0  0  0  0  0  0  0  0  0  0  0  0
   -4.7463   -0.9080   -1.1773 H   0  0  0  0  0  0  0  0  0  0  0  0
   -3.3201   -0.5604    1.7576 H   0  0  0  0  0  0  0  0  0  0  0  0
   -3.5997   -1.7021    0.3524 H   0  0  0  0  0  0  0  0  0  0  0  0
   -1.4316   -2.0774    1.0324 H   0  0  0  0  0  0  0  0  0  0  0  0
   -1.4671   -1.1685   -0.5747 H   0  0  0  0  0  0  0  0  0  0  0  0
    0.1842   -2.6247   -0.3618 H   0  0  0  0  0  0  0  0  0  0  0  0
    2.5383   -5.3549    0.7015 H   0  0  0  0  0  0  0  0  0  0  0  0
    2.2470   -6.6350   -0.5586 H   0  0  0  0  0  0  0  0  0  0  0  0
    0.8691   -5.6536    0.1719 H   0  0  0  0  0  0  0  0  0  0  0  0
    0.7319   -5.6426   -2.4103 H   0  0  0  0  0  0  0  0  0  0  0  0
    0.0955   -4.0431   -1.9570 H   0  0  0  0  0  0  0  0  0  0  0  0
    1.4295   -4.2248   -3.2224 H   0  0  0  0  0  0  0  0  0  0  0  0
    3.6547   -5.8543   -1.8439 H   0  0  0  0  0  0  0  0  0  0  0  0
    3.3588   -4.4311   -2.9466 H   0  0  0  0  0  0  0  0  0  0  0  0
    4.2235   -4.1525   -1.4094 H   0  0  0  0  0  0  0  0  0  0  0  0
    3.8497   -0.0436    2.5216 H   0  0  0  0  0  0  0  0  0  0  0  0
    4.9949    2.0312    2.3812 H   0  0  0  0  0  0  0  0  0  0  0  0
    4.7469    2.8967   -1.3320 H   0  0  0  0  0  0  0  0  0  0  0  0
    5.7288    4.9493   -2.2405 H   0  0  0  0  0  0  0  0  0  0  0  0
    6.9264    6.5600   -0.8060 H   0  0  0  0  0  0  0  0  0  0  0  0
   -0.4044    1.6712    2.1779 H   0  0  0  0  0  0  0  0  0  0  0  0
   -2.0843    0.9506    2.2248 H   0  0  0  0  0  0  0  0  0  0  0  0
   -0.7879    2.1232   -0.2854 H   0  0  0  0  0  0  0  0  0  0  0  0
   -1.8302    3.1048    0.8702 H   0  0  0  0  0  0  0  0  0  0  0  0
  1  2  1  0
  2  3  1  0
  2  4  1  0
  4  5  1  0
  5  6  1  0
  6  7  1  0
  7  8  1  0
  8  9  1  0
  9 10  1  0
 10 11  2  0
 10 12  1  0
 12 13  1  0
 13 14  2  0
 14 15  1  0
 15 16  1  0
 15 17  1  0
 15 18  1  0
 14 19  1  0
 19 20  1  0
 20 21  1  0
 21 22  1  0
 22 23  2  0
 22 24  1  0
 24 25  1  0
 25 26  2  0
 26 27  1  0
 27 28  2  0
 28 29  1  0
 29 30  1  0
 29 31  2  0
 31 32  1  0
  9 33  1  0
 33 34  1  0
 34 35  1  0
 35 36  2  0
 35  6  1  0
 20 12  2  0
 31 25  1  0
  1 37  1  0
  1 38  1  0
  1 39  1  0
  3 40  1  0
  3 41  1  0
  3 42  1  0
  4 43  1  0
  4 44  1  0
  5 45  1  0
  5 46  1  0
  7 47  1  0
  7 48  1  0
  8 49  1  0
  8 50  1  0
 13 51  1  0
 16 52  1  0
 16 53  1  0
 16 54  1  0
 17 55  1  0
 17 56  1  0
 17 57  1  0
 18 58  1  0
 18 59  1  0
 18 60  1  0
 21 61  1  0
 24 62  1  0
 26 63  1  0
 27 64  1  0
 28 65  1  0
 33 66  1  0
 33 67  1  0
 34 68  1  0
 34 69  1  0
M  END
$$$$
