@<TRIPOS>MOLECULE
*****
 64 65 0 0 0
SMALL
GASTEIGER

@<TRIPOS>ATOM
      1 C           9.5899    0.5052   -0.8559 C.3     1  UNL1       -0.0653
      2 C           8.2269   -0.2140   -0.6267 C.3     1  UNL1       -0.0559
      3 C           8.0936   -0.5118    0.8121 C.3     1  UNL1       -0.0533
      4 C           6.9458   -1.2610    1.2992 C.3     1  UNL1       -0.0531
      5 C           5.5540   -0.7946    1.1744 C.3     1  UNL1       -0.0531
      6 C           4.9795   -0.6257   -0.1733 C.3     1  UNL1       -0.0531
      7 C           3.5124   -0.1850   -0.1346 C.3     1  UNL1       -0.0530
      8 C           2.6222   -1.1577    0.5552 C.3     1  UNL1       -0.0514
      9 C           1.1900   -0.6252    0.5022 C.3     1  UNL1       -0.0333
     10 C           1.0270    0.7006    1.1688 C.3     1  UNL1        0.0432
     11 N          -0.3627    1.1187    1.0759 N.ar    1  UNL1       -0.2514
     12 C          -1.3776    0.8838    1.9243 C.ar    1  UNL1        0.0499
     13 C          -2.5320    1.4660    1.4473 C.ar    1  UNL1        0.0965
     14 C          -3.8885    1.4992    1.9943 C.3     1  UNL1        0.0421
     15 N          -4.7556    0.4500    1.6141 N.3     1  UNL1       -0.3031
     16 C          -5.0676    0.3198    0.2333 C.3     1  UNL1        0.0652
     17 C          -5.9757   -0.9089    0.0649 C.3     1  UNL1        0.1013
     18 O          -5.2451   -1.9871    0.6107 O.3     1  UNL1       -0.3875
     19 C          -6.1846   -1.2459   -1.3905 C.3     1  UNL1        0.1108
     20 O          -7.4049   -1.9332   -1.4798 O.3     1  UNL1       -0.3865
     21 C          -6.3297   -0.0001   -2.2356 C.3     1  UNL1        0.1117
     22 O          -5.1325    0.3536   -2.8509 O.3     1  UNL1       -0.3865
     23 C          -6.8620    1.0854   -1.3458 C.3     1  UNL1        0.1108
     24 O          -8.0353    0.6337   -0.7571 O.3     1  UNL1       -0.3865
     25 C          -5.8217    1.5084   -0.3158 C.3     1  UNL1        0.1013
     26 O          -5.0183    2.4414   -0.9441 O.3     1  UNL1       -0.3875
     27 N          -2.1659    2.0504    0.2927 N.ar    1  UNL1       -0.1332
     28 N          -0.8764    1.8293    0.0968 N.ar    1  UNL1       -0.0654
     29 H           9.6644    1.3186   -0.1275 H       1  UNL1        0.0230
     30 H          10.3912   -0.2217   -0.7168 H       1  UNL1        0.0230
     31 H           9.5525    0.8474   -1.9079 H       1  UNL1        0.0230
     32 H           8.2254   -1.1064   -1.2435 H       1  UNL1        0.0263
     33 H           7.5188    0.5722   -0.9751 H       1  UNL1        0.0263
     34 H           9.0400   -1.0356    1.1841 H       1  UNL1        0.0265
     35 H           8.1480    0.4798    1.3988 H       1  UNL1        0.0265
     36 H           7.0117   -2.3425    0.8796 H       1  UNL1        0.0265
     37 H           7.1303   -1.4418    2.4256 H       1  UNL1        0.0265
     38 H           4.8672   -1.5203    1.7257 H       1  UNL1        0.0265
     39 H           5.4265    0.1518    1.7844 H       1  UNL1        0.0265
     40 H           5.0570   -1.5644   -0.7558 H       1  UNL1        0.0265
     41 H           5.4723    0.1867   -0.7329 H       1  UNL1        0.0265
     42 H           3.1938   -0.0387   -1.1701 H       1  UNL1        0.0265
     43 H           3.5164    0.7745    0.4541 H       1  UNL1        0.0265
     44 H           2.6216   -2.1451    0.0692 H       1  UNL1        0.0266
     45 H           2.9141   -1.3240    1.6228 H       1  UNL1        0.0266
     46 H           0.9279   -0.6039   -0.5812 H       1  UNL1        0.0283
     47 H           0.5605   -1.4223    0.9477 H       1  UNL1        0.0283
     48 H           1.3524    0.6200    2.2067 H       1  UNL1        0.0509
     49 H           1.6311    1.4519    0.6077 H       1  UNL1        0.0509
     50 H          -1.3243    0.3305    2.8402 H       1  UNL1        0.0845
     51 H          -4.3513    2.4790    1.7613 H       1  UNL1        0.0490
     52 H          -3.7973    1.4745    3.1095 H       1  UNL1        0.0490
     53 H          -4.5846   -0.4633    2.0642 H       1  UNL1        0.1227
     54 H          -4.1402    0.0887   -0.3256 H       1  UNL1        0.0513
     55 H          -6.8906   -0.8342    0.6514 H       1  UNL1        0.0636
     56 H          -5.7234   -2.4396    1.3292 H       1  UNL1        0.2100
     57 H          -5.4084   -1.9391   -1.7777 H       1  UNL1        0.0646
     58 H          -7.2664   -2.9047   -1.6291 H       1  UNL1        0.2100
     59 H          -7.0728   -0.1772   -3.0411 H       1  UNL1        0.0647
     60 H          -4.4820   -0.3715   -2.8658 H       1  UNL1        0.2100
     61 H          -7.1423    1.9839   -1.9643 H       1  UNL1        0.0646
     62 H          -8.8191    0.7889   -1.3383 H       1  UNL1        0.2100
     63 H          -6.3704    1.9788    0.5076 H       1  UNL1        0.0636
     64 H          -5.5552    2.9739   -1.5620 H       1  UNL1        0.2100
@<TRIPOS>BOND
     1     1     2    1
     2     2     3    1
     3     3     4    1
     4     4     5    1
     5     5     6    1
     6     6     7    1
     7     7     8    1
     8     8     9    1
     9     9    10    1
    10    10    11    1
    11    11    12   ar
    12    12    13   ar
    13    13    14    1
    14    14    15    1
    15    15    16    1
    16    16    17    1
    17    17    18    1
    18    17    19    1
    19    19    20    1
    20    19    21    1
    21    21    22    1
    22    21    23    1
    23    23    24    1
    24    23    25    1
    25    25    26    1
    26    13    27   ar
    27    27    28   ar
    28    28    11   ar
    29    25    16    1
    30     1    29    1
    31     1    30    1
    32     1    31    1
    33     2    32    1
    34     2    33    1
    35     3    34    1
    36     3    35    1
    37     4    36    1
    38     4    37    1
    39     5    38    1
    40     5    39    1
    41     6    40    1
    42     6    41    1
    43     7    42    1
    44     7    43    1
    45     8    44    1
    46     8    45    1
    47     9    46    1
    48     9    47    1
    49    10    48    1
    50    10    49    1
    51    12    50    1
    52    14    51    1
    53    14    52    1
    54    15    53    1
    55    16    54    1
    56    17    55    1
    57    18    56    1
    58    19    57    1
    59    20    58    1
    60    21    59    1
    61    22    60    1
    62    23    61    1
    63    24    62    1
    64    25    63    1
    65    26    64    1
