@<TRIPOS>MOLECULE
*****
 56 60 0 0 0
SMALL
GASTEIGER

@<TRIPOS>ATOM
      1 C          -4.2939    4.8592   -0.8195 C.3     1  UNL1        0.0124
      2 C          -4.8443    3.7206   -0.0245 C.2     1  UNL1        0.2128
      3 O          -6.0474    3.8565    0.3743 O.2     1  UNL1       -0.2759
      4 N          -4.0985    2.5655    0.2744 N.am    1  UNL1       -0.2968
      5 C          -4.7100    1.5175    1.0464 C.3     1  UNL1        0.0204
      6 C          -4.4261    0.2161    0.2723 C.3     1  UNL1        0.0055
      7 C          -3.0013   -0.0084    0.3247 C.ar    1  UNL1        0.0477
      8 C          -2.1846    1.0829    0.0973 C.ar    1  UNL1        0.0324
      9 C          -0.8890    0.6261    0.1969 C.ar    1  UNL1        0.1499
     10 N           0.3041    1.4294    0.0310 N.pl3   1  UNL1       -0.2955
     11 C           1.5917    0.8653    0.1475 C.ar    1  UNL1        0.0681
     12 C           2.4765    0.9049   -0.9047 C.ar    1  UNL1       -0.0371
     13 C           3.7511    0.3527   -0.8083 C.ar    1  UNL1       -0.0520
     14 C           4.1405   -0.2464    0.3601 C.ar    1  UNL1       -0.0121
     15 C           5.4756   -0.8248    0.4605 C.ar    1  UNL1        0.0196
     16 C           5.8345   -1.9180    1.2250 C.ar    1  UNL1        0.0571
     17 N           7.1522   -2.1330    1.0440 N.ar    1  UNL1       -0.1793
     18 N           7.6630   -1.2418    0.2073 N.ar    1  UNL1       -0.2739
     19 C           9.0629   -1.1713   -0.2204 C.3     1  UNL1        0.0302
     20 C           6.6459   -0.4277   -0.1627 C.ar    1  UNL1        0.0329
     21 C           3.2550   -0.2859    1.4128 C.ar    1  UNL1       -0.0168
     22 C           1.9706    0.2663    1.3270 C.ar    1  UNL1        0.1450
     23 F           1.1075    0.2206    2.3722 F       1  UNL1       -0.2035
     24 N          -0.9763   -0.6616    0.4678 N.ar    1  UNL1       -0.1551
     25 N          -2.2362   -1.0562    0.5475 N.ar    1  UNL1       -0.2608
     26 C          -2.5186   -2.4274    0.8367 C.3     1  UNL1        0.0784
     27 C          -1.7702   -3.2120   -0.2719 C.3     1  UNL1       -0.0048
     28 C          -2.8202   -3.0857   -1.3845 C.3     1  UNL1        0.0498
     29 O          -3.9974   -2.6558   -0.8060 O.3     1  UNL1       -0.3776
     30 C          -3.8478   -2.9451    0.5398 C.3     1  UNL1        0.0701
     31 C          -2.7443    2.4420   -0.1903 C.3     1  UNL1        0.0447
     32 H          -4.7318    4.7791   -1.8353 H       1  UNL1        0.0323
     33 H          -4.6721    5.7876   -0.3542 H       1  UNL1        0.0323
     34 H          -3.1844    4.8176   -0.8404 H       1  UNL1        0.0323
     35 H          -5.7776    1.6558    1.2140 H       1  UNL1        0.0468
     36 H          -4.1267    1.4352    2.0019 H       1  UNL1        0.0468
     37 H          -5.1271   -0.5439    0.5300 H       1  UNL1        0.0343
     38 H          -4.6679    0.5070   -0.7980 H       1  UNL1        0.0343
     39 H           0.1600    2.4265   -0.1749 H       1  UNL1        0.1537
     40 H           2.1522    1.3788   -1.8118 H       1  UNL1        0.0637
     41 H           4.4317    0.3857   -1.6245 H       1  UNL1        0.0624
     42 H           5.2173   -2.5224    1.8645 H       1  UNL1        0.0854
     43 H           9.1104   -0.4172   -1.0348 H       1  UNL1        0.0473
     44 H           9.6259   -0.7159    0.6381 H       1  UNL1        0.0473
     45 H           9.4615   -2.1518   -0.4907 H       1  UNL1        0.0473
     46 H           6.7418    0.4034   -0.8419 H       1  UNL1        0.0832
     47 H           3.5698   -0.7608    2.3326 H       1  UNL1        0.0653
     48 H          -2.1614   -2.7834    1.8079 H       1  UNL1        0.0568
     49 H          -0.8279   -2.7260   -0.5320 H       1  UNL1        0.0309
     50 H          -1.6904   -4.2709    0.0117 H       1  UNL1        0.0309
     51 H          -2.4458   -2.2348   -2.0214 H       1  UNL1        0.0560
     52 H          -2.9437   -4.0096   -1.9461 H       1  UNL1        0.0560
     53 H          -3.7489   -4.0825    0.5476 H       1  UNL1        0.0581
     54 H          -4.6703   -2.7634    1.1977 H       1  UNL1        0.0581
     55 H          -2.6577    2.5684   -1.3051 H       1  UNL1        0.0515
     56 H          -2.0619    3.2131    0.2421 H       1  UNL1        0.0515
@<TRIPOS>BOND
     1     1     2    1
     2     2     3    2
     3     2     4   am
     4     4     5    1
     5     5     6    1
     6     6     7    1
     7     7     8   ar
     8     8     9   ar
     9     9    10    1
    10    10    11    1
    11    11    12   ar
    12    12    13   ar
    13    13    14   ar
    14    14    15    1
    15    15    16   ar
    16    16    17   ar
    17    17    18   ar
    18    18    19    1
    19    18    20   ar
    20    14    21   ar
    21    21    22   ar
    22    22    23    1
    23     9    24   ar
    24    24    25   ar
    25    25    26    1
    26    26    27    1
    27    27    28    1
    28    28    29    1
    29    29    30    1
    30     8    31    1
    31    31     4    1
    32    25     7   ar
    33    30    26    1
    34    22    11   ar
    35    20    15   ar
    36     1    32    1
    37     1    33    1
    38     1    34    1
    39     5    35    1
    40     5    36    1
    41     6    37    1
    42     6    38    1
    43    10    39    1
    44    12    40    1
    45    13    41    1
    46    16    42    1
    47    19    43    1
    48    19    44    1
    49    19    45    1
    50    20    46    1
    51    21    47    1
    52    26    48    1
    53    27    49    1
    54    27    50    1
    55    28    51    1
    56    28    52    1
    57    30    53    1
    58    30    54    1
    59    31    55    1
    60    31    56    1
