
     RDKit          3D

 26 26  0  0  0  0  0  0  0  0999 V2000
   -2.7144    1.4150    0.1776 C   0  0  0  0  0  0  0  0  0  0  0  0
   -1.5013    0.7925   -0.3165 N   0  0  0  0  0  0  0  0  0  0  0  0
   -1.2736   -0.5000    0.3178 C   0  0  1  0  0  0  0  0  0  0  0  0
   -2.4699   -1.3807   -0.0070 C   0  0  0  0  0  0  0  0  0  0  0  0
   -0.0767   -1.1417   -0.2466 C   0  0  0  0  0  0  0  0  0  0  0  0
    1.1886   -0.4219   -0.1096 C   0  0  0  0  0  0  0  0  0  0  0  0
    2.0146   -0.6071    0.9936 C   0  0  0  0  0  0  0  0  0  0  0  0
    3.1952    0.0494    1.1449 C   0  0  0  0  0  0  0  0  0  0  0  0
    3.5916    0.9328    0.1700 C   0  0  0  0  0  0  0  0  0  0  0  0
    2.8154    1.1695   -0.9636 C   0  0  0  0  0  0  0  0  0  0  0  0
    1.6238    0.4809   -1.0761 C   0  0  0  0  0  0  0  0  0  0  0  0
   -2.6183    2.5082    0.0617 H   0  0  0  0  0  0  0  0  0  0  0  0
   -3.5979    1.0879   -0.3833 H   0  0  0  0  0  0  0  0  0  0  0  0
   -2.8496    1.2045    1.2621 H   0  0  0  0  0  0  0  0  0  0  0  0
   -1.6618    0.5988   -1.3437 H   0  0  0  0  0  0  0  0  0  0  0  0
   -1.2996   -0.3598    1.3948 H   0  0  0  0  0  0  0  0  0  0  0  0
   -2.9437   -1.0863   -0.9648 H   0  0  0  0  0  0  0  0  0  0  0  0
   -3.2288   -1.3686    0.7970 H   0  0  0  0  0  0  0  0  0  0  0  0
   -2.1197   -2.4329   -0.1001 H   0  0  0  0  0  0  0  0  0  0  0  0
   -0.2488   -1.3250   -1.3282 H   0  0  0  0  0  0  0  0  0  0  0  0
    0.0509   -2.1683    0.1947 H   0  0  0  0  0  0  0  0  0  0  0  0
    1.6578   -1.3038    1.7188 H   0  0  0  0  0  0  0  0  0  0  0  0
    3.7820   -0.1492    2.0322 H   0  0  0  0  0  0  0  0  0  0  0  0
    4.5281    1.4616    0.2775 H   0  0  0  0  0  0  0  0  0  0  0  0
    3.1423    1.8759   -1.7335 H   0  0  0  0  0  0  0  0  0  0  0  0
    1.0138    0.6685   -1.9695 H   0  0  0  0  0  0  0  0  0  0  0  0
  1  2  1  0
  2  3  1  0
  3  4  1  0
  3  5  1  0
  5  6  1  0
  6  7  2  0
  7  8  1  0
  8  9  2  0
  9 10  1  0
 10 11  2  0
 11  6  1  0
  1 12  1  0
  1 13  1  0
  1 14  1  0
  2 15  1  0
  3 16  1  1
  4 17  1  0
  4 18  1  0
  4 19  1  0
  5 20  1  0
  5 21  1  0
  7 22  1  0
  8 23  1  0
  9 24  1  0
 10 25  1  0
 11 26  1  0
M  END
$$$$
