@<TRIPOS>MOLECULE
*****
 26 26 0 0 0
SMALL
GASTEIGER

@<TRIPOS>ATOM
      1 C          -2.7144    1.4150    0.1776 C.3     1  UNL1       -0.0155
      2 N          -1.5013    0.7925   -0.3165 N.3     1  UNL1       -0.3162
      3 C          -1.2736   -0.5000    0.3178 C.3     1  UNL1        0.0085
      4 C          -2.4699   -1.3807   -0.0070 C.3     1  UNL1       -0.0494
      5 C          -0.0767   -1.1417   -0.2466 C.3     1  UNL1       -0.0125
      6 C           1.1886   -0.4219   -0.1096 C.ar    1  UNL1       -0.0459
      7 C           2.0146   -0.6071    0.9936 C.ar    1  UNL1       -0.0585
      8 C           3.1952    0.0494    1.1449 C.ar    1  UNL1       -0.0615
      9 C           3.5916    0.9328    0.1700 C.ar    1  UNL1       -0.0617
     10 C           2.8154    1.1695   -0.9636 C.ar    1  UNL1       -0.0615
     11 C           1.6238    0.4809   -1.0761 C.ar    1  UNL1       -0.0585
     12 H          -2.6183    2.5082    0.0617 H       1  UNL1        0.0388
     13 H          -3.5979    1.0879   -0.3833 H       1  UNL1        0.0388
     14 H          -2.8496    1.2045    1.2621 H       1  UNL1        0.0388
     15 H          -1.6618    0.5988   -1.3437 H       1  UNL1        0.1219
     16 H          -1.2996   -0.3598    1.3948 H       1  UNL1        0.0461
     17 H          -2.9437   -1.0863   -0.9648 H       1  UNL1        0.0245
     18 H          -3.2288   -1.3686    0.7970 H       1  UNL1        0.0245
     19 H          -2.1197   -2.4329   -0.1001 H       1  UNL1        0.0245
     20 H          -0.2488   -1.3250   -1.3282 H       1  UNL1        0.0328
     21 H           0.0509   -2.1683    0.1947 H       1  UNL1        0.0328
     22 H           1.6578   -1.3038    1.7188 H       1  UNL1        0.0620
     23 H           3.7820   -0.1492    2.0322 H       1  UNL1        0.0618
     24 H           4.5281    1.4616    0.2775 H       1  UNL1        0.0618
     25 H           3.1423    1.8759   -1.7335 H       1  UNL1        0.0618
     26 H           1.0138    0.6685   -1.9695 H       1  UNL1        0.0620
@<TRIPOS>BOND
     1     1     2    1
     2     2     3    1
     3     3     4    1
     4     3     5    1
     5     5     6    1
     6     6     7   ar
     7     7     8   ar
     8     8     9   ar
     9     9    10   ar
    10    10    11   ar
    11    11     6   ar
    12     1    12    1
    13     1    13    1
    14     1    14    1
    15     2    15    1
    16     3    16    1
    17     4    17    1
    18     4    18    1
    19     4    19    1
    20     5    20    1
    21     5    21    1
    22     7    22    1
    23     8    23    1
    24     9    24    1
    25    10    25    1
    26    11    26    1
