@<TRIPOS>MOLECULE
*****
 51 54 0 0 0
SMALL
GASTEIGER

@<TRIPOS>ATOM
      1 C           6.2961    0.2039   -2.3074 C.3     1  UNL1       -0.0637
      2 C           5.4322   -0.9285   -1.8482 C.3     1  UNL1       -0.0347
      3 C           5.7370   -1.2842   -0.4103 C.3     1  UNL1        0.0845
      4 S           5.4596    0.0491    0.7151 S.O2    1  UNL1        0.0432
      5 O           5.8192   -0.5157    2.0991 O.2     1  UNL1       -0.1552
      6 O           6.4412    1.1677    0.5102 O.2     1  UNL1       -0.1552
      7 N           3.8504    0.6373    0.7241 N.pl3   1  UNL1       -0.2178
      8 C           2.5946    0.0649    1.0406 C.ar    1  UNL1        0.0837
      9 C           1.5853    0.8955    1.5243 C.ar    1  UNL1        0.1592
     10 F           1.8961    2.2275    1.6511 F       1  UNL1       -0.2027
     11 C           0.3506    0.3968    1.8514 C.ar    1  UNL1        0.0944
     12 C          -0.5991    1.3639    2.3702 C.2     1  UNL1        0.2008
     13 O          -0.1704    2.5280    2.6794 O.2     1  UNL1       -0.2864
     14 C          -2.0141    1.3271    2.6428 C.ar    1  UNL1        0.0490
     15 C          -2.6474    1.6959    3.8352 C.ar    1  UNL1        0.0150
     16 N          -3.9691    1.4891    3.7135 N.ar    1  UNL1       -0.3451
     17 C          -4.2776    0.9989    2.5020 C.ar    1  UNL1        0.1388
     18 N          -5.4540    0.6574    1.9496 N.ar    1  UNL1       -0.2369
     19 C          -5.4435    0.1976    0.6884 C.ar    1  UNL1        0.0376
     20 C          -4.2932    0.0485   -0.0915 C.ar    1  UNL1        0.0009
     21 C          -3.1364    0.4181    0.5456 C.ar    1  UNL1       -0.0412
     22 C          -3.0672    0.8966    1.8330 C.ar    1  UNL1        0.0301
     23 C          -4.3435   -0.4567   -1.4566 C.ar    1  UNL1       -0.0163
     24 C          -3.3556    0.0678   -2.2696 C.ar    1  UNL1       -0.0526
     25 C          -3.2658   -0.3115   -3.5955 C.ar    1  UNL1       -0.0428
     26 C          -4.1874   -1.2339   -4.1057 C.ar    1  UNL1        0.0410
     27 CL         -4.0632   -1.7076   -5.7760 Cl      1  UNL1       -0.0835
     28 C          -5.1533   -1.7290   -3.2580 C.ar    1  UNL1       -0.0428
     29 C          -5.2649   -1.3662   -1.9292 C.ar    1  UNL1       -0.0526
     30 C           0.0872   -0.9453    1.7057 C.ar    1  UNL1        0.1371
     31 F          -1.1197   -1.4451    2.0432 F       1  UNL1       -0.2046
     32 C           1.0601   -1.7903    1.2308 C.ar    1  UNL1       -0.0238
     33 C           2.2864   -1.2694    0.9102 C.ar    1  UNL1       -0.0338
     34 H           6.7614   -0.0554   -3.2634 H       1  UNL1        0.0230
     35 H           7.1073    0.3493   -1.5652 H       1  UNL1        0.0230
     36 H           5.6973    1.1299   -2.4452 H       1  UNL1        0.0230
     37 H           4.3453   -0.7164   -1.9952 H       1  UNL1        0.0279
     38 H           5.6774   -1.8247   -2.4503 H       1  UNL1        0.0279
     39 H           6.8538   -1.4542   -0.3923 H       1  UNL1        0.0518
     40 H           5.2503   -2.1810   -0.0391 H       1  UNL1        0.0518
     41 H           3.7905    1.6505    0.4183 H       1  UNL1        0.1734
     42 H          -2.1572    2.0910    4.7325 H       1  UNL1        0.0815
     43 H          -4.6519    1.6953    4.4870 H       1  UNL1        0.1668
     44 H          -6.4181   -0.0734    0.2627 H       1  UNL1        0.0836
     45 H          -2.1958    0.3344    0.0140 H       1  UNL1        0.0631
     46 H          -2.5910    0.7867   -1.9760 H       1  UNL1        0.0624
     47 H          -2.5121    0.0731   -4.2655 H       1  UNL1        0.0632
     48 H          -5.8583   -2.4378   -3.6560 H       1  UNL1        0.0632
     49 H          -6.0119   -1.7405   -1.2441 H       1  UNL1        0.0624
     50 H           0.8353   -2.8607    1.1181 H       1  UNL1        0.0647
     51 H           3.0068   -1.9727    0.5420 H       1  UNL1        0.0638
@<TRIPOS>BOND
     1     1     2    1
     2     2     3    1
     3     3     4    1
     4     4     5    2
     5     4     6    2
     6     4     7    1
     7     7     8    1
     8     8     9   ar
     9     9    10    1
    10     9    11   ar
    11    11    12    1
    12    12    13    2
    13    12    14    1
    14    14    15   ar
    15    15    16   ar
    16    16    17   ar
    17    17    18   ar
    18    18    19   ar
    19    19    20   ar
    20    20    21   ar
    21    21    22   ar
    22    20    23    1
    23    23    24   ar
    24    24    25   ar
    25    25    26   ar
    26    26    27    1
    27    26    28   ar
    28    28    29   ar
    29    11    30   ar
    30    30    31    1
    31    30    32   ar
    32    32    33   ar
    33    33     8   ar
    34    22    14   ar
    35    29    23   ar
    36    22    17   ar
    37     1    34    1
    38     1    35    1
    39     1    36    1
    40     2    37    1
    41     2    38    1
    42     3    39    1
    43     3    40    1
    44     7    41    1
    45    15    42    1
    46    16    43    1
    47    19    44    1
    48    21    45    1
    49    24    46    1
    50    25    47    1
    51    28    48    1
    52    29    49    1
    53    32    50    1
    54    33    51    1
