
     RDKit          3D

 50 54  0  0  0  0  0  0  0  0999 V2000
    4.5288    1.6561    1.3100 O   0  0  0  0  0  0  0  0  0  0  0  0
    3.7841    0.8564    0.6803 C   0  0  0  0  0  0  0  0  0  0  0  0
    4.4117   -0.1644   -0.0418 N   0  0  0  0  0  0  0  0  0  0  0  0
    5.8506   -0.3459   -0.1016 C   0  0  0  0  0  0  0  0  0  0  0  0
    6.3784   -0.3078   -1.5139 C   0  0  0  0  0  0  0  0  0  0  0  0
    7.8077   -0.8247   -1.2953 C   0  0  0  0  0  0  0  0  0  0  0  0
    7.6361   -1.8944   -0.2338 C   0  0  0  0  0  0  0  0  0  0  0  0
    6.2727   -1.7253    0.3536 C   0  0  0  0  0  0  0  0  0  0  0  0
    2.3271    0.9952    0.7075 C   0  0  0  0  0  0  0  0  0  0  0  0
    1.4851    0.1418    0.0333 C   0  0  0  0  0  0  0  0  0  0  0  0
    0.0917    0.2864    0.0680 C   0  0  0  0  0  0  0  0  0  0  0  0
   -0.4716    1.3094    0.7949 C   0  0  0  0  0  0  0  0  0  0  0  0
   -1.9268    1.5123    0.8695 C   0  0  0  0  0  0  0  0  0  0  0  0
   -2.4079    2.5334    1.5993 N   0  0  0  0  0  0  0  0  0  0  0  0
   -3.7183    2.7835    1.7171 C   0  0  0  0  0  0  0  0  0  0  0  0
   -4.6017    1.9195    1.0337 C   0  0  0  0  0  0  0  0  0  0  0  0
   -4.1524    0.8727    0.2853 C   0  0  0  0  0  0  0  0  0  0  0  0
   -4.9817   -0.0317   -0.4824 C   0  0  0  0  0  0  0  0  0  0  0  0
   -4.4858   -0.7816   -1.5714 C   0  0  0  0  0  0  0  0  0  0  0  0
   -5.4583   -1.5599   -2.0680 N   0  0  0  0  0  0  0  0  0  0  0  0
   -6.5873   -1.3741   -1.3673 C   0  0  0  0  0  0  0  0  0  0  0  0
   -7.8362   -1.9358   -1.4671 C   0  0  0  0  0  0  0  0  0  0  0  0
   -8.8050   -1.5633   -0.5870 N   0  0  0  0  0  0  0  0  0  0  0  0
   -8.5647   -0.6610    0.3739 C   0  0  0  0  0  0  0  0  0  0  0  0
   -7.2974   -0.0945    0.4701 C   0  0  0  0  0  0  0  0  0  0  0  0
   -6.2849   -0.4253   -0.3839 C   0  0  0  0  0  0  0  0  0  0  0  0
   -2.7870    0.7207    0.2417 N   0  0  0  0  0  0  0  0  0  0  0  0
    0.3953    2.1482    1.4597 C   0  0  0  0  0  0  0  0  0  0  0  0
    1.7453    2.0272    1.4401 C   0  0  0  0  0  0  0  0  0  0  0  0
    3.8653   -0.8621   -0.5859 H   0  0  0  0  0  0  0  0  0  0  0  0
    6.4048    0.4011    0.4794 H   0  0  0  0  0  0  0  0  0  0  0  0
    6.3824    0.6955   -1.9591 H   0  0  0  0  0  0  0  0  0  0  0  0
    5.8918   -1.0794   -2.1552 H   0  0  0  0  0  0  0  0  0  0  0  0
    8.4229    0.0067   -0.8493 H   0  0  0  0  0  0  0  0  0  0  0  0
    8.2408   -1.2415   -2.2034 H   0  0  0  0  0  0  0  0  0  0  0  0
    8.3800   -1.8023    0.5850 H   0  0  0  0  0  0  0  0  0  0  0  0
    7.7867   -2.9110   -0.6640 H   0  0  0  0  0  0  0  0  0  0  0  0
    5.5521   -2.5045   -0.0011 H   0  0  0  0  0  0  0  0  0  0  0  0
    6.2764   -1.7428    1.4646 H   0  0  0  0  0  0  0  0  0  0  0  0
    1.8667   -0.6737   -0.5497 H   0  0  0  0  0  0  0  0  0  0  0  0
   -0.5484   -0.4040   -0.4753 H   0  0  0  0  0  0  0  0  0  0  0  0
   -4.1357    3.5925    2.2934 H   0  0  0  0  0  0  0  0  0  0  0  0
   -5.6631    2.1339    1.0970 H   0  0  0  0  0  0  0  0  0  0  0  0
   -3.4725   -0.7230   -1.9350 H   0  0  0  0  0  0  0  0  0  0  0  0
   -5.3607   -2.2224   -2.8865 H   0  0  0  0  0  0  0  0  0  0  0  0
   -8.1132   -2.6694   -2.2107 H   0  0  0  0  0  0  0  0  0  0  0  0
   -9.3134   -0.3444    1.0895 H   0  0  0  0  0  0  0  0  0  0  0  0
   -7.1099    0.6069    1.2576 H   0  0  0  0  0  0  0  0  0  0  0  0
   -0.0804    2.9559    2.0321 H   0  0  0  0  0  0  0  0  0  0  0  0
    2.3799    2.7148    1.9811 H   0  0  0  0  0  0  0  0  0  0  0  0
  1  2  2  0
  2  3  1  0
  3  4  1  0
  4  5  1  0
  5  6  1  0
  6  7  1  0
  7  8  1  0
  2  9  1  0
  9 10  2  0
 10 11  1  0
 11 12  2  0
 12 13  1  0
 13 14  2  0
 14 15  1  0
 15 16  2  0
 16 17  1  0
 17 18  1  0
 18 19  2  0
 19 20  1  0
 20 21  1  0
 21 22  2  0
 22 23  1  0
 23 24  2  0
 24 25  1  0
 25 26  2  0
 17 27  2  0
 12 28  1  0
 28 29  2  0
  8  4  1  0
 29  9  1  0
 27 13  1  0
 26 18  1  0
 26 21  1  0
  3 30  1  0
  4 31  1  0
  5 32  1  0
  5 33  1  0
  6 34  1  0
  6 35  1  0
  7 36  1  0
  7 37  1  0
  8 38  1  0
  8 39  1  0
 10 40  1  0
 11 41  1  0
 15 42  1  0
 16 43  1  0
 19 44  1  0
 20 45  1  0
 22 46  1  0
 24 47  1  0
 25 48  1  0
 28 49  1  0
 29 50  1  0
M  END
$$$$
