@<TRIPOS>MOLECULE
*****
 50 54 0 0 0
SMALL
GASTEIGER

@<TRIPOS>ATOM
      1 O           4.5288    1.6561    1.3100 O.2     1  UNL1       -0.2702
      2 C           3.7841    0.8564    0.6803 C.2     1  UNL1        0.2443
      3 N           4.4117   -0.1644   -0.0418 N.am    1  UNL1       -0.3085
      4 C           5.8506   -0.3459   -0.1016 C.3     1  UNL1        0.0234
      5 C           6.3784   -0.3078   -1.5139 C.3     1  UNL1       -0.0345
      6 C           7.8077   -0.8247   -1.2953 C.3     1  UNL1       -0.0513
      7 C           7.6361   -1.8944   -0.2338 C.3     1  UNL1       -0.0513
      8 C           6.2727   -1.7253    0.3536 C.3     1  UNL1       -0.0345
      9 C           2.3271    0.9952    0.7075 C.ar    1  UNL1        0.0367
     10 C           1.4851    0.1418    0.0333 C.ar    1  UNL1       -0.0490
     11 C           0.0917    0.2864    0.0680 C.ar    1  UNL1       -0.0503
     12 C          -0.4716    1.3094    0.7949 C.ar    1  UNL1        0.0192
     13 C          -1.9268    1.5123    0.8695 C.ar    1  UNL1        0.1603
     14 N          -2.4079    2.5334    1.5993 N.ar    1  UNL1       -0.2356
     15 C          -3.7183    2.7835    1.7171 C.ar    1  UNL1        0.0320
     16 C          -4.6017    1.9195    1.0337 C.ar    1  UNL1       -0.0174
     17 C          -4.1524    0.8727    0.2853 C.ar    1  UNL1        0.0768
     18 C          -4.9817   -0.0317   -0.4824 C.ar    1  UNL1        0.0256
     19 C          -4.4858   -0.7816   -1.5714 C.ar    1  UNL1        0.0120
     20 N          -5.4583   -1.5599   -2.0680 N.ar    1  UNL1       -0.3588
     21 C          -6.5873   -1.3741   -1.3673 C.ar    1  UNL1        0.0655
     22 C          -7.8362   -1.9358   -1.4671 C.ar    1  UNL1        0.0514
     23 N          -8.8050   -1.5633   -0.5870 N.ar    1  UNL1       -0.2612
     24 C          -8.5647   -0.6610    0.3739 C.ar    1  UNL1        0.0283
     25 C          -7.2974   -0.0945    0.4701 C.ar    1  UNL1       -0.0338
     26 C          -6.2849   -0.4253   -0.3839 C.ar    1  UNL1        0.0117
     27 N          -2.7870    0.7207    0.2417 N.ar    1  UNL1       -0.2272
     28 C           0.3953    2.1482    1.4597 C.ar    1  UNL1       -0.0503
     29 C           1.7453    2.0272    1.4401 C.ar    1  UNL1       -0.0490
     30 H           3.8653   -0.8621   -0.5859 H       1  UNL1        0.1493
     31 H           6.4048    0.4011    0.4794 H       1  UNL1        0.0498
     32 H           6.3824    0.6955   -1.9591 H       1  UNL1        0.0283
     33 H           5.8918   -1.0794   -2.1552 H       1  UNL1        0.0283
     34 H           8.4229    0.0067   -0.8493 H       1  UNL1        0.0266
     35 H           8.2408   -1.2415   -2.2034 H       1  UNL1        0.0266
     36 H           8.3800   -1.8023    0.5850 H       1  UNL1        0.0266
     37 H           7.7867   -2.9110   -0.6640 H       1  UNL1        0.0266
     38 H           5.5521   -2.5045   -0.0011 H       1  UNL1        0.0283
     39 H           6.2764   -1.7428    1.4646 H       1  UNL1        0.0283
     40 H           1.8667   -0.6737   -0.5497 H       1  UNL1        0.0625
     41 H          -0.5484   -0.4040   -0.4753 H       1  UNL1        0.0625
     42 H          -4.1357    3.5925    2.2934 H       1  UNL1        0.0831
     43 H          -5.6631    2.1339    1.0970 H       1  UNL1        0.0654
     44 H          -3.4725   -0.7230   -1.9350 H       1  UNL1        0.0814
     45 H          -5.3607   -2.2224   -2.8865 H       1  UNL1        0.1654
     46 H          -8.1132   -2.6694   -2.2107 H       1  UNL1        0.0851
     47 H          -9.3134   -0.3444    1.0895 H       1  UNL1        0.0830
     48 H          -7.1099    0.6069    1.2576 H       1  UNL1        0.0639
     49 H          -0.0804    2.9559    2.0321 H       1  UNL1        0.0625
     50 H           2.3799    2.7148    1.9811 H       1  UNL1        0.0625
@<TRIPOS>BOND
     1     1     2    2
     2     2     3   am
     3     3     4    1
     4     4     5    1
     5     5     6    1
     6     6     7    1
     7     7     8    1
     8     2     9    1
     9     9    10   ar
    10    10    11   ar
    11    11    12   ar
    12    12    13    1
    13    13    14   ar
    14    14    15   ar
    15    15    16   ar
    16    16    17   ar
    17    17    18    1
    18    18    19   ar
    19    19    20   ar
    20    20    21   ar
    21    21    22   ar
    22    22    23   ar
    23    23    24   ar
    24    24    25   ar
    25    25    26   ar
    26    17    27   ar
    27    12    28   ar
    28    28    29   ar
    29     8     4    1
    30    29     9   ar
    31    27    13   ar
    32    26    18   ar
    33    26    21   ar
    34     3    30    1
    35     4    31    1
    36     5    32    1
    37     5    33    1
    38     6    34    1
    39     6    35    1
    40     7    36    1
    41     7    37    1
    42     8    38    1
    43     8    39    1
    44    10    40    1
    45    11    41    1
    46    15    42    1
    47    16    43    1
    48    19    44    1
    49    20    45    1
    50    22    46    1
    51    24    47    1
    52    25    48    1
    53    28    49    1
    54    29    50    1
