@<TRIPOS>MOLECULE
*****
 32 34 0 0 0
SMALL
GASTEIGER

@<TRIPOS>ATOM
      1 O          -1.7544    2.0111    1.0130 O.3     1  UNL1       -0.5061
      2 C          -2.7462    1.2703    0.4356 C.ar    1  UNL1        0.1257
      3 C          -4.0504    1.7185    0.4228 C.ar    1  UNL1       -0.0195
      4 C          -5.0568    0.9820   -0.1551 C.ar    1  UNL1       -0.0583
      5 C          -4.7277   -0.2260   -0.7265 C.ar    1  UNL1       -0.0609
      6 C          -3.4223   -0.6740   -0.7134 C.ar    1  UNL1       -0.0493
      7 C          -2.3968    0.0492   -0.1388 C.ar    1  UNL1        0.0392
      8 C          -1.0251   -0.4250   -0.1269 C.2     1  UNL1        0.0716
      9 N          -0.0234    0.1766    0.3793 N.2     1  UNL1       -0.1836
     10 N           1.1511   -0.5501    0.2219 N.pl3   1  UNL1       -0.2239
     11 C           2.5004   -0.1301    0.2758 C.ar    1  UNL1        0.0515
     12 C           3.5682   -0.9721    0.0987 C.ar    1  UNL1       -0.0389
     13 C           4.8824   -0.5328    0.1568 C.ar    1  UNL1       -0.0600
     14 C           5.1173    0.8148    0.4047 C.ar    1  UNL1       -0.0616
     15 C           4.0725    1.6803    0.5858 C.ar    1  UNL1       -0.0600
     16 C           2.7637    1.2002    0.5199 C.ar    1  UNL1       -0.0389
     17 C           0.7410   -1.9368   -0.0300 C.3     1  UNL1        0.0405
     18 C          -0.5840   -1.7013   -0.7180 C.3     1  UNL1        0.0095
     19 H          -1.6873    2.0480    2.0358 H       1  UNL1        0.2922
     20 H          -4.3458    2.6758    0.8690 H       1  UNL1        0.0654
     21 H          -6.0836    1.3652   -0.1493 H       1  UNL1        0.0619
     22 H          -5.5370   -0.8045   -1.1841 H       1  UNL1        0.0618
     23 H          -3.1755   -1.6419   -1.1744 H       1  UNL1        0.0625
     24 H           3.4139   -2.0199   -0.0946 H       1  UNL1        0.0637
     25 H           5.7255   -1.1884    0.0187 H       1  UNL1        0.0618
     26 H           6.1441    1.1474    0.4482 H       1  UNL1        0.0618
     27 H           4.2990    2.7204    0.7763 H       1  UNL1        0.0618
     28 H           1.9855    1.9365    0.6720 H       1  UNL1        0.0637
     29 H           1.4666   -2.4742   -0.6395 H       1  UNL1        0.0488
     30 H           0.5160   -2.4376    0.9319 H       1  UNL1        0.0488
     31 H          -1.2969   -2.5239   -0.5170 H       1  UNL1        0.0345
     32 H          -0.4337   -1.5576   -1.8236 H       1  UNL1        0.0345
@<TRIPOS>BOND
     1     1     2    1
     2     2     3   ar
     3     3     4   ar
     4     4     5   ar
     5     5     6   ar
     6     6     7   ar
     7     7     8    1
     8     8     9    2
     9     9    10    1
    10    10    11    1
    11    11    12   ar
    12    12    13   ar
    13    13    14   ar
    14    14    15   ar
    15    15    16   ar
    16    10    17    1
    17    17    18    1
    18     7     2   ar
    19    18     8    1
    20    16    11   ar
    21     1    19    1
    22     3    20    1
    23     4    21    1
    24     5    22    1
    25     6    23    1
    26    12    24    1
    27    13    25    1
    28    14    26    1
    29    15    27    1
    30    16    28    1
    31    17    29    1
    32    17    30    1
    33    18    31    1
    34    18    32    1
