
     RDKit          3D

 32 34  0  0  0  0  0  0  0  0999 V2000
   -1.7544    2.0111    1.0130 O   0  0  0  0  0  0  0  0  0  0  0  0
   -2.7462    1.2703    0.4356 C   0  0  0  0  0  0  0  0  0  0  0  0
   -4.0504    1.7185    0.4228 C   0  0  0  0  0  0  0  0  0  0  0  0
   -5.0568    0.9820   -0.1551 C   0  0  0  0  0  0  0  0  0  0  0  0
   -4.7277   -0.2260   -0.7265 C   0  0  0  0  0  0  0  0  0  0  0  0
   -3.4223   -0.6740   -0.7134 C   0  0  0  0  0  0  0  0  0  0  0  0
   -2.3968    0.0492   -0.1388 C   0  0  0  0  0  0  0  0  0  0  0  0
   -1.0251   -0.4250   -0.1269 C   0  0  0  0  0  0  0  0  0  0  0  0
   -0.0234    0.1766    0.3793 N   0  0  0  0  0  0  0  0  0  0  0  0
    1.1511   -0.5501    0.2219 N   0  0  0  0  0  0  0  0  0  0  0  0
    2.5004   -0.1301    0.2758 C   0  0  0  0  0  0  0  0  0  0  0  0
    3.5682   -0.9721    0.0987 C   0  0  0  0  0  0  0  0  0  0  0  0
    4.8824   -0.5328    0.1568 C   0  0  0  0  0  0  0  0  0  0  0  0
    5.1173    0.8148    0.4047 C   0  0  0  0  0  0  0  0  0  0  0  0
    4.0725    1.6803    0.5858 C   0  0  0  0  0  0  0  0  0  0  0  0
    2.7637    1.2002    0.5199 C   0  0  0  0  0  0  0  0  0  0  0  0
    0.7410   -1.9368   -0.0300 C   0  0  0  0  0  0  0  0  0  0  0  0
   -0.5840   -1.7013   -0.7180 C   0  0  0  0  0  0  0  0  0  0  0  0
   -1.6873    2.0480    2.0358 H   0  0  0  0  0  0  0  0  0  0  0  0
   -4.3458    2.6758    0.8690 H   0  0  0  0  0  0  0  0  0  0  0  0
   -6.0836    1.3652   -0.1493 H   0  0  0  0  0  0  0  0  0  0  0  0
   -5.5370   -0.8045   -1.1841 H   0  0  0  0  0  0  0  0  0  0  0  0
   -3.1755   -1.6419   -1.1744 H   0  0  0  0  0  0  0  0  0  0  0  0
    3.4139   -2.0199   -0.0946 H   0  0  0  0  0  0  0  0  0  0  0  0
    5.7255   -1.1884    0.0187 H   0  0  0  0  0  0  0  0  0  0  0  0
    6.1441    1.1474    0.4482 H   0  0  0  0  0  0  0  0  0  0  0  0
    4.2990    2.7204    0.7763 H   0  0  0  0  0  0  0  0  0  0  0  0
    1.9855    1.9365    0.6720 H   0  0  0  0  0  0  0  0  0  0  0  0
    1.4666   -2.4742   -0.6395 H   0  0  0  0  0  0  0  0  0  0  0  0
    0.5160   -2.4376    0.9319 H   0  0  0  0  0  0  0  0  0  0  0  0
   -1.2969   -2.5239   -0.5170 H   0  0  0  0  0  0  0  0  0  0  0  0
   -0.4337   -1.5576   -1.8236 H   0  0  0  0  0  0  0  0  0  0  0  0
  1  2  1  0
  2  3  2  0
  3  4  1  0
  4  5  2  0
  5  6  1  0
  6  7  2  0
  7  8  1  0
  8  9  2  0
  9 10  1  0
 10 11  1  0
 11 12  2  0
 12 13  1  0
 13 14  2  0
 14 15  1  0
 15 16  2  0
 10 17  1  0
 17 18  1  0
  7  2  1  0
 18  8  1  0
 16 11  1  0
  1 19  1  0
  3 20  1  0
  4 21  1  0
  5 22  1  0
  6 23  1  0
 12 24  1  0
 13 25  1  0
 14 26  1  0
 15 27  1  0
 16 28  1  0
 17 29  1  0
 17 30  1  0
 18 31  1  0
 18 32  1  0
M  END
$$$$
