
     RDKit          3D

 57 61  0  0  0  0  0  0  0  0999 V2000
   -5.9663   -2.8206   -1.3371 C   0  0  0  0  0  0  0  0  0  0  0  0
   -5.2308   -1.5113   -1.2492 C   0  0  0  0  0  0  0  0  0  0  0  0
   -5.8674   -0.3134   -1.4770 C   0  0  0  0  0  0  0  0  0  0  0  0
   -5.2041    0.8982   -1.3990 C   0  0  0  0  0  0  0  0  0  0  0  0
   -3.8482    0.8783   -1.0780 C   0  0  0  0  0  0  0  0  0  0  0  0
   -3.1272    2.0944   -0.9903 N   0  0  0  0  0  0  0  0  0  0  0  0
   -2.0696    2.4959   -1.6705 N   0  0  0  0  0  0  0  0  0  0  0  0
   -1.7011    3.7235   -1.2696 C   0  0  0  0  0  0  0  0  0  0  0  0
   -2.5902    4.0886   -0.2859 C   0  0  0  0  0  0  0  0  0  0  0  0
   -3.4464    3.0611   -0.1474 N   0  0  0  0  0  0  0  0  0  0  0  0
   -3.1803   -0.2965   -0.8443 C   0  0  0  0  0  0  0  0  0  0  0  0
   -1.7678   -0.2303   -0.5067 C   0  0  0  0  0  0  0  0  0  0  0  0
   -0.9734   -0.2547   -1.4850 O   0  0  0  0  0  0  0  0  0  0  0  0
   -1.2780   -0.1447    0.8002 N   0  0  0  0  0  0  0  0  0  0  0  0
   -2.1815   -0.1168    1.9196 C   0  0  0  0  0  0  0  0  0  0  0  0
   -1.6976   -0.9730    3.0658 C   0  0  0  0  0  0  0  0  0  0  0  0
   -0.3797   -0.7464    3.3442 O   0  0  0  0  0  0  0  0  0  0  0  0
    0.2586    0.1849    2.5552 C   0  0  0  0  0  0  0  0  0  0  0  0
    0.1390   -0.0756    1.0733 C   0  0  1  0  0  0  0  0  0  0  0  0
    0.8942   -1.2457    0.5575 C   0  0  0  0  0  0  0  0  0  0  0  0
    2.3676   -1.1740    0.8408 C   0  0  0  0  0  0  0  0  0  0  0  0
    3.2122   -0.6050   -0.1114 C   0  0  0  0  0  0  0  0  0  0  0  0
    4.5542   -0.4779    0.1226 C   0  0  0  0  0  0  0  0  0  0  0  0
    5.4511    0.1311   -0.8866 C   0  0  0  0  0  0  0  0  0  0  0  0
    4.9341    0.5592   -2.0434 N   0  0  0  0  0  0  0  0  0  0  0  0
    5.7139    1.1288   -3.0055 C   0  0  0  0  0  0  0  0  0  0  0  0
    7.0668    1.2752   -2.7992 C   0  0  0  0  0  0  0  0  0  0  0  0
    7.5843    0.8286   -1.6010 C   0  0  0  0  0  0  0  0  0  0  0  0
    6.7651    0.2685   -0.6759 N   0  0  0  0  0  0  0  0  0  0  0  0
    5.1349   -0.9031    1.3034 C   0  0  0  0  0  0  0  0  0  0  0  0
    4.2901   -1.4612    2.2292 C   0  0  0  0  0  0  0  0  0  0  0  0
    2.9370   -1.5997    2.0148 C   0  0  0  0  0  0  0  0  0  0  0  0
    2.1818   -2.2068    2.9830 F   0  0  0  0  0  0  0  0  0  0  0  0
   -3.8761   -1.4787   -0.9319 C   0  0  0  0  0  0  0  0  0  0  0  0
   -6.5091   -2.8942   -2.2858 H   0  0  0  0  0  0  0  0  0  0  0  0
   -6.7289   -2.8934   -0.5127 H   0  0  0  0  0  0  0  0  0  0  0  0
   -5.2435   -3.6213   -1.1508 H   0  0  0  0  0  0  0  0  0  0  0  0
   -6.9237   -0.2879   -1.7281 H   0  0  0  0  0  0  0  0  0  0  0  0
   -5.7001    1.8418   -1.5783 H   0  0  0  0  0  0  0  0  0  0  0  0
   -0.8661    4.3300   -1.6360 H   0  0  0  0  0  0  0  0  0  0  0  0
   -2.6231    5.0182    0.2885 H   0  0  0  0  0  0  0  0  0  0  0  0
   -3.2216   -0.3723    1.6404 H   0  0  0  0  0  0  0  0  0  0  0  0
   -2.1639    0.9441    2.3107 H   0  0  0  0  0  0  0  0  0  0  0  0
   -1.9396   -2.0443    2.9203 H   0  0  0  0  0  0  0  0  0  0  0  0
   -2.2890   -0.6362    3.9674 H   0  0  0  0  0  0  0  0  0  0  0  0
    1.3141    0.2569    2.8329 H   0  0  0  0  0  0  0  0  0  0  0  0
   -0.1788    1.2139    2.7014 H   0  0  0  0  0  0  0  0  0  0  0  0
    0.5917    0.8313    0.5785 H   0  0  0  0  0  0  0  0  0  0  0  0
    0.8182   -1.3340   -0.5427 H   0  0  0  0  0  0  0  0  0  0  0  0
    0.5215   -2.2219    0.9512 H   0  0  0  0  0  0  0  0  0  0  0  0
    2.7942   -0.2612   -1.0474 H   0  0  0  0  0  0  0  0  0  0  0  0
    5.2914    1.4763   -3.9430 H   0  0  0  0  0  0  0  0  0  0  0  0
    7.7153    1.7266   -3.5480 H   0  0  0  0  0  0  0  0  0  0  0  0
    8.6479    0.9489   -1.4494 H   0  0  0  0  0  0  0  0  0  0  0  0
    6.2106   -0.7956    1.4798 H   0  0  0  0  0  0  0  0  0  0  0  0
    4.7540   -1.7974    3.1645 H   0  0  0  0  0  0  0  0  0  0  0  0
   -3.3706   -2.4092   -0.7529 H   0  0  0  0  0  0  0  0  0  0  0  0
  1  2  1  0
  2  3  2  0
  3  4  1  0
  4  5  2  0
  5  6  1  0
  6  7  1  0
  7  8  2  0
  8  9  1  0
  9 10  2  0
  5 11  1  0
 11 12  1  0
 12 13  2  0
 12 14  1  0
 14 15  1  0
 15 16  1  0
 16 17  1  0
 17 18  1  0
 18 19  1  0
 19 20  1  0
 20 21  1  0
 21 22  2  0
 22 23  1  0
 23 24  1  0
 24 25  2  0
 25 26  1  0
 26 27  2  0
 27 28  1  0
 28 29  2  0
 23 30  2  0
 30 31  1  0
 31 32  2  0
 32 33  1  0
 11 34  2  0
 34  2  1  0
 10  6  1  0
 19 14  1  0
 32 21  1  0
 29 24  1  0
  1 35  1  0
  1 36  1  0
  1 37  1  0
  3 38  1  0
  4 39  1  0
  8 40  1  0
  9 41  1  0
 15 42  1  0
 15 43  1  0
 16 44  1  0
 16 45  1  0
 18 46  1  0
 18 47  1  0
 19 48  1  6
 20 49  1  0
 20 50  1  0
 22 51  1  0
 26 52  1  0
 27 53  1  0
 28 54  1  0
 30 55  1  0
 31 56  1  0
 34 57  1  0
M  END
$$$$
