@<TRIPOS>MOLECULE
*****
 57 61 0 0 0
SMALL
GASTEIGER

@<TRIPOS>ATOM
      1 C          -5.9663   -2.8206   -1.3371 C.3     1  UNL1       -0.0397
      2 C          -5.2308   -1.5113   -1.2492 C.ar    1  UNL1       -0.0496
      3 C          -5.8674   -0.3134   -1.4770 C.ar    1  UNL1       -0.0567
      4 C          -5.2041    0.8982   -1.3990 C.ar    1  UNL1       -0.0336
      5 C          -3.8482    0.8783   -1.0780 C.ar    1  UNL1        0.0982
      6 N          -3.1272    2.0944   -0.9903 N.ar    1  UNL1       -0.1496
      7 N          -2.0696    2.4959   -1.6705 N.ar    1  UNL1       -0.1556
      8 C          -1.7011    3.7235   -1.2696 C.ar    1  UNL1        0.0697
      9 C          -2.5902    4.0886   -0.2859 C.ar    1  UNL1        0.0697
     10 N          -3.4464    3.0611   -0.1474 N.ar    1  UNL1       -0.1556
     11 C          -3.1803   -0.2965   -0.8443 C.ar    1  UNL1        0.0642
     12 C          -1.7678   -0.2303   -0.5067 C.2     1  UNL1        0.2491
     13 O          -0.9734   -0.2547   -1.4850 O.2     1  UNL1       -0.2699
     14 N          -1.2780   -0.1447    0.8002 N.am    1  UNL1       -0.2897
     15 C          -2.1815   -0.1168    1.9196 C.3     1  UNL1        0.0388
     16 C          -1.6976   -0.9730    3.0658 C.3     1  UNL1        0.0635
     17 O          -0.3797   -0.7464    3.3442 O.3     1  UNL1       -0.3764
     18 C           0.2586    0.1849    2.5552 C.3     1  UNL1        0.0666
     19 C           0.1390   -0.0756    1.0733 C.3     1  UNL1        0.0537
     20 C           0.8942   -1.2457    0.5575 C.3     1  UNL1       -0.0041
     21 C           2.3676   -1.1740    0.8408 C.ar    1  UNL1       -0.0097
     22 C           3.2122   -0.6050   -0.1114 C.ar    1  UNL1       -0.0451
     23 C           4.5542   -0.4779    0.1226 C.ar    1  UNL1        0.0195
     24 C           5.4511    0.1311   -0.8866 C.ar    1  UNL1        0.1597
     25 N           4.9341    0.5592   -2.0434 N.ar    1  UNL1       -0.2357
     26 C           5.7139    1.1288   -3.0055 C.ar    1  UNL1        0.0314
     27 C           7.0668    1.2752   -2.7992 C.ar    1  UNL1       -0.0254
     28 C           7.5843    0.8286   -1.6010 C.ar    1  UNL1        0.0314
     29 N           6.7651    0.2685   -0.6759 N.ar    1  UNL1       -0.2357
     30 C           5.1349   -0.9031    1.3034 C.ar    1  UNL1       -0.0483
     31 C           4.2901   -1.4612    2.2292 C.ar    1  UNL1       -0.0255
     32 C           2.9370   -1.5997    2.0148 C.ar    1  UNL1        0.1267
     33 F           2.1818   -2.2068    2.9830 F       1  UNL1       -0.2052
     34 C          -3.8761   -1.4787   -0.9319 C.ar    1  UNL1       -0.0446
     35 H          -6.5091   -2.8942   -2.2858 H       1  UNL1        0.0278
     36 H          -6.7289   -2.8934   -0.5127 H       1  UNL1        0.0278
     37 H          -5.2435   -3.6213   -1.1508 H       1  UNL1        0.0278
     38 H          -6.9237   -0.2879   -1.7281 H       1  UNL1        0.0621
     39 H          -5.7001    1.8418   -1.5783 H       1  UNL1        0.0640
     40 H          -0.8661    4.3300   -1.6360 H       1  UNL1        0.0864
     41 H          -2.6231    5.0182    0.2885 H       1  UNL1        0.0864
     42 H          -3.2216   -0.3723    1.6404 H       1  UNL1        0.0487
     43 H          -2.1639    0.9441    2.3107 H       1  UNL1        0.0487
     44 H          -1.9396   -2.0443    2.9203 H       1  UNL1        0.0575
     45 H          -2.2890   -0.6362    3.9674 H       1  UNL1        0.0575
     46 H           1.3141    0.2569    2.8329 H       1  UNL1        0.0578
     47 H          -0.1788    1.2139    2.7014 H       1  UNL1        0.0578
     48 H           0.5917    0.8313    0.5785 H       1  UNL1        0.0526
     49 H           0.8182   -1.3340   -0.5427 H       1  UNL1        0.0333
     50 H           0.5215   -2.2219    0.9512 H       1  UNL1        0.0333
     51 H           2.7942   -0.2612   -1.0474 H       1  UNL1        0.0628
     52 H           5.2914    1.4763   -3.9430 H       1  UNL1        0.0831
     53 H           7.7153    1.7266   -3.5480 H       1  UNL1        0.0648
     54 H           8.6479    0.9489   -1.4494 H       1  UNL1        0.0831
     55 H           6.2106   -0.7956    1.4798 H       1  UNL1        0.0625
     56 H           4.7540   -1.7974    3.1645 H       1  UNL1        0.0646
     57 H          -3.3706   -2.4092   -0.7529 H       1  UNL1        0.0628
@<TRIPOS>BOND
     1     1     2    1
     2     2     3   ar
     3     3     4   ar
     4     4     5   ar
     5     5     6    1
     6     6     7   ar
     7     7     8   ar
     8     8     9   ar
     9     9    10   ar
    10     5    11   ar
    11    11    12    1
    12    12    13    2
    13    12    14   am
    14    14    15    1
    15    15    16    1
    16    16    17    1
    17    17    18    1
    18    18    19    1
    19    19    20    1
    20    20    21    1
    21    21    22   ar
    22    22    23   ar
    23    23    24    1
    24    24    25   ar
    25    25    26   ar
    26    26    27   ar
    27    27    28   ar
    28    28    29   ar
    29    23    30   ar
    30    30    31   ar
    31    31    32   ar
    32    32    33    1
    33    11    34   ar
    34    34     2   ar
    35    10     6   ar
    36    19    14    1
    37    32    21   ar
    38    29    24   ar
    39     1    35    1
    40     1    36    1
    41     1    37    1
    42     3    38    1
    43     4    39    1
    44     8    40    1
    45     9    41    1
    46    15    42    1
    47    15    43    1
    48    16    44    1
    49    16    45    1
    50    18    46    1
    51    18    47    1
    52    19    48    1
    53    20    49    1
    54    20    50    1
    55    22    51    1
    56    26    52    1
    57    27    53    1
    58    28    54    1
    59    30    55    1
    60    31    56    1
    61    34    57    1
