
     RDKit          3D

 40 40  0  0  0  0  0  0  0  0999 V2000
   -0.2615   -3.6547    2.1526 C   0  0  0  0  0  0  0  0  0  0  0  0
   -0.4852   -2.3329    1.6933 O   0  0  0  0  0  0  0  0  0  0  0  0
    0.4626   -1.7635    0.8677 C   0  0  0  0  0  0  0  0  0  0  0  0
    1.6115   -2.4112    0.4679 C   0  0  0  0  0  0  0  0  0  0  0  0
    2.5406   -1.8267   -0.3509 C   0  0  0  0  0  0  0  0  0  0  0  0
    3.6862   -2.5430   -0.7182 O   0  0  0  0  0  0  0  0  0  0  0  0
    2.3691   -0.5226   -0.8308 C   0  0  0  0  0  0  0  0  0  0  0  0
    3.3448   -0.0653   -1.7752 C   0  0  0  0  0  0  0  0  0  0  0  0
    3.7949    1.1365   -1.8464 C   0  0  0  0  0  0  0  0  0  0  0  0
    3.4940    2.2693   -1.0538 C   0  0  0  0  0  0  0  0  0  0  0  0
    4.0451    3.3929   -1.3878 O   0  0  0  0  0  0  0  0  0  0  0  0
    2.6898    2.3353    0.0495 O   0  0  0  0  0  0  0  0  0  0  0  0
    1.2238    0.0976   -0.4259 C   0  0  0  0  0  0  0  0  0  0  0  0
    0.2718   -0.4972    0.4135 C   0  0  0  0  0  0  0  0  0  0  0  0
   -0.9098    0.3237    0.7528 C   0  0  1  0  0  0  0  0  0  0  0  0
   -0.5123    1.6078    0.9973 O   0  0  0  0  0  0  0  0  0  0  0  0
   -2.0258    0.2176   -0.2076 C   0  0  0  0  0  0  0  0  0  0  0  0
   -3.1795    1.0786    0.2260 C   0  0  0  0  0  0  0  0  0  0  0  0
   -2.8935    2.5350    0.3386 C   0  0  0  0  0  0  0  0  0  0  0  0
   -4.3704    0.7992   -0.6718 C   0  0  0  0  0  0  0  0  0  0  0  0
   -1.1500   -4.0662    2.6688 H   0  0  0  0  0  0  0  0  0  0  0  0
    0.5865   -3.7113    2.8554 H   0  0  0  0  0  0  0  0  0  0  0  0
   -0.0306   -4.3527    1.3172 H   0  0  0  0  0  0  0  0  0  0  0  0
    1.7295   -3.4261    0.8511 H   0  0  0  0  0  0  0  0  0  0  0  0
    3.8132   -2.8063   -1.6876 H   0  0  0  0  0  0  0  0  0  0  0  0
    3.7232   -0.8421   -2.5001 H   0  0  0  0  0  0  0  0  0  0  0  0
    4.5404    1.3068   -2.6633 H   0  0  0  0  0  0  0  0  0  0  0  0
    2.8401    2.9634    0.8369 H   0  0  0  0  0  0  0  0  0  0  0  0
    0.9894    1.0780   -0.8394 H   0  0  0  0  0  0  0  0  0  0  0  0
   -1.2799   -0.1001    1.7369 H   0  0  0  0  0  0  0  0  0  0  0  0
   -0.3074    2.1753    0.2431 H   0  0  0  0  0  0  0  0  0  0  0  0
   -1.7640    0.5333   -1.2444 H   0  0  0  0  0  0  0  0  0  0  0  0
   -2.4326   -0.8305   -0.2505 H   0  0  0  0  0  0  0  0  0  0  0  0
   -3.4419    0.7254    1.2663 H   0  0  0  0  0  0  0  0  0  0  0  0
   -2.4004    2.9781   -0.5534 H   0  0  0  0  0  0  0  0  0  0  0  0
   -2.4444    2.8449    1.3037 H   0  0  0  0  0  0  0  0  0  0  0  0
   -3.9080    3.0450    0.3484 H   0  0  0  0  0  0  0  0  0  0  0  0
   -4.7020    1.7861   -1.0938 H   0  0  0  0  0  0  0  0  0  0  0  0
   -5.1932    0.3734   -0.0992 H   0  0  0  0  0  0  0  0  0  0  0  0
   -4.0639    0.1490   -1.5106 H   0  0  0  0  0  0  0  0  0  0  0  0
  1  2  1  0
  2  3  1  0
  3  4  2  0
  4  5  1  0
  5  6  1  0
  5  7  2  0
  7  8  1  0
  8  9  2  0
  9 10  1  0
 10 11  2  0
 10 12  1  0
  7 13  1  0
 13 14  2  0
 14 15  1  0
 15 16  1  0
 15 17  1  0
 17 18  1  0
 18 19  1  0
 18 20  1  0
 14  3  1  0
  1 21  1  0
  1 22  1  0
  1 23  1  0
  4 24  1  0
  6 25  1  0
  8 26  1  0
  9 27  1  0
 12 28  1  0
 13 29  1  0
 15 30  1  1
 16 31  1  0
 17 32  1  0
 17 33  1  0
 18 34  1  0
 19 35  1  0
 19 36  1  0
 19 37  1  0
 20 38  1  0
 20 39  1  0
 20 40  1  0
M  END
$$$$
