@<TRIPOS>MOLECULE
*****
 40 40 0 0 0
SMALL
GASTEIGER

@<TRIPOS>ATOM
      1 C          -0.2615   -3.6547    2.1526 C.3     1  UNL1        0.0788
      2 O          -0.4852   -2.3329    1.6933 O.3     1  UNL1       -0.4946
      3 C           0.4626   -1.7635    0.8677 C.ar    1  UNL1        0.1292
      4 C           1.6115   -2.4112    0.4679 C.ar    1  UNL1        0.0225
      5 C           2.5406   -1.8267   -0.3509 C.ar    1  UNL1        0.1275
      6 O           3.6862   -2.5430   -0.7182 O.3     1  UNL1       -0.5061
      7 C           2.3691   -0.5226   -0.8308 C.ar    1  UNL1        0.0172
      8 C           3.3448   -0.0653   -1.7752 C.2     1  UNL1       -0.0444
      9 C           3.7949    1.1365   -1.8464 C.2     1  UNL1        0.0230
     10 C           3.4940    2.2693   -1.0538 C.2     1  UNL1        0.3296
     11 O           4.0451    3.3929   -1.3878 O.2     1  UNL1       -0.2458
     12 O           2.6898    2.3353    0.0495 O.3     1  UNL1       -0.4775
     13 C           1.2238    0.0976   -0.4259 C.ar    1  UNL1       -0.0420
     14 C           0.2718   -0.4972    0.4135 C.ar    1  UNL1        0.0233
     15 C          -0.9098    0.3237    0.7528 C.3     1  UNL1        0.0838
     16 O          -0.5123    1.6078    0.9973 O.3     1  UNL1       -0.3871
     17 C          -2.0258    0.2176   -0.2076 C.3     1  UNL1       -0.0202
     18 C          -3.1795    1.0786    0.2260 C.3     1  UNL1       -0.0441
     19 C          -2.8935    2.5350    0.3386 C.3     1  UNL1       -0.0626
     20 C          -4.3704    0.7992   -0.6718 C.3     1  UNL1       -0.0626
     21 H          -1.1500   -4.0662    2.6688 H       1  UNL1        0.0660
     22 H           0.5865   -3.7113    2.8554 H       1  UNL1        0.0660
     23 H          -0.0306   -4.3527    1.3172 H       1  UNL1        0.0660
     24 H           1.7295   -3.4261    0.8511 H       1  UNL1        0.0691
     25 H           3.8132   -2.8063   -1.6876 H       1  UNL1        0.2922
     26 H           3.7232   -0.8421   -2.5001 H       1  UNL1        0.0627
     27 H           4.5404    1.3068   -2.6633 H       1  UNL1        0.0689
     28 H           2.8401    2.9634    0.8369 H       1  UNL1        0.2954
     29 H           0.9894    1.0780   -0.8394 H       1  UNL1        0.0629
     30 H          -1.2799   -0.1001    1.7369 H       1  UNL1        0.0645
     31 H          -0.3074    2.1753    0.2431 H       1  UNL1        0.2102
     32 H          -1.7640    0.5333   -1.2444 H       1  UNL1        0.0296
     33 H          -2.4326   -0.8305   -0.2505 H       1  UNL1        0.0296
     34 H          -3.4419    0.7254    1.2663 H       1  UNL1        0.0296
     35 H          -2.4004    2.9781   -0.5534 H       1  UNL1        0.0232
     36 H          -2.4444    2.8449    1.3037 H       1  UNL1        0.0232
     37 H          -3.9080    3.0450    0.3484 H       1  UNL1        0.0232
     38 H          -4.7020    1.7861   -1.0938 H       1  UNL1        0.0232
     39 H          -5.1932    0.3734   -0.0992 H       1  UNL1        0.0232
     40 H          -4.0639    0.1490   -1.5106 H       1  UNL1        0.0232
@<TRIPOS>BOND
     1     1     2    1
     2     2     3    1
     3     3     4   ar
     4     4     5   ar
     5     5     6    1
     6     5     7   ar
     7     7     8    1
     8     8     9    2
     9     9    10    1
    10    10    11    2
    11    10    12    1
    12     7    13   ar
    13    13    14   ar
    14    14    15    1
    15    15    16    1
    16    15    17    1
    17    17    18    1
    18    18    19    1
    19    18    20    1
    20    14     3   ar
    21     1    21    1
    22     1    22    1
    23     1    23    1
    24     4    24    1
    25     6    25    1
    26     8    26    1
    27     9    27    1
    28    12    28    1
    29    13    29    1
    30    15    30    1
    31    16    31    1
    32    17    32    1
    33    17    33    1
    34    18    34    1
    35    19    35    1
    36    19    36    1
    37    19    37    1
    38    20    38    1
    39    20    39    1
    40    20    40    1
