@<TRIPOS>MOLECULE
*****
 53 56 0 0 0
SMALL
GASTEIGER

@<TRIPOS>ATOM
      1 C          -5.5745   -0.9606   -3.3603 C.3     1  UNL1       -0.0653
      2 C          -4.5096   -1.5692   -2.4544 C.3     1  UNL1       -0.0555
      3 C          -4.3783   -0.7028   -1.2111 C.3     1  UNL1       -0.0465
      4 C          -3.3115   -1.2982   -0.2829 C.3     1  UNL1        0.0057
      5 C          -3.2266   -0.4170    0.9077 C.ar    1  UNL1        0.1119
      6 N          -4.0006   -0.6282    2.0124 N.ar    1  UNL1       -0.2205
      7 C          -3.6681    0.3484    2.8695 C.ar    1  UNL1        0.1527
      8 CL         -4.4645    0.4280    4.4518 Cl      1  UNL1       -0.0600
      9 C          -2.6865    1.1627    2.2887 C.ar    1  UNL1        0.0831
     10 C          -2.2180    2.2951    3.0827 C.3     1  UNL1        0.0872
     11 O          -3.1374    3.3428    3.1423 O.3     1  UNL1       -0.3889
     12 N          -2.4194    0.6707    1.0612 N.ar    1  UNL1       -0.3239
     13 C          -1.4547    1.2440    0.1872 C.3     1  UNL1        0.0498
     14 C          -0.0955    0.6912    0.2521 C.ar    1  UNL1       -0.0277
     15 C           0.3272   -0.2369   -0.6861 C.ar    1  UNL1       -0.0563
     16 C           1.5782   -0.8208   -0.7085 C.ar    1  UNL1       -0.0537
     17 C           2.5054   -0.4934    0.2426 C.ar    1  UNL1       -0.0172
     18 C           2.1353    0.4288    1.2027 C.ar    1  UNL1       -0.0537
     19 C           0.8709    0.9770    1.1721 C.ar    1  UNL1       -0.0563
     20 C           3.8276   -1.0939    0.2466 C.ar    1  UNL1       -0.0071
     21 C           3.8631   -2.4505    0.4519 C.ar    1  UNL1       -0.0534
     22 C           5.0734   -3.1171    0.4769 C.ar    1  UNL1       -0.0611
     23 C           6.2023   -2.3579    0.2890 C.ar    1  UNL1       -0.0611
     24 C           6.1538   -0.9750    0.0804 C.ar    1  UNL1       -0.0503
     25 C           4.9430   -0.3172    0.0567 C.ar    1  UNL1        0.0304
     26 C           4.9090    1.1207   -0.1630 C.ar    1  UNL1        0.2049
     27 N           6.0233    1.8244   -0.3317 N.ar    1  UNL1       -0.1331
     28 N           5.7489    3.1032   -0.5156 N.ar    1  UNL1       -0.1761
     29 N           4.4393    3.2114   -0.4627 N.ar    1  UNL1       -0.0485
     30 N           3.9261    2.0140   -0.2495 N.ar    1  UNL1       -0.1080
     31 H          -6.2950   -0.3285   -2.7942 H       1  UNL1        0.0230
     32 H          -6.1785   -1.8267   -3.7592 H       1  UNL1        0.0230
     33 H          -5.1432   -0.4524   -4.2362 H       1  UNL1        0.0230
     34 H          -3.5781   -1.5974   -3.0255 H       1  UNL1        0.0263
     35 H          -4.7934   -2.6154   -2.1599 H       1  UNL1        0.0263
     36 H          -5.3460   -0.7226   -0.6851 H       1  UNL1        0.0269
     37 H          -4.1100    0.3196   -1.5531 H       1  UNL1        0.0269
     38 H          -2.3620   -1.4343   -0.8176 H       1  UNL1        0.0343
     39 H          -3.7406   -2.2905    0.0231 H       1  UNL1        0.0343
     40 H          -1.2284    2.7178    2.7523 H       1  UNL1        0.0623
     41 H          -2.0396    1.9645    4.1218 H       1  UNL1        0.0623
     42 H          -3.1742    3.7561    2.2425 H       1  UNL1        0.2099
     43 H          -1.3797    2.3464    0.2583 H       1  UNL1        0.0542
     44 H          -1.8455    1.0683   -0.8590 H       1  UNL1        0.0542
     45 H          -0.2876   -0.5902   -1.5053 H       1  UNL1        0.0621
     46 H           1.9005   -1.5439   -1.4433 H       1  UNL1        0.0624
     47 H           2.8672    0.6981    1.9697 H       1  UNL1        0.0624
     48 H           0.6842    1.6730    1.9456 H       1  UNL1        0.0621
     49 H           2.9560   -3.0469    0.6010 H       1  UNL1        0.0624
     50 H           5.0850   -4.1781    0.6390 H       1  UNL1        0.0618
     51 H           7.1731   -2.8353    0.3005 H       1  UNL1        0.0618
     52 H           7.1017   -0.4641   -0.0582 H       1  UNL1        0.0625
     53 H           6.3524    3.9587   -0.6805 H       1  UNL1        0.2143
@<TRIPOS>BOND
     1     1     2    1
     2     2     3    1
     3     3     4    1
     4     4     5    1
     5     5     6   ar
     6     6     7   ar
     7     7     8    1
     8     7     9   ar
     9     9    10    1
    10    10    11    1
    11     9    12   ar
    12    12    13    1
    13    13    14    1
    14    14    15   ar
    15    15    16   ar
    16    16    17   ar
    17    17    18   ar
    18    18    19   ar
    19    17    20    1
    20    20    21   ar
    21    21    22   ar
    22    22    23   ar
    23    23    24   ar
    24    24    25   ar
    25    25    26    1
    26    26    27   ar
    27    27    28   ar
    28    28    29   ar
    29    29    30   ar
    30    12     5   ar
    31    19    14   ar
    32    25    20   ar
    33    30    26   ar
    34     1    31    1
    35     1    32    1
    36     1    33    1
    37     2    34    1
    38     2    35    1
    39     3    36    1
    40     3    37    1
    41     4    38    1
    42     4    39    1
    43    10    40    1
    44    10    41    1
    45    11    42    1
    46    13    43    1
    47    13    44    1
    48    15    45    1
    49    16    46    1
    50    18    47    1
    51    19    48    1
    52    21    49    1
    53    22    50    1
    54    23    51    1
    55    24    52    1
    56    28    53    1
