@<TRIPOS>MOLECULE
*****
 32 33 0 0 0
SMALL
GASTEIGER

@<TRIPOS>ATOM
      1 C          -4.1048   -1.2610    0.6527 C.3     1  UNL1       -0.0353
      2 C          -3.1559   -0.2685    0.0209 C.3     1  UNL1        0.1073
      3 C          -3.6595    0.3085   -1.2720 C.3     1  UNL1       -0.0353
      4 N          -2.7729    0.7677    0.9440 N.am    1  UNL1       -0.2851
      5 C          -1.3784    1.1008    0.8116 C.2     1  UNL1        0.3138
      6 O          -1.0100    2.1679    1.3771 O.2     1  UNL1       -0.2518
      7 N          -0.8035    0.0507    0.0293 N.am    1  UNL1       -0.1925
      8 C          -1.8266   -0.8897   -0.2996 C.2     1  UNL1        0.2504
      9 O          -1.3805   -1.9791   -0.7645 O.2     1  UNL1       -0.2724
     10 C           0.5901    0.1517   -0.2445 C.ar    1  UNL1        0.0464
     11 C           1.5494   -0.3828    0.5742 C.ar    1  UNL1       -0.0216
     12 C           2.8920   -0.2438    0.2420 C.ar    1  UNL1        0.1333
     13 C           3.1803    0.4450   -0.9270 C.ar    1  UNL1        0.2849
     14 C           2.2592    1.0047   -1.7903 C.ar    1  UNL1        0.0179
     15 C           0.9520    0.8258   -1.3943 C.ar    1  UNL1       -0.0334
     16 N           4.5418    0.5681   -1.2338 N.pl3   1  UNL1        0.0802
     17 O           5.8037    0.0584   -1.1275 O.co2   1  UNL1       -0.5760
     18 O           5.2857    1.3538   -1.8521 O.2     1  UNL1        0.0415
     19 C           3.9641   -0.8060    1.0977 C.3     1  UNL1        0.4237
     20 F           4.8297    0.1651    1.5624 F       1  UNL1       -0.1656
     21 F           4.6813   -1.7919    0.4245 F       1  UNL1       -0.1656
     22 F           3.3734   -1.4210    2.1805 F       1  UNL1       -0.1656
     23 H          -5.1303   -0.8861    0.4265 H       1  UNL1        0.0255
     24 H          -3.9387   -1.2534    1.7351 H       1  UNL1        0.0255
     25 H          -3.9254   -2.2700    0.2645 H       1  UNL1        0.0255
     26 H          -4.7518    0.3860   -1.3534 H       1  UNL1        0.0255
     27 H          -3.2610   -0.2645   -2.1528 H       1  UNL1        0.0255
     28 H          -3.2474    1.3502   -1.3974 H       1  UNL1        0.0255
     29 H          -3.5330    1.1440    1.5826 H       1  UNL1        0.1513
     30 H           1.2517   -0.9069    1.4702 H       1  UNL1        0.0644
     31 H           2.5506    1.5246   -2.6785 H       1  UNL1        0.0686
     32 H           0.1749    1.2517   -2.0434 H       1  UNL1        0.0638
@<TRIPOS>UNITY_ATOM_ATTR
16 1
charge 1
17 1
charge -1
@<TRIPOS>BOND
     1     1     2    1
     2     2     3    1
     3     2     4    1
     4     4     5   am
     5     5     6    2
     6     5     7   am
     7     7     8   am
     8     8     9    2
     9     7    10    1
    10    10    11   ar
    11    11    12   ar
    12    12    13   ar
    13    13    14   ar
    14    14    15   ar
    15    13    16    1
    16    16    17    1
    17    16    18    2
    18    12    19    1
    19    19    20    1
    20    19    21    1
    21    19    22    1
    22     8     2    1
    23    15    10   ar
    24     1    23    1
    25     1    24    1
    26     1    25    1
    27     3    26    1
    28     3    27    1
    29     3    28    1
    30     4    29    1
    31    11    30    1
    32    14    31    1
    33    15    32    1
