@<TRIPOS>MOLECULE
*****
 49 50 0 0 0
SMALL
GASTEIGER

@<TRIPOS>ATOM
      1 C          -1.7668    3.1554    2.4782 C.3     1  UNL1       -0.0650
      2 C          -2.2684    3.3229    1.0369 C.3     1  UNL1       -0.0518
      3 C          -1.3302    2.6742    0.1381 C.3     1  UNL1       -0.0245
      4 C          -1.0169    1.2771    0.2085 C.ar    1  UNL1       -0.0052
      5 C           0.1933    0.9163    0.8177 C.ar    1  UNL1       -0.0516
      6 C           0.5884   -0.3964    0.9405 C.ar    1  UNL1       -0.0422
      7 C           1.8775   -0.7394    1.5935 C.3     1  UNL1        0.0023
      8 C           2.9989   -0.7628    0.6245 C.ar    1  UNL1        0.0146
      9 C           2.8465   -0.4904   -0.7154 C.ar    1  UNL1        0.0379
     10 N           3.9247   -0.5361   -1.5188 N.ar    1  UNL1       -0.2227
     11 C           5.1393   -0.8375   -1.0578 C.ar    1  UNL1        0.2142
     12 N           6.2734   -0.8762   -1.9546 N.pl3   1  UNL1       -0.3274
     13 N           5.2838   -1.1018    0.2456 N.ar    1  UNL1       -0.1999
     14 C           4.2496   -1.0757    1.1132 C.ar    1  UNL1        0.1247
     15 N           4.4582   -1.3670    2.4961 N.pl3   1  UNL1       -0.3428
     16 C          -0.2222   -1.3976    0.4526 C.ar    1  UNL1       -0.0516
     17 C          -1.4396   -1.0817   -0.1640 C.ar    1  UNL1       -0.0052
     18 C          -2.2537   -2.1760   -0.6981 C.3     1  UNL1       -0.0245
     19 C          -2.0984   -2.4782   -2.1393 C.3     1  UNL1       -0.0518
     20 C          -2.4373   -1.3517   -3.0686 C.3     1  UNL1       -0.0650
     21 C          -1.7972    0.2335   -0.2657 C.ar    1  UNL1        0.1264
     22 O          -2.9763    0.5928   -0.8530 O.3     1  UNL1       -0.4946
     23 C          -4.2239    0.7217   -0.2000 C.3     1  UNL1        0.0788
     24 H          -2.4633    3.6458    3.1962 H       1  UNL1        0.0230
     25 H          -0.8116    3.7164    2.5346 H       1  UNL1        0.0230
     26 H          -1.6105    2.0900    2.7250 H       1  UNL1        0.0230
     27 H          -3.3333    3.1776    0.9399 H       1  UNL1        0.0266
     28 H          -2.1442    4.4434    0.8708 H       1  UNL1        0.0266
     29 H          -0.3631    3.2634    0.1617 H       1  UNL1        0.0314
     30 H          -1.6892    2.8760   -0.9231 H       1  UNL1        0.0314
     31 H           0.8594    1.6919    1.2151 H       1  UNL1        0.0624
     32 H           2.0552    0.0738    2.3588 H       1  UNL1        0.0363
     33 H           1.7843   -1.7300    2.0787 H       1  UNL1        0.0363
     34 H           1.8534   -0.2411   -1.1081 H       1  UNL1        0.0834
     35 H           6.6351    0.0006   -2.3854 H       1  UNL1        0.1452
     36 H           6.7578   -1.7591   -2.1962 H       1  UNL1        0.1452
     37 H           4.5941   -0.6022    3.1793 H       1  UNL1        0.1437
     38 H           4.4673   -2.3590    2.7807 H       1  UNL1        0.1437
     39 H           0.0990   -2.4302    0.5547 H       1  UNL1        0.0624
     40 H          -3.3472   -1.9422   -0.4938 H       1  UNL1        0.0314
     41 H          -2.0937   -3.1039   -0.0874 H       1  UNL1        0.0314
     42 H          -2.7522   -3.3375   -2.4462 H       1  UNL1        0.0266
     43 H          -1.0568   -2.8053   -2.3828 H       1  UNL1        0.0266
     44 H          -1.7742   -0.4796   -2.9985 H       1  UNL1        0.0230
     45 H          -3.4912   -1.0648   -2.8914 H       1  UNL1        0.0230
     46 H          -2.4318   -1.7081   -4.1351 H       1  UNL1        0.0230
     47 H          -4.7096    1.6989   -0.4829 H       1  UNL1        0.0660
     48 H          -4.1084    0.7537    0.9106 H       1  UNL1        0.0660
     49 H          -4.9283   -0.0938   -0.4853 H       1  UNL1        0.0660
@<TRIPOS>BOND
     1     1     2    1
     2     2     3    1
     3     3     4    1
     4     4     5   ar
     5     5     6   ar
     6     6     7    1
     7     7     8    1
     8     8     9   ar
     9     9    10   ar
    10    10    11   ar
    11    11    12    1
    12    11    13   ar
    13    13    14   ar
    14    14    15    1
    15     6    16   ar
    16    16    17   ar
    17    17    18    1
    18    18    19    1
    19    19    20    1
    20    17    21   ar
    21    21    22    1
    22    22    23    1
    23    21     4   ar
    24    14     8   ar
    25     1    24    1
    26     1    25    1
    27     1    26    1
    28     2    27    1
    29     2    28    1
    30     3    29    1
    31     3    30    1
    32     5    31    1
    33     7    32    1
    34     7    33    1
    35     9    34    1
    36    12    35    1
    37    12    36    1
    38    15    37    1
    39    15    38    1
    40    16    39    1
    41    18    40    1
    42    18    41    1
    43    19    42    1
    44    19    43    1
    45    20    44    1
    46    20    45    1
    47    20    46    1
    48    23    47    1
    49    23    48    1
    50    23    49    1
