
     RDKit          3D

 49 50  0  0  0  0  0  0  0  0999 V2000
   -1.7668    3.1554    2.4782 C   0  0  0  0  0  0  0  0  0  0  0  0
   -2.2684    3.3229    1.0369 C   0  0  0  0  0  0  0  0  0  0  0  0
   -1.3302    2.6742    0.1381 C   0  0  0  0  0  0  0  0  0  0  0  0
   -1.0169    1.2771    0.2085 C   0  0  0  0  0  0  0  0  0  0  0  0
    0.1933    0.9163    0.8177 C   0  0  0  0  0  0  0  0  0  0  0  0
    0.5884   -0.3964    0.9405 C   0  0  0  0  0  0  0  0  0  0  0  0
    1.8775   -0.7394    1.5935 C   0  0  0  0  0  0  0  0  0  0  0  0
    2.9989   -0.7628    0.6245 C   0  0  0  0  0  0  0  0  0  0  0  0
    2.8465   -0.4904   -0.7154 C   0  0  0  0  0  0  0  0  0  0  0  0
    3.9247   -0.5361   -1.5188 N   0  0  0  0  0  0  0  0  0  0  0  0
    5.1393   -0.8375   -1.0578 C   0  0  0  0  0  0  0  0  0  0  0  0
    6.2734   -0.8762   -1.9546 N   0  0  0  0  0  0  0  0  0  0  0  0
    5.2838   -1.1018    0.2456 N   0  0  0  0  0  0  0  0  0  0  0  0
    4.2496   -1.0757    1.1132 C   0  0  0  0  0  0  0  0  0  0  0  0
    4.4582   -1.3670    2.4961 N   0  0  0  0  0  0  0  0  0  0  0  0
   -0.2222   -1.3976    0.4526 C   0  0  0  0  0  0  0  0  0  0  0  0
   -1.4396   -1.0817   -0.1640 C   0  0  0  0  0  0  0  0  0  0  0  0
   -2.2537   -2.1760   -0.6981 C   0  0  0  0  0  0  0  0  0  0  0  0
   -2.0984   -2.4782   -2.1393 C   0  0  0  0  0  0  0  0  0  0  0  0
   -2.4373   -1.3517   -3.0686 C   0  0  0  0  0  0  0  0  0  0  0  0
   -1.7972    0.2335   -0.2657 C   0  0  0  0  0  0  0  0  0  0  0  0
   -2.9763    0.5928   -0.8530 O   0  0  0  0  0  0  0  0  0  0  0  0
   -4.2239    0.7217   -0.2000 C   0  0  0  0  0  0  0  0  0  0  0  0
   -2.4633    3.6458    3.1962 H   0  0  0  0  0  0  0  0  0  0  0  0
   -0.8116    3.7164    2.5346 H   0  0  0  0  0  0  0  0  0  0  0  0
   -1.6105    2.0900    2.7250 H   0  0  0  0  0  0  0  0  0  0  0  0
   -3.3333    3.1776    0.9399 H   0  0  0  0  0  0  0  0  0  0  0  0
   -2.1442    4.4434    0.8708 H   0  0  0  0  0  0  0  0  0  0  0  0
   -0.3631    3.2634    0.1617 H   0  0  0  0  0  0  0  0  0  0  0  0
   -1.6892    2.8760   -0.9231 H   0  0  0  0  0  0  0  0  0  0  0  0
    0.8594    1.6919    1.2151 H   0  0  0  0  0  0  0  0  0  0  0  0
    2.0552    0.0738    2.3588 H   0  0  0  0  0  0  0  0  0  0  0  0
    1.7843   -1.7300    2.0787 H   0  0  0  0  0  0  0  0  0  0  0  0
    1.8534   -0.2411   -1.1081 H   0  0  0  0  0  0  0  0  0  0  0  0
    6.6351    0.0006   -2.3854 H   0  0  0  0  0  0  0  0  0  0  0  0
    6.7578   -1.7591   -2.1962 H   0  0  0  0  0  0  0  0  0  0  0  0
    4.5941   -0.6022    3.1793 H   0  0  0  0  0  0  0  0  0  0  0  0
    4.4673   -2.3590    2.7807 H   0  0  0  0  0  0  0  0  0  0  0  0
    0.0990   -2.4302    0.5547 H   0  0  0  0  0  0  0  0  0  0  0  0
   -3.3472   -1.9422   -0.4938 H   0  0  0  0  0  0  0  0  0  0  0  0
   -2.0937   -3.1039   -0.0874 H   0  0  0  0  0  0  0  0  0  0  0  0
   -2.7522   -3.3375   -2.4462 H   0  0  0  0  0  0  0  0  0  0  0  0
   -1.0568   -2.8053   -2.3828 H   0  0  0  0  0  0  0  0  0  0  0  0
   -1.7742   -0.4796   -2.9985 H   0  0  0  0  0  0  0  0  0  0  0  0
   -3.4912   -1.0648   -2.8914 H   0  0  0  0  0  0  0  0  0  0  0  0
   -2.4318   -1.7081   -4.1351 H   0  0  0  0  0  0  0  0  0  0  0  0
   -4.7096    1.6989   -0.4829 H   0  0  0  0  0  0  0  0  0  0  0  0
   -4.1084    0.7537    0.9106 H   0  0  0  0  0  0  0  0  0  0  0  0
   -4.9283   -0.0938   -0.4853 H   0  0  0  0  0  0  0  0  0  0  0  0
  1  2  1  0
  2  3  1  0
  3  4  1  0
  4  5  2  0
  5  6  1  0
  6  7  1  0
  7  8  1  0
  8  9  2  0
  9 10  1  0
 10 11  2  0
 11 12  1  0
 11 13  1  0
 13 14  2  0
 14 15  1  0
  6 16  2  0
 16 17  1  0
 17 18  1  0
 18 19  1  0
 19 20  1  0
 17 21  2  0
 21 22  1  0
 22 23  1  0
 21  4  1  0
 14  8  1  0
  1 24  1  0
  1 25  1  0
  1 26  1  0
  2 27  1  0
  2 28  1  0
  3 29  1  0
  3 30  1  0
  5 31  1  0
  7 32  1  0
  7 33  1  0
  9 34  1  0
 12 35  1  0
 12 36  1  0
 15 37  1  0
 15 38  1  0
 16 39  1  0
 18 40  1  0
 18 41  1  0
 19 42  1  0
 19 43  1  0
 20 44  1  0
 20 45  1  0
 20 46  1  0
 23 47  1  0
 23 48  1  0
 23 49  1  0
M  END
$$$$
