@<TRIPOS>MOLECULE
*****
 62 67 0 0 0
SMALL
GASTEIGER

@<TRIPOS>ATOM
      1 C          -0.1065   -1.9100    1.9713 C.3     1  UNL1       -0.0410
      2 C          -0.4249   -0.5136    1.5358 C.3     1  UNL1        0.0844
      3 C           0.3911   -0.0236    0.4227 C.2     1  UNL1        0.2302
      4 O          -0.1013    0.5614   -0.5756 O.2     1  UNL1       -0.2741
      5 N           1.8150   -0.2110    0.4570 N.am    1  UNL1       -0.3106
      6 C           2.6719    0.2590   -0.6264 C.3     1  UNL1        0.0290
      7 C           3.6792    1.2710   -0.1214 C.3     1  UNL1       -0.0195
      8 C           4.6413    0.6433    0.8667 C.3     1  UNL1       -0.0455
      9 C           5.3706   -0.4838    0.2007 C.3     1  UNL1       -0.0378
     10 C           4.3377   -1.5200   -0.2231 C.3     1  UNL1       -0.0455
     11 C           3.4015   -0.8988   -1.2261 C.3     1  UNL1       -0.0195
     12 C           4.2026   -0.4362   -2.4247 C.3     1  UNL1       -0.0195
     13 C           5.1950    0.6122   -1.9825 C.3     1  UNL1        0.0670
     14 O           5.8967    1.0870   -3.0769 O.3     1  UNL1       -0.3885
     15 C           6.1455    0.0019   -1.0029 C.3     1  UNL1       -0.0211
     16 C           4.4699    1.7617   -1.3061 C.3     1  UNL1       -0.0195
     17 N          -1.8329   -0.2724    1.2949 N.3     1  UNL1       -0.2911
     18 C          -2.6371   -0.4126    2.4645 C.3     1  UNL1        0.0036
     19 C          -3.9330   -1.1248    2.3147 C.3     1  UNL1       -0.0145
     20 C          -4.8613   -0.5170    1.3359 C.ar    1  UNL1       -0.0392
     21 C          -6.1573   -0.4260    1.7960 C.ar    1  UNL1       -0.0546
     22 C          -7.1599    0.1249    0.9903 C.ar    1  UNL1       -0.0159
     23 C          -6.8764    0.5869   -0.2755 C.ar    1  UNL1        0.1665
     24 C          -5.5781    0.4928   -0.7294 C.ar    1  UNL1        0.1697
     25 C          -4.5743   -0.0542    0.0663 C.ar    1  UNL1        0.0025
     26 C          -3.2482   -0.0643   -0.6057 C.3     1  UNL1       -0.0110
     27 C          -2.3234   -0.9974    0.1495 C.3     1  UNL1        0.0037
     28 O          -5.5765    1.0243   -2.0152 O.3     1  UNL1       -0.4523
     29 C          -6.9344    1.1124   -2.4726 C.3     1  UNL1        0.2332
     30 O          -7.6620    1.1608   -1.2511 O.3     1  UNL1       -0.4526
     31 H           0.2623   -2.5305    1.1187 H       1  UNL1        0.0249
     32 H          -0.9336   -2.4065    2.4962 H       1  UNL1        0.0249
     33 H           0.7604   -1.8614    2.6699 H       1  UNL1        0.0249
     34 H          -0.1715    0.1503    2.4152 H       1  UNL1        0.0556
     35 H           2.2104   -0.6939    1.2826 H       1  UNL1        0.1490
     36 H           2.0764    0.7470   -1.4086 H       1  UNL1        0.0504
     37 H           3.1521    2.1200    0.3215 H       1  UNL1        0.0320
     38 H           4.1008    0.2416    1.7486 H       1  UNL1        0.0271
     39 H           5.3482    1.4156    1.1874 H       1  UNL1        0.0271
     40 H           6.0154   -0.9725    0.9428 H       1  UNL1        0.0302
     41 H           3.7975   -1.8290    0.6878 H       1  UNL1        0.0271
     42 H           4.8277   -2.4266   -0.6230 H       1  UNL1        0.0271
     43 H           2.6778   -1.6429   -1.5906 H       1  UNL1        0.0320
     44 H           3.5411   -0.0229   -3.1892 H       1  UNL1        0.0296
     45 H           4.7827   -1.2948   -2.8223 H       1  UNL1        0.0296
     46 H           5.4632    1.8799   -3.4411 H       1  UNL1        0.2102
     47 H           6.6733   -0.8477   -1.4428 H       1  UNL1        0.0296
     48 H           6.8643    0.7750   -0.6483 H       1  UNL1        0.0296
     49 H           3.8550    2.2876   -2.0448 H       1  UNL1        0.0296
     50 H           5.2272    2.4864   -0.9308 H       1  UNL1        0.0296
     51 H          -2.8767    0.6197    2.8295 H       1  UNL1        0.0430
     52 H          -2.0593   -0.9043    3.2619 H       1  UNL1        0.0430
     53 H          -4.4504   -1.0253    3.3177 H       1  UNL1        0.0326
     54 H          -3.8399   -2.2323    2.1951 H       1  UNL1        0.0326
     55 H          -6.4019   -0.7835    2.7882 H       1  UNL1        0.0622
     56 H          -8.1824    0.1987    1.3482 H       1  UNL1        0.0655
     57 H          -2.8578    0.9789   -0.5759 H       1  UNL1        0.0327
     58 H          -3.3680   -0.3940   -1.6592 H       1  UNL1        0.0327
     59 H          -2.9179   -1.8962    0.4179 H       1  UNL1        0.0430
     60 H          -1.5007   -1.2844   -0.5080 H       1  UNL1        0.0430
     61 H          -7.1058    2.0250   -3.0696 H       1  UNL1        0.1166
     62 H          -7.2004    0.1967   -3.0260 H       1  UNL1        0.1166
@<TRIPOS>BOND
     1     1     2    1
     2     2     3    1
     3     3     4    2
     4     3     5   am
     5     5     6    1
     6     6     7    1
     7     7     8    1
     8     8     9    1
     9     9    10    1
    10    10    11    1
    11    11    12    1
    12    12    13    1
    13    13    14    1
    14    13    15    1
    15    13    16    1
    16     2    17    1
    17    17    18    1
    18    18    19    1
    19    19    20    1
    20    20    21   ar
    21    21    22   ar
    22    22    23   ar
    23    23    24   ar
    24    24    25   ar
    25    25    26    1
    26    26    27    1
    27    24    28    1
    28    28    29    1
    29    29    30    1
    30    11     6    1
    31    27    17    1
    32    16     7    1
    33    25    20   ar
    34    15     9    1
    35    30    23    1
    36     1    31    1
    37     1    32    1
    38     1    33    1
    39     2    34    1
    40     5    35    1
    41     6    36    1
    42     7    37    1
    43     8    38    1
    44     8    39    1
    45     9    40    1
    46    10    41    1
    47    10    42    1
    48    11    43    1
    49    12    44    1
    50    12    45    1
    51    14    46    1
    52    15    47    1
    53    15    48    1
    54    16    49    1
    55    16    50    1
    56    18    51    1
    57    18    52    1
    58    19    53    1
    59    19    54    1
    60    21    55    1
    61    22    56    1
    62    26    57    1
    63    26    58    1
    64    27    59    1
    65    27    60    1
    66    29    61    1
    67    29    62    1
