
     RDKit          3D

 41 44  0  0  0  0  0  0  0  0999 V2000
   -2.0624   -4.0468   -0.2427 N   0  0  0  0  0  0  0  0  0  0  0  0
   -3.0346   -3.0703   -0.5567 C   0  0  0  0  0  0  0  0  0  0  0  0
   -4.2059   -3.4533   -0.7861 O   0  0  0  0  0  0  0  0  0  0  0  0
   -2.7069   -1.6507   -0.6180 C   0  0  0  0  0  0  0  0  0  0  0  0
   -3.7027   -0.7314   -0.9320 C   0  0  0  0  0  0  0  0  0  0  0  0
   -3.4323    0.6177   -0.9994 C   0  0  0  0  0  0  0  0  0  0  0  0
   -4.6190    1.8272   -1.3845 Cl  0  0  0  0  0  0  0  0  0  0  0  0
   -2.1189    0.9960   -0.7372 C   0  0  0  0  0  0  0  0  0  0  0  0
   -1.5280    2.2251   -0.7183 C   0  0  0  0  0  0  0  0  0  0  0  0
   -2.3354    3.7496   -1.0465 Cl  0  0  0  0  0  0  0  0  0  0  0  0
   -0.1648    2.0796   -0.3933 C   0  0  0  0  0  0  0  0  0  0  0  0
    0.7694    3.2212   -0.3047 C   0  0  0  0  0  0  0  0  0  0  0  0
    0.4667    4.0926    0.9307 C   0  0  0  0  0  0  0  0  0  0  0  0
    1.8020    3.3953    0.7038 C   0  0  0  0  0  0  0  0  0  0  0  0
    0.0485    0.7708   -0.2221 N   0  0  0  0  0  0  0  0  0  0  0  0
    1.3033    0.1220    0.1042 C   0  0  2  0  0  0  0  0  0  0  0  0
    1.5649   -1.0063   -0.8679 C   0  0  0  0  0  0  0  0  0  0  0  0
    2.1727   -2.2102   -0.1817 C   0  0  0  0  0  0  0  0  0  0  0  0
    3.1338   -1.6308    0.8679 C   0  0  0  0  0  0  0  0  0  0  0  0
    2.3045   -1.1710    1.9488 N   0  0  0  0  0  0  0  0  0  0  0  0
    1.2262   -0.3461    1.5268 C   0  0  0  0  0  0  0  0  0  0  0  0
   -1.1262    0.0945   -0.4257 C   0  0  0  0  0  0  0  0  0  0  0  0
   -1.4594   -1.2070   -0.3770 N   0  0  0  0  0  0  0  0  0  0  0  0
   -2.1730   -5.0495   -0.4831 H   0  0  0  0  0  0  0  0  0  0  0  0
   -1.1966   -3.7551    0.2502 H   0  0  0  0  0  0  0  0  0  0  0  0
   -4.7009   -1.0726   -1.1261 H   0  0  0  0  0  0  0  0  0  0  0  0
    0.8358    3.7981   -1.2784 H   0  0  0  0  0  0  0  0  0  0  0  0
   -0.1693    3.6999    1.7235 H   0  0  0  0  0  0  0  0  0  0  0  0
    0.3954    5.1779    0.7341 H   0  0  0  0  0  0  0  0  0  0  0  0
    2.6223    4.1213    0.4166 H   0  0  0  0  0  0  0  0  0  0  0  0
    2.0513    2.6271    1.4261 H   0  0  0  0  0  0  0  0  0  0  0  0
    2.1463    0.8214   -0.0128 H   0  0  0  0  0  0  0  0  0  0  0  0
    2.2926   -0.6850   -1.6408 H   0  0  0  0  0  0  0  0  0  0  0  0
    0.6570   -1.2996   -1.4178 H   0  0  0  0  0  0  0  0  0  0  0  0
    1.3769   -2.7327    0.3559 H   0  0  0  0  0  0  0  0  0  0  0  0
    2.6872   -2.8810   -0.8670 H   0  0  0  0  0  0  0  0  0  0  0  0
    3.8545   -2.3808    1.2187 H   0  0  0  0  0  0  0  0  0  0  0  0
    3.6423   -0.7260    0.4381 H   0  0  0  0  0  0  0  0  0  0  0  0
    1.9371   -2.0019    2.4631 H   0  0  0  0  0  0  0  0  0  0  0  0
    0.2607   -0.8747    1.6804 H   0  0  0  0  0  0  0  0  0  0  0  0
    1.1848    0.5454    2.1812 H   0  0  0  0  0  0  0  0  0  0  0  0
  1  2  1  0
  2  3  2  0
  2  4  1  0
  4  5  2  0
  5  6  1  0
  6  7  1  0
  6  8  2  0
  8  9  1  0
  9 10  1  0
  9 11  2  0
 11 12  1  0
 12 13  1  0
 13 14  1  0
 11 15  1  0
 15 16  1  0
 16 17  1  0
 17 18  1  0
 18 19  1  0
 19 20  1  0
 20 21  1  0
 15 22  1  0
 22 23  2  0
 23  4  1  0
 22  8  1  0
 14 12  1  0
 21 16  1  0
  1 24  1  0
  1 25  1  0
  5 26  1  0
 12 27  1  0
 13 28  1  0
 13 29  1  0
 14 30  1  0
 14 31  1  0
 16 32  1  1
 17 33  1  0
 17 34  1  0
 18 35  1  0
 18 36  1  0
 19 37  1  0
 19 38  1  0
 20 39  1  0
 21 40  1  0
 21 41  1  0
M  END
$$$$
