@<TRIPOS>MOLECULE
*****
 41 44 0 0 0
SMALL
GASTEIGER

@<TRIPOS>ATOM
      1 N          -2.0624   -4.0468   -0.2427 N.am    1  UNL1       -0.3241
      2 C          -3.0346   -3.0703   -0.5567 C.2     1  UNL1        0.2600
      3 O          -4.2059   -3.4533   -0.7861 O.2     1  UNL1       -0.2687
      4 C          -2.7069   -1.6507   -0.6180 C.ar    1  UNL1        0.1289
      5 C          -3.7027   -0.7314   -0.9320 C.ar    1  UNL1       -0.0121
      6 C          -3.4323    0.6177   -0.9994 C.ar    1  UNL1        0.0552
      7 CL         -4.6190    1.8272   -1.3845 Cl      1  UNL1       -0.0827
      8 C          -2.1189    0.9960   -0.7372 C.ar    1  UNL1        0.0558
      9 C          -1.5280    2.2251   -0.7183 C.ar    1  UNL1        0.0726
     10 CL         -2.3354    3.7496   -1.0465 Cl      1  UNL1       -0.0810
     11 C          -0.1648    2.0796   -0.3933 C.ar    1  UNL1        0.0430
     12 C           0.7694    3.2212   -0.3047 C.3     1  UNL1        0.0010
     13 C           0.4667    4.0926    0.9307 C.3     1  UNL1       -0.0442
     14 C           1.8020    3.3953    0.7038 C.3     1  UNL1       -0.0442
     15 N           0.0485    0.7708   -0.2221 N.ar    1  UNL1       -0.3230
     16 C           1.3033    0.1220    0.1042 C.3     1  UNL1        0.0487
     17 C           1.5649   -1.0063   -0.8679 C.3     1  UNL1       -0.0297
     18 C           2.1727   -2.2102   -0.1817 C.3     1  UNL1       -0.0385
     19 C           3.1338   -1.6308    0.8679 C.3     1  UNL1       -0.0040
     20 N           2.3045   -1.1710    1.9488 N.3     1  UNL1       -0.3140
     21 C           1.2262   -0.3461    1.5268 C.3     1  UNL1        0.0168
     22 C          -1.1262    0.0945   -0.4257 C.ar    1  UNL1        0.1449
     23 N          -1.4594   -1.2070   -0.3770 N.ar    1  UNL1       -0.2243
     24 H          -2.1730   -5.0495   -0.4831 H       1  UNL1        0.1453
     25 H          -1.1966   -3.7551    0.2502 H       1  UNL1        0.1453
     26 H          -4.7009   -1.0726   -1.1261 H       1  UNL1        0.0655
     27 H           0.8358    3.7981   -1.2784 H       1  UNL1        0.0364
     28 H          -0.1693    3.6999    1.7235 H       1  UNL1        0.0272
     29 H           0.3954    5.1779    0.7341 H       1  UNL1        0.0272
     30 H           2.6223    4.1213    0.4166 H       1  UNL1        0.0272
     31 H           2.0513    2.6271    1.4261 H       1  UNL1        0.0272
     32 H           2.1463    0.8214   -0.0128 H       1  UNL1        0.0541
     33 H           2.2926   -0.6850   -1.6408 H       1  UNL1        0.0286
     34 H           0.6570   -1.2996   -1.4178 H       1  UNL1        0.0286
     35 H           1.3769   -2.7327    0.3559 H       1  UNL1        0.0278
     36 H           2.6872   -2.8810   -0.8670 H       1  UNL1        0.0278
     37 H           3.8545   -2.3808    1.2187 H       1  UNL1        0.0424
     38 H           3.6423   -0.7260    0.4381 H       1  UNL1        0.0424
     39 H           1.9371   -2.0019    2.4631 H       1  UNL1        0.1220
     40 H           0.2607   -0.8747    1.6804 H       1  UNL1        0.0444
     41 H           1.1848    0.5454    2.1812 H       1  UNL1        0.0444
@<TRIPOS>BOND
     1     1     2   am
     2     2     3    2
     3     2     4    1
     4     4     5   ar
     5     5     6   ar
     6     6     7    1
     7     6     8   ar
     8     8     9   ar
     9     9    10    1
    10     9    11   ar
    11    11    12    1
    12    12    13    1
    13    13    14    1
    14    11    15   ar
    15    15    16    1
    16    16    17    1
    17    17    18    1
    18    18    19    1
    19    19    20    1
    20    20    21    1
    21    15    22   ar
    22    22    23   ar
    23    23     4   ar
    24    22     8   ar
    25    14    12    1
    26    21    16    1
    27     1    24    1
    28     1    25    1
    29     5    26    1
    30    12    27    1
    31    13    28    1
    32    13    29    1
    33    14    30    1
    34    14    31    1
    35    16    32    1
    36    17    33    1
    37    17    34    1
    38    18    35    1
    39    18    36    1
    40    19    37    1
    41    19    38    1
    42    20    39    1
    43    21    40    1
    44    21    41    1
