
     RDKit          3D

 41 41  0  0  0  0  0  0  0  0999 V2000
    6.2128   -0.0399    0.0651 C   0  0  0  0  0  0  0  0  0  0  0  0
    5.2121   -0.7235   -0.6563 O   0  0  0  0  0  0  0  0  0  0  0  0
    3.8898   -0.8054   -0.2646 C   0  0  0  0  0  0  0  0  0  0  0  0
    3.0366   -1.5176   -1.0913 C   0  0  0  0  0  0  0  0  0  0  0  0
    1.6975   -1.6266   -0.7375 C   0  0  0  0  0  0  0  0  0  0  0  0
    1.2512   -1.0333    0.4108 C   0  0  0  0  0  0  0  0  0  0  0  0
   -0.4410   -1.1834    0.8343 S   0  0  0  0  0  6  0  0  0  0  0  0
   -0.5074   -1.1496    2.3450 O   0  0  0  0  0  0  0  0  0  0  0  0
   -0.9325   -2.4907    0.3324 O   0  0  0  0  0  0  0  0  0  0  0  0
   -1.2970    0.1118    0.2006 N   0  0  0  0  0  0  0  0  0  0  0  0
   -0.9150    1.4068    0.6673 C   0  0  0  0  0  0  0  0  0  0  0  0
   -1.6545    1.8037    1.8717 C   0  0  0  0  0  0  0  0  0  0  0  0
   -2.5154    1.0463    2.3887 O   0  0  0  0  0  0  0  0  0  0  0  0
   -1.4135    3.0581    2.4838 N   0  0  0  0  0  0  0  0  0  0  0  0
   -2.0784    3.4642    3.6024 O   0  0  0  0  0  0  0  0  0  0  0  0
   -2.6128   -0.0438   -0.2266 C   0  0  0  0  0  0  0  0  0  0  0  0
   -2.8343   -0.2522   -1.6974 C   0  0  0  0  0  0  0  0  0  0  0  0
   -4.3209   -0.4043   -2.0199 C   0  0  0  0  0  0  0  0  0  0  0  0
   -2.1320   -1.4395   -2.2613 C   0  0  0  0  0  0  0  0  0  0  0  0
    2.1342   -0.3231    1.2229 C   0  0  0  0  0  0  0  0  0  0  0  0
    3.4636   -0.2026    0.8917 C   0  0  0  0  0  0  0  0  0  0  0  0
    6.6699   -0.7420    0.8003 H   0  0  0  0  0  0  0  0  0  0  0  0
    5.8313    0.8792    0.5267 H   0  0  0  0  0  0  0  0  0  0  0  0
    7.0298    0.2913   -0.6413 H   0  0  0  0  0  0  0  0  0  0  0  0
    3.3713   -1.9899   -1.9975 H   0  0  0  0  0  0  0  0  0  0  0  0
    1.0383   -2.1918   -1.3918 H   0  0  0  0  0  0  0  0  0  0  0  0
   -1.0991    2.1411   -0.1544 H   0  0  0  0  0  0  0  0  0  0  0  0
    0.1716    1.3957    0.8712 H   0  0  0  0  0  0  0  0  0  0  0  0
   -0.7195    3.7080    2.0958 H   0  0  0  0  0  0  0  0  0  0  0  0
   -2.7623    4.1207    3.3447 H   0  0  0  0  0  0  0  0  0  0  0  0
   -3.1803    0.9006    0.0300 H   0  0  0  0  0  0  0  0  0  0  0  0
   -3.1949   -0.8481    0.3165 H   0  0  0  0  0  0  0  0  0  0  0  0
   -2.4906    0.6988   -2.1980 H   0  0  0  0  0  0  0  0  0  0  0  0
   -4.3800   -0.9205   -2.9914 H   0  0  0  0  0  0  0  0  0  0  0  0
   -4.7672   -0.9666   -1.1886 H   0  0  0  0  0  0  0  0  0  0  0  0
   -4.7837    0.6112   -2.0472 H   0  0  0  0  0  0  0  0  0  0  0  0
   -1.0335   -1.3378   -2.1489 H   0  0  0  0  0  0  0  0  0  0  0  0
   -2.2941   -1.5070   -3.3762 H   0  0  0  0  0  0  0  0  0  0  0  0
   -2.5399   -2.3804   -1.8656 H   0  0  0  0  0  0  0  0  0  0  0  0
    1.7553    0.1329    2.1259 H   0  0  0  0  0  0  0  0  0  0  0  0
    4.1349    0.3489    1.5279 H   0  0  0  0  0  0  0  0  0  0  0  0
  1  2  1  0
  2  3  1  0
  3  4  2  0
  4  5  1  0
  5  6  2  0
  6  7  1  0
  7  8  2  0
  7  9  2  0
  7 10  1  0
 10 11  1  0
 11 12  1  0
 12 13  2  0
 12 14  1  0
 14 15  1  0
 10 16  1  0
 16 17  1  0
 17 18  1  0
 17 19  1  0
  6 20  1  0
 20 21  2  0
 21  3  1  0
  1 22  1  0
  1 23  1  0
  1 24  1  0
  4 25  1  0
  5 26  1  0
 11 27  1  0
 11 28  1  0
 14 29  1  0
 15 30  1  0
 16 31  1  0
 16 32  1  0
 17 33  1  0
 18 34  1  0
 18 35  1  0
 18 36  1  0
 19 37  1  0
 19 38  1  0
 19 39  1  0
 20 40  1  0
 21 41  1  0
M  END
$$$$
