@<TRIPOS>MOLECULE
*****
 41 41 0 0 0
SMALL
GASTEIGER

@<TRIPOS>ATOM
      1 C           6.2128   -0.0399    0.0651 C.3     1  UNL1        0.0788
      2 O           5.2121   -0.7235   -0.6563 O.3     1  UNL1       -0.4951
      3 C           3.8898   -0.8054   -0.2646 C.ar    1  UNL1        0.1202
      4 C           3.0366   -1.5176   -1.0913 C.ar    1  UNL1       -0.0181
      5 C           1.6975   -1.6266   -0.7375 C.ar    1  UNL1       -0.0319
      6 C           1.2512   -1.0333    0.4108 C.ar    1  UNL1        0.1057
      7 S          -0.4410   -1.1834    0.8343 S.O2    1  UNL1        0.0613
      8 O          -0.5074   -1.1496    2.3450 O.2     1  UNL1       -0.1528
      9 O          -0.9325   -2.4907    0.3324 O.2     1  UNL1       -0.1528
     10 N          -1.2970    0.1118    0.2006 N.3     1  UNL1       -0.1675
     11 C          -0.9150    1.4068    0.6673 C.3     1  UNL1        0.0988
     12 C          -1.6545    1.8037    1.8717 C.2     1  UNL1        0.2512
     13 O          -2.5154    1.0463    2.3887 O.2     1  UNL1       -0.2723
     14 N          -1.4135    3.0581    2.4838 N.am    1  UNL1       -0.1964
     15 O          -2.0784    3.4642    3.6024 O.3     1  UNL1       -0.2952
     16 C          -2.6128   -0.0438   -0.2266 C.3     1  UNL1        0.0234
     17 C          -2.8343   -0.2522   -1.6974 C.3     1  UNL1       -0.0323
     18 C          -4.3209   -0.4043   -2.0199 C.3     1  UNL1       -0.0615
     19 C          -2.1320   -1.4395   -2.2613 C.3     1  UNL1       -0.0615
     20 C           2.1342   -0.3231    1.2229 C.ar    1  UNL1       -0.0319
     21 C           3.4636   -0.2026    0.8917 C.ar    1  UNL1       -0.0181
     22 H           6.6699   -0.7420    0.8003 H       1  UNL1        0.0660
     23 H           5.8313    0.8792    0.5267 H       1  UNL1        0.0660
     24 H           7.0298    0.2913   -0.6413 H       1  UNL1        0.0660
     25 H           3.3713   -1.9899   -1.9975 H       1  UNL1        0.0655
     26 H           1.0383   -2.1918   -1.3918 H       1  UNL1        0.0638
     27 H          -1.0991    2.1411   -0.1544 H       1  UNL1        0.0540
     28 H           0.1716    1.3957    0.8712 H       1  UNL1        0.0540
     29 H          -0.7195    3.7080    2.0958 H       1  UNL1        0.1822
     30 H          -2.7623    4.1207    3.3447 H       1  UNL1        0.2414
     31 H          -3.1803    0.9006    0.0300 H       1  UNL1        0.0447
     32 H          -3.1949   -0.8481    0.3165 H       1  UNL1        0.0447
     33 H          -2.4906    0.6988   -2.1980 H       1  UNL1        0.0308
     34 H          -4.3800   -0.9205   -2.9914 H       1  UNL1        0.0233
     35 H          -4.7672   -0.9666   -1.1886 H       1  UNL1        0.0233
     36 H          -4.7837    0.6112   -2.0472 H       1  UNL1        0.0233
     37 H          -1.0335   -1.3378   -2.1489 H       1  UNL1        0.0233
     38 H          -2.2941   -1.5070   -3.3762 H       1  UNL1        0.0233
     39 H          -2.5399   -2.3804   -1.8656 H       1  UNL1        0.0233
     40 H           1.7553    0.1329    2.1259 H       1  UNL1        0.0638
     41 H           4.1349    0.3489    1.5279 H       1  UNL1        0.0655
@<TRIPOS>BOND
     1     1     2    1
     2     2     3    1
     3     3     4   ar
     4     4     5   ar
     5     5     6   ar
     6     6     7    1
     7     7     8    2
     8     7     9    2
     9     7    10    1
    10    10    11    1
    11    11    12    1
    12    12    13    2
    13    12    14   am
    14    14    15    1
    15    10    16    1
    16    16    17    1
    17    17    18    1
    18    17    19    1
    19     6    20   ar
    20    20    21   ar
    21    21     3   ar
    22     1    22    1
    23     1    23    1
    24     1    24    1
    25     4    25    1
    26     5    26    1
    27    11    27    1
    28    11    28    1
    29    14    29    1
    30    15    30    1
    31    16    31    1
    32    16    32    1
    33    17    33    1
    34    18    34    1
    35    18    35    1
    36    18    36    1
    37    19    37    1
    38    19    38    1
    39    19    39    1
    40    20    40    1
    41    21    41    1
