@<TRIPOS>MOLECULE
*****
 55 57 0 0 0
SMALL
GASTEIGER

@<TRIPOS>ATOM
      1 C           1.0473    0.3560    0.7698 C.3     1  UNL1       -0.0342
      2 C          -0.0821    0.3380   -0.2025 C.3     1  UNL1       -0.0340
      3 C          -0.9638   -0.8119   -0.3198 C.3     1  UNL1       -0.0379
      4 C          -1.7073   -1.3128    0.8741 C.3     1  UNL1       -0.0499
      5 C          -2.8450   -2.1912    0.3174 C.3     1  UNL1       -0.0528
      6 C          -2.2260   -3.3788   -0.3391 C.3     1  UNL1       -0.0530
      7 C          -1.5135   -2.8899   -1.5818 C.3     1  UNL1       -0.0528
      8 C          -0.4472   -1.8633   -1.2218 C.3     1  UNL1       -0.0499
      9 C          -0.7442    1.6986   -0.1220 C.3     1  UNL1       -0.0379
     10 C          -1.2876    2.0606    1.2218 C.3     1  UNL1       -0.0499
     11 C          -2.7877    2.3176    1.0628 C.3     1  UNL1       -0.0528
     12 C          -2.8980    3.5858    0.2423 C.3     1  UNL1       -0.0530
     13 C          -2.1113    3.4679   -1.0238 C.3     1  UNL1       -0.0528
     14 C          -1.6748    2.0078   -1.2509 C.3     1  UNL1       -0.0499
     15 C           2.0833   -0.7065    0.5951 C.3     1  UNL1        0.0079
     16 C           3.2043   -0.5673    1.6302 C.3     1  UNL1       -0.0375
     17 C           4.4177    0.1289    0.9995 C.3     1  UNL1       -0.0505
     18 C           4.8797   -0.6278   -0.2264 C.3     1  UNL1       -0.0404
     19 C           3.7709   -1.4693   -0.8196 C.3     1  UNL1       -0.0039
     20 N           2.5638   -0.6880   -0.7549 N.3     1  UNL1       -0.3132
     21 H           1.6382    1.3304    0.6812 H       1  UNL1        0.0283
     22 H           0.6887    0.4134    1.8328 H       1  UNL1        0.0283
     23 H           0.4110    0.4019   -1.2609 H       1  UNL1        0.0307
     24 H          -1.8625   -0.3754   -0.9598 H       1  UNL1        0.0304
     25 H          -1.1190   -1.9640    1.5256 H       1  UNL1        0.0268
     26 H          -2.2522   -0.5367    1.4117 H       1  UNL1        0.0268
     27 H          -3.5674   -2.4355    1.1290 H       1  UNL1        0.0265
     28 H          -3.3460   -1.6051   -0.4848 H       1  UNL1        0.0265
     29 H          -1.5776   -3.9700    0.3048 H       1  UNL1        0.0265
     30 H          -3.0650   -4.0290   -0.6905 H       1  UNL1        0.0265
     31 H          -2.2016   -2.4647   -2.3037 H       1  UNL1        0.0265
     32 H          -0.9953   -3.7518   -2.0353 H       1  UNL1        0.0265
     33 H           0.4370   -2.4187   -0.9661 H       1  UNL1        0.0268
     34 H          -0.2128   -1.3543   -2.2053 H       1  UNL1        0.0268
     35 H           0.1252    2.4088   -0.2978 H       1  UNL1        0.0304
     36 H          -0.9003    3.0699    1.5729 H       1  UNL1        0.0268
     37 H          -1.0480    1.3900    2.0484 H       1  UNL1        0.0268
     38 H          -3.3385    1.4677    0.6638 H       1  UNL1        0.0265
     39 H          -3.1579    2.4755    2.0983 H       1  UNL1        0.0265
     40 H          -2.4516    4.3863    0.9000 H       1  UNL1        0.0265
     41 H          -3.9616    3.8713    0.1043 H       1  UNL1        0.0265
     42 H          -1.1565    4.0251   -0.9125 H       1  UNL1        0.0265
     43 H          -2.6225    3.8296   -1.9239 H       1  UNL1        0.0265
     44 H          -1.1168    1.9602   -2.1936 H       1  UNL1        0.0268
     45 H          -2.6309    1.4507   -1.2490 H       1  UNL1        0.0268
     46 H           1.5616   -1.6841    0.7686 H       1  UNL1        0.0460
     47 H           3.5422   -1.5989    1.8559 H       1  UNL1        0.0280
     48 H           2.9063   -0.0120    2.5192 H       1  UNL1        0.0280
     49 H           5.2187    0.0840    1.7677 H       1  UNL1        0.0266
     50 H           4.1286    1.1766    0.7917 H       1  UNL1        0.0266
     51 H           5.7525   -1.2530   -0.0411 H       1  UNL1        0.0277
     52 H           5.1246    0.1468   -0.9893 H       1  UNL1        0.0277
     53 H           3.6452   -2.4316   -0.2814 H       1  UNL1        0.0424
     54 H           3.9778   -1.6940   -1.8830 H       1  UNL1        0.0424
     55 H           2.7476    0.2360   -1.1484 H       1  UNL1        0.1222
@<TRIPOS>BOND
     1     1     2    1
     2     2     3    1
     3     3     4    1
     4     4     5    1
     5     5     6    1
     6     6     7    1
     7     7     8    1
     8     2     9    1
     9     9    10    1
    10    10    11    1
    11    11    12    1
    12    12    13    1
    13    13    14    1
    14     1    15    1
    15    15    16    1
    16    16    17    1
    17    17    18    1
    18    18    19    1
    19    19    20    1
    20     8     3    1
    21    14     9    1
    22    20    15    1
    23     1    21    1
    24     1    22    1
    25     2    23    1
    26     3    24    1
    27     4    25    1
    28     4    26    1
    29     5    27    1
    30     5    28    1
    31     6    29    1
    32     6    30    1
    33     7    31    1
    34     7    32    1
    35     8    33    1
    36     8    34    1
    37     9    35    1
    38    10    36    1
    39    10    37    1
    40    11    38    1
    41    11    39    1
    42    12    40    1
    43    12    41    1
    44    13    42    1
    45    13    43    1
    46    14    44    1
    47    14    45    1
    48    15    46    1
    49    16    47    1
    50    16    48    1
    51    17    49    1
    52    17    50    1
    53    18    51    1
    54    18    52    1
    55    19    53    1
    56    19    54    1
    57    20    55    1
