
     RDKit          3D

 55 58  0  0  0  0  0  0  0  0999 V2000
    5.2561    0.8461    1.0237 O   0  0  0  0  0  0  0  0  0  0  0  0
    4.5917   -0.0545    0.1898 C   0  0  2  0  0  0  0  0  0  0  0  0
    3.1080    0.1157    0.3849 C   0  0  0  0  0  0  0  0  0  0  0  0
    2.3393   -0.8195   -0.4951 C   0  0  2  0  0  0  0  0  0  0  0  0
    2.6401   -0.5758   -1.8369 O   0  0  0  0  0  0  0  0  0  0  0  0
    0.8736   -0.6768   -0.3126 C   0  0  0  0  0  0  0  0  0  0  0  0
    0.1645    0.4038   -0.2350 C   0  0  0  0  0  0  0  0  0  0  0  0
   -1.1701    0.9114   -0.0719 C   0  0  0  0  0  0  0  0  0  0  0  0
   -1.4376    2.2528   -0.1354 C   0  0  0  0  0  0  0  0  0  0  0  0
   -2.6858    2.6718    0.0813 N   0  0  0  0  0  0  0  0  0  0  0  0
   -3.7174    1.8702    0.3589 C   0  0  0  0  0  0  0  0  0  0  0  0
   -4.9623    2.4147    0.5625 C   0  0  0  0  0  0  0  0  0  0  0  0
   -6.0445    1.6258    0.8455 C   0  0  0  0  0  0  0  0  0  0  0  0
   -5.8421    0.2673    0.9190 C   0  0  0  0  0  0  0  0  0  0  0  0
   -4.5878   -0.2697    0.7130 C   0  0  0  0  0  0  0  0  0  0  0  0
   -3.4744    0.4938    0.4265 C   0  0  0  0  0  0  0  0  0  0  0  0
   -2.1817    0.0394    0.2060 C   0  0  0  0  0  0  0  0  0  0  0  0
   -2.1677   -1.4060    0.3222 C   0  0  0  0  0  0  0  0  0  0  0  0
   -1.8962   -2.0507    1.5239 C   0  0  0  0  0  0  0  0  0  0  0  0
   -1.9405   -3.4229    1.5629 C   0  0  0  0  0  0  0  0  0  0  0  0
   -2.2488   -4.1102    0.4241 C   0  0  0  0  0  0  0  0  0  0  0  0
   -2.2928   -5.4831    0.4682 F   0  0  0  0  0  0  0  0  0  0  0  0
   -2.5295   -3.5080   -0.8052 C   0  0  0  0  0  0  0  0  0  0  0  0
   -2.4847   -2.1173   -0.8444 C   0  0  0  0  0  0  0  0  0  0  0  0
   -0.4949    3.3436   -0.4716 C   0  0  0  0  0  0  0  0  0  0  0  0
   -0.7176    4.1390   -1.7532 C   0  0  0  0  0  0  0  0  0  0  0  0
    0.3762    3.0773   -1.6754 C   0  0  0  0  0  0  0  0  0  0  0  0
    5.0269   -1.4404    0.5982 C   0  0  0  0  0  0  0  0  0  0  0  0
    6.5052   -1.5084    0.4109 C   0  0  0  0  0  0  0  0  0  0  0  0
    7.8067   -1.7531    0.8484 O   0  0  0  0  0  0  0  0  0  0  0  0
    6.9172   -1.1836   -0.7561 O   0  0  0  0  0  0  0  0  0  0  0  0
    5.3944    1.7006    0.5353 H   0  0  0  0  0  0  0  0  0  0  0  0
    4.8647    0.1392   -0.8699 H   0  0  0  0  0  0  0  0  0  0  0  0
    2.8516   -0.0909    1.4500 H   0  0  0  0  0  0  0  0  0  0  0  0
    2.8869    1.1745    0.1728 H   0  0  0  0  0  0  0  0  0  0  0  0
    2.6183   -1.8580   -0.1980 H   0  0  0  0  0  0  0  0  0  0  0  0
    2.5728   -1.3729   -2.3918 H   0  0  0  0  0  0  0  0  0  0  0  0
    0.2096   -1.5124   -0.2243 H   0  0  0  0  0  0  0  0  0  0  0  0
    0.9283    1.1972   -0.3123 H   0  0  0  0  0  0  0  0  0  0  0  0
   -5.1428    3.4865    0.5122 H   0  0  0  0  0  0  0  0  0  0  0  0
   -7.0110    2.0703    0.9996 H   0  0  0  0  0  0  0  0  0  0  0  0
   -6.6524   -0.3936    1.1338 H   0  0  0  0  0  0  0  0  0  0  0  0
   -4.4458   -1.3276    0.7759 H   0  0  0  0  0  0  0  0  0  0  0  0
   -1.6558   -1.4517    2.3949 H   0  0  0  0  0  0  0  0  0  0  0  0
   -1.7236   -3.8673    2.5156 H   0  0  0  0  0  0  0  0  0  0  0  0
   -2.7685   -4.1046   -1.6727 H   0  0  0  0  0  0  0  0  0  0  0  0
   -2.6992   -1.6395   -1.7787 H   0  0  0  0  0  0  0  0  0  0  0  0
   -0.0873    3.8483    0.3975 H   0  0  0  0  0  0  0  0  0  0  0  0
   -0.4268    5.2080   -1.6822 H   0  0  0  0  0  0  0  0  0  0  0  0
   -1.6710    3.8783   -2.2815 H   0  0  0  0  0  0  0  0  0  0  0  0
    1.4198    3.4081   -1.7067 H   0  0  0  0  0  0  0  0  0  0  0  0
    0.1289    2.1717   -2.3070 H   0  0  0  0  0  0  0  0  0  0  0  0
    4.5737   -2.1691   -0.1108 H   0  0  0  0  0  0  0  0  0  0  0  0
    4.7578   -1.6328    1.6480 H   0  0  0  0  0  0  0  0  0  0  0  0
    8.3481   -0.9549    1.2279 H   0  0  0  0  0  0  0  0  0  0  0  0
  1  2  1  0
  2  3  1  0
  3  4  1  0
  4  5  1  0
  4  6  1  0
  6  7  2  0
  7  8  1  0
  8  9  2  0
  9 10  1  0
 10 11  2  0
 11 12  1  0
 12 13  2  0
 13 14  1  0
 14 15  2  0
 15 16  1  0
 16 17  2  0
 17 18  1  0
 18 19  2  0
 19 20  1  0
 20 21  2  0
 21 22  1  0
 21 23  1  0
 23 24  2  0
  9 25  1  0
 25 26  1  0
 26 27  1  0
  2 28  1  0
 28 29  1  0
 29 30  1  0
 29 31  2  0
 17  8  1  0
 24 18  1  0
 27 25  1  0
 16 11  1  0
  1 32  1  0
  2 33  1  6
  3 34  1  0
  3 35  1  0
  4 36  1  1
  5 37  1  0
  6 38  1  0
  7 39  1  0
 12 40  1  0
 13 41  1  0
 14 42  1  0
 15 43  1  0
 19 44  1  0
 20 45  1  0
 23 46  1  0
 24 47  1  0
 25 48  1  0
 26 49  1  0
 26 50  1  0
 27 51  1  0
 27 52  1  0
 28 53  1  0
 28 54  1  0
 30 55  1  0
M  END
$$$$
