@<TRIPOS>MOLECULE
*****
 55 58 0 0 0
SMALL
GASTEIGER

@<TRIPOS>ATOM
      1 O           5.2561    0.8461    1.0237 O.3     1  UNL1       -0.3912
      2 C           4.5917   -0.0545    0.1898 C.3     1  UNL1        0.0679
      3 C           3.1080    0.1157    0.3849 C.3     1  UNL1        0.0034
      4 C           2.3393   -0.8195   -0.4951 C.3     1  UNL1        0.0760
      5 O           2.6401   -0.5758   -1.8369 O.3     1  UNL1       -0.3877
      6 C           0.8736   -0.6768   -0.3126 C.2     1  UNL1       -0.0552
      7 C           0.1645    0.4038   -0.2350 C.2     1  UNL1       -0.0538
      8 C          -1.1701    0.9114   -0.0719 C.ar    1  UNL1        0.0046
      9 C          -1.4376    2.2528   -0.1354 C.ar    1  UNL1        0.0527
     10 N          -2.6858    2.6718    0.0813 N.ar    1  UNL1       -0.2507
     11 C          -3.7174    1.8702    0.3589 C.ar    1  UNL1        0.0719
     12 C          -4.9623    2.4147    0.5625 C.ar    1  UNL1       -0.0357
     13 C          -6.0445    1.6258    0.8455 C.ar    1  UNL1       -0.0597
     14 C          -5.8421    0.2673    0.9190 C.ar    1  UNL1       -0.0611
     15 C          -4.5878   -0.2697    0.7130 C.ar    1  UNL1       -0.0520
     16 C          -3.4744    0.4938    0.4265 C.ar    1  UNL1        0.0087
     17 C          -2.1817    0.0394    0.2060 C.ar    1  UNL1        0.0001
     18 C          -2.1677   -1.4060    0.3222 C.ar    1  UNL1       -0.0165
     19 C          -1.8962   -2.0507    1.5239 C.ar    1  UNL1       -0.0513
     20 C          -1.9405   -3.4229    1.5629 C.ar    1  UNL1       -0.0259
     21 C          -2.2488   -4.1102    0.4241 C.ar    1  UNL1        0.1234
     22 F          -2.2928   -5.4831    0.4682 F       1  UNL1       -0.2055
     23 C          -2.5295   -3.5080   -0.8052 C.ar    1  UNL1       -0.0259
     24 C          -2.4847   -2.1173   -0.8444 C.ar    1  UNL1       -0.0513
     25 C          -0.4949    3.3436   -0.4716 C.3     1  UNL1        0.0020
     26 C          -0.7176    4.1390   -1.7532 C.3     1  UNL1       -0.0442
     27 C           0.3762    3.0773   -1.6754 C.3     1  UNL1       -0.0442
     28 C           5.0269   -1.4404    0.5982 C.3     1  UNL1        0.0708
     29 C           6.5052   -1.5084    0.4109 C.2     1  UNL1        0.3072
     30 O           7.8067   -1.7531    0.8484 O.3     1  UNL1       -0.4806
     31 O           6.9172   -1.1836   -0.7561 O.2     1  UNL1       -0.2509
     32 H           5.3944    1.7006    0.5353 H       1  UNL1        0.2098
     33 H           4.8647    0.1392   -0.8699 H       1  UNL1        0.0599
     34 H           2.8516   -0.0909    1.4500 H       1  UNL1        0.0318
     35 H           2.8869    1.1745    0.1728 H       1  UNL1        0.0318
     36 H           2.6183   -1.8580   -0.1980 H       1  UNL1        0.0638
     37 H           2.5728   -1.3729   -2.3918 H       1  UNL1        0.2102
     38 H           0.2096   -1.5124   -0.2243 H       1  UNL1        0.0598
     39 H           0.9283    1.1972   -0.3123 H       1  UNL1        0.0622
     40 H          -5.1428    3.4865    0.5122 H       1  UNL1        0.0639
     41 H          -7.0110    2.0703    0.9996 H       1  UNL1        0.0618
     42 H          -6.6524   -0.3936    1.1338 H       1  UNL1        0.0618
     43 H          -4.4458   -1.3276    0.7759 H       1  UNL1        0.0624
     44 H          -1.6558   -1.4517    2.3949 H       1  UNL1        0.0624
     45 H          -1.7236   -3.8673    2.5156 H       1  UNL1        0.0646
     46 H          -2.7685   -4.1046   -1.6727 H       1  UNL1        0.0646
     47 H          -2.6992   -1.6395   -1.7787 H       1  UNL1        0.0624
     48 H          -0.0873    3.8483    0.3975 H       1  UNL1        0.0364
     49 H          -0.4268    5.2080   -1.6822 H       1  UNL1        0.0272
     50 H          -1.6710    3.8783   -2.2815 H       1  UNL1        0.0272
     51 H           1.4198    3.4081   -1.7067 H       1  UNL1        0.0272
     52 H           0.1289    2.1717   -2.3070 H       1  UNL1        0.0272
     53 H           4.5737   -2.1691   -0.1108 H       1  UNL1        0.0403
     54 H           4.7578   -1.6328    1.6480 H       1  UNL1        0.0403
     55 H           8.3481   -0.9549    1.2279 H       1  UNL1        0.2951
@<TRIPOS>BOND
     1     1     2    1
     2     2     3    1
     3     3     4    1
     4     4     5    1
     5     4     6    1
     6     6     7    2
     7     7     8    1
     8     8     9   ar
     9     9    10   ar
    10    10    11   ar
    11    11    12   ar
    12    12    13   ar
    13    13    14   ar
    14    14    15   ar
    15    15    16   ar
    16    16    17   ar
    17    17    18    1
    18    18    19   ar
    19    19    20   ar
    20    20    21   ar
    21    21    22    1
    22    21    23   ar
    23    23    24   ar
    24     9    25    1
    25    25    26    1
    26    26    27    1
    27     2    28    1
    28    28    29    1
    29    29    30    1
    30    29    31    2
    31    17     8   ar
    32    24    18   ar
    33    27    25    1
    34    16    11   ar
    35     1    32    1
    36     2    33    1
    37     3    34    1
    38     3    35    1
    39     4    36    1
    40     5    37    1
    41     6    38    1
    42     7    39    1
    43    12    40    1
    44    13    41    1
    45    14    42    1
    46    15    43    1
    47    19    44    1
    48    20    45    1
    49    23    46    1
    50    24    47    1
    51    25    48    1
    52    26    49    1
    53    26    50    1
    54    27    51    1
    55    27    52    1
    56    28    53    1
    57    28    54    1
    58    30    55    1
