@<TRIPOS>MOLECULE
*****
 60 60 0 0 0
SMALL
GASTEIGER

@<TRIPOS>ATOM
      1 C           6.9702   -0.8924    1.1292 C.3     1  UNL1       -0.0492
      2 C           6.3128   -1.8030    0.1223 C.3     1  UNL1        0.0133
      3 N           5.8386   -0.9800   -0.9744 N.am    1  UNL1       -0.2859
      4 C           6.6127   -0.6602   -2.1420 C.3     1  UNL1        0.0133
      5 C           7.3735    0.6193   -1.8630 C.3     1  UNL1       -0.0492
      6 C           4.5113   -0.4940   -0.8147 C.2     1  UNL1        0.3064
      7 O           4.1282   -0.9529    0.2928 O.2     1  UNL1       -0.2523
      8 N           3.7213    0.3225   -1.6535 N.am    1  UNL1       -0.2693
      9 C           2.4068    0.6023   -1.1386 C.ar    1  UNL1        0.0357
     10 C           1.3140   -0.2121   -1.4195 C.ar    1  UNL1       -0.0369
     11 C           0.0856    0.1327   -0.8811 C.ar    1  UNL1       -0.0175
     12 C          -0.0567    1.2405   -0.0951 C.ar    1  UNL1        0.1312
     13 O          -1.2836    1.5974    0.4511 O.3     1  UNL1       -0.4887
     14 C          -2.4329    0.7742    0.1776 C.3     1  UNL1        0.1166
     15 C          -3.6555    1.3261    0.8562 C.3     1  UNL1        0.1015
     16 O          -3.4585    1.3480    2.2173 O.3     1  UNL1       -0.3872
     17 C          -4.8749    0.5890    0.4196 C.3     1  UNL1        0.0256
     18 N          -4.8279   -0.7792    0.8416 N.3     1  UNL1       -0.3088
     19 C          -6.0255   -1.5080    0.4451 C.3     1  UNL1        0.0108
     20 C          -6.1745   -1.4878   -1.0637 C.3     1  UNL1       -0.0473
     21 C          -7.2105   -0.8243    1.1010 C.3     1  UNL1       -0.0473
     22 C          -5.9378   -2.9247    0.9264 C.3     1  UNL1       -0.0473
     23 C           0.9989    2.0768    0.2099 C.ar    1  UNL1        0.0605
     24 C           2.2186    1.6956   -0.3510 C.ar    1  UNL1       -0.0264
     25 C           0.9455    3.2748    1.0355 C.2     1  UNL1        0.1637
     26 C          -0.3569    3.6768    1.6314 C.3     1  UNL1       -0.0013
     27 O           1.9969    3.9612    1.2399 O.2     1  UNL1       -0.2922
     28 H           6.8412   -1.2959    2.1653 H       1  UNL1        0.0245
     29 H           6.5286    0.1158    1.0321 H       1  UNL1        0.0245
     30 H           8.0598   -0.8541    0.8757 H       1  UNL1        0.0245
     31 H           6.9969   -2.6023   -0.2300 H       1  UNL1        0.0462
     32 H           5.4767   -2.3400    0.6305 H       1  UNL1        0.0462
     33 H           7.3325   -1.5126   -2.2788 H       1  UNL1        0.0462
     34 H           5.9646   -0.5592   -3.0564 H       1  UNL1        0.0462
     35 H           8.2140    0.3768   -1.1778 H       1  UNL1        0.0245
     36 H           6.6850    1.2881   -1.3062 H       1  UNL1        0.0245
     37 H           7.7270    1.0769   -2.8086 H       1  UNL1        0.0245
     38 H           4.2302    0.5930   -2.5239 H       1  UNL1        0.1564
     39 H           1.4984   -1.0747   -2.0495 H       1  UNL1        0.0637
     40 H          -0.7649   -0.5089   -1.1051 H       1  UNL1        0.0655
     41 H          -2.2206   -0.2721    0.4751 H       1  UNL1        0.0723
     42 H          -2.6229    0.7710   -0.9150 H       1  UNL1        0.0723
     43 H          -3.8103    2.4080    0.5549 H       1  UNL1        0.0640
     44 H          -2.6185    0.9107    2.5049 H       1  UNL1        0.2100
     45 H          -5.7975    1.1139    0.7597 H       1  UNL1        0.0451
     46 H          -4.9653    0.5743   -0.6974 H       1  UNL1        0.0451
     47 H          -3.9697   -1.2249    0.4814 H       1  UNL1        0.1225
     48 H          -6.8052   -0.5986   -1.3165 H       1  UNL1        0.0247
     49 H          -5.2065   -1.4004   -1.5792 H       1  UNL1        0.0247
     50 H          -6.6984   -2.4225   -1.3740 H       1  UNL1        0.0247
     51 H          -7.9936   -1.5612    1.3114 H       1  UNL1        0.0247
     52 H          -7.5405    0.0063    0.4580 H       1  UNL1        0.0247
     53 H          -6.8863   -0.3757    2.0580 H       1  UNL1        0.0247
     54 H          -6.9654   -3.3012    1.1350 H       1  UNL1        0.0247
     55 H          -5.3247   -2.9506    1.8698 H       1  UNL1        0.0247
     56 H          -5.4492   -3.5515    0.1443 H       1  UNL1        0.0247
     57 H           3.0732    2.3207   -0.1392 H       1  UNL1        0.0644
     58 H          -1.1092    3.8918    0.8493 H       1  UNL1        0.0309
     59 H          -0.2378    4.6235    2.2353 H       1  UNL1        0.0309
     60 H          -0.7811    2.9101    2.3162 H       1  UNL1        0.0309
@<TRIPOS>BOND
     1     1     2    1
     2     2     3    1
     3     3     4    1
     4     4     5    1
     5     3     6   am
     6     6     7    2
     7     6     8   am
     8     8     9    1
     9     9    10   ar
    10    10    11   ar
    11    11    12   ar
    12    12    13    1
    13    13    14    1
    14    14    15    1
    15    15    16    1
    16    15    17    1
    17    17    18    1
    18    18    19    1
    19    19    20    1
    20    19    21    1
    21    19    22    1
    22    12    23   ar
    23    23    24   ar
    24    23    25    1
    25    25    26    1
    26    25    27    2
    27    24     9   ar
    28     1    28    1
    29     1    29    1
    30     1    30    1
    31     2    31    1
    32     2    32    1
    33     4    33    1
    34     4    34    1
    35     5    35    1
    36     5    36    1
    37     5    37    1
    38     8    38    1
    39    10    39    1
    40    11    40    1
    41    14    41    1
    42    14    42    1
    43    15    43    1
    44    16    44    1
    45    17    45    1
    46    17    46    1
    47    18    47    1
    48    20    48    1
    49    20    49    1
    50    20    50    1
    51    21    51    1
    52    21    52    1
    53    21    53    1
    54    22    54    1
    55    22    55    1
    56    22    56    1
    57    24    57    1
    58    26    58    1
    59    26    59    1
    60    26    60    1
