
     RDKit          3D

 60 60  0  0  0  0  0  0  0  0999 V2000
    6.9702   -0.8924    1.1292 C   0  0  0  0  0  0  0  0  0  0  0  0
    6.3128   -1.8030    0.1223 C   0  0  0  0  0  0  0  0  0  0  0  0
    5.8386   -0.9800   -0.9744 N   0  0  0  0  0  0  0  0  0  0  0  0
    6.6127   -0.6602   -2.1420 C   0  0  0  0  0  0  0  0  0  0  0  0
    7.3735    0.6193   -1.8630 C   0  0  0  0  0  0  0  0  0  0  0  0
    4.5113   -0.4940   -0.8147 C   0  0  0  0  0  0  0  0  0  0  0  0
    4.1282   -0.9529    0.2928 O   0  0  0  0  0  0  0  0  0  0  0  0
    3.7213    0.3225   -1.6535 N   0  0  0  0  0  0  0  0  0  0  0  0
    2.4068    0.6023   -1.1386 C   0  0  0  0  0  0  0  0  0  0  0  0
    1.3140   -0.2121   -1.4195 C   0  0  0  0  0  0  0  0  0  0  0  0
    0.0856    0.1327   -0.8811 C   0  0  0  0  0  0  0  0  0  0  0  0
   -0.0567    1.2405   -0.0951 C   0  0  0  0  0  0  0  0  0  0  0  0
   -1.2836    1.5974    0.4511 O   0  0  0  0  0  0  0  0  0  0  0  0
   -2.4329    0.7742    0.1776 C   0  0  0  0  0  0  0  0  0  0  0  0
   -3.6555    1.3261    0.8562 C   0  0  0  0  0  0  0  0  0  0  0  0
   -3.4585    1.3480    2.2173 O   0  0  0  0  0  0  0  0  0  0  0  0
   -4.8749    0.5890    0.4196 C   0  0  0  0  0  0  0  0  0  0  0  0
   -4.8279   -0.7792    0.8416 N   0  0  0  0  0  0  0  0  0  0  0  0
   -6.0255   -1.5080    0.4451 C   0  0  0  0  0  0  0  0  0  0  0  0
   -6.1745   -1.4878   -1.0637 C   0  0  0  0  0  0  0  0  0  0  0  0
   -7.2105   -0.8243    1.1010 C   0  0  0  0  0  0  0  0  0  0  0  0
   -5.9378   -2.9247    0.9264 C   0  0  0  0  0  0  0  0  0  0  0  0
    0.9989    2.0768    0.2099 C   0  0  0  0  0  0  0  0  0  0  0  0
    2.2186    1.6956   -0.3510 C   0  0  0  0  0  0  0  0  0  0  0  0
    0.9455    3.2748    1.0355 C   0  0  0  0  0  0  0  0  0  0  0  0
   -0.3569    3.6768    1.6314 C   0  0  0  0  0  0  0  0  0  0  0  0
    1.9969    3.9612    1.2399 O   0  0  0  0  0  0  0  0  0  0  0  0
    6.8412   -1.2959    2.1653 H   0  0  0  0  0  0  0  0  0  0  0  0
    6.5286    0.1158    1.0321 H   0  0  0  0  0  0  0  0  0  0  0  0
    8.0598   -0.8541    0.8757 H   0  0  0  0  0  0  0  0  0  0  0  0
    6.9969   -2.6023   -0.2300 H   0  0  0  0  0  0  0  0  0  0  0  0
    5.4767   -2.3400    0.6305 H   0  0  0  0  0  0  0  0  0  0  0  0
    7.3325   -1.5126   -2.2788 H   0  0  0  0  0  0  0  0  0  0  0  0
    5.9646   -0.5592   -3.0564 H   0  0  0  0  0  0  0  0  0  0  0  0
    8.2140    0.3768   -1.1778 H   0  0  0  0  0  0  0  0  0  0  0  0
    6.6850    1.2881   -1.3062 H   0  0  0  0  0  0  0  0  0  0  0  0
    7.7270    1.0769   -2.8086 H   0  0  0  0  0  0  0  0  0  0  0  0
    4.2302    0.5930   -2.5239 H   0  0  0  0  0  0  0  0  0  0  0  0
    1.4984   -1.0747   -2.0495 H   0  0  0  0  0  0  0  0  0  0  0  0
   -0.7649   -0.5089   -1.1051 H   0  0  0  0  0  0  0  0  0  0  0  0
   -2.2206   -0.2721    0.4751 H   0  0  0  0  0  0  0  0  0  0  0  0
   -2.6229    0.7710   -0.9150 H   0  0  0  0  0  0  0  0  0  0  0  0
   -3.8103    2.4080    0.5549 H   0  0  0  0  0  0  0  0  0  0  0  0
   -2.6185    0.9107    2.5049 H   0  0  0  0  0  0  0  0  0  0  0  0
   -5.7975    1.1139    0.7597 H   0  0  0  0  0  0  0  0  0  0  0  0
   -4.9653    0.5743   -0.6974 H   0  0  0  0  0  0  0  0  0  0  0  0
   -3.9697   -1.2249    0.4814 H   0  0  0  0  0  0  0  0  0  0  0  0
   -6.8052   -0.5986   -1.3165 H   0  0  0  0  0  0  0  0  0  0  0  0
   -5.2065   -1.4004   -1.5792 H   0  0  0  0  0  0  0  0  0  0  0  0
   -6.6984   -2.4225   -1.3740 H   0  0  0  0  0  0  0  0  0  0  0  0
   -7.9936   -1.5612    1.3114 H   0  0  0  0  0  0  0  0  0  0  0  0
   -7.5405    0.0063    0.4580 H   0  0  0  0  0  0  0  0  0  0  0  0
   -6.8863   -0.3757    2.0580 H   0  0  0  0  0  0  0  0  0  0  0  0
   -6.9654   -3.3012    1.1350 H   0  0  0  0  0  0  0  0  0  0  0  0
   -5.3247   -2.9506    1.8698 H   0  0  0  0  0  0  0  0  0  0  0  0
   -5.4492   -3.5515    0.1443 H   0  0  0  0  0  0  0  0  0  0  0  0
    3.0732    2.3207   -0.1392 H   0  0  0  0  0  0  0  0  0  0  0  0
   -1.1092    3.8918    0.8493 H   0  0  0  0  0  0  0  0  0  0  0  0
   -0.2378    4.6235    2.2353 H   0  0  0  0  0  0  0  0  0  0  0  0
   -0.7811    2.9101    2.3162 H   0  0  0  0  0  0  0  0  0  0  0  0
  1  2  1  0
  2  3  1  0
  3  4  1  0
  4  5  1  0
  3  6  1  0
  6  7  2  0
  6  8  1  0
  8  9  1  0
  9 10  2  0
 10 11  1  0
 11 12  2  0
 12 13  1  0
 13 14  1  0
 14 15  1  0
 15 16  1  0
 15 17  1  0
 17 18  1  0
 18 19  1  0
 19 20  1  0
 19 21  1  0
 19 22  1  0
 12 23  1  0
 23 24  2  0
 23 25  1  0
 25 26  1  0
 25 27  2  0
 24  9  1  0
  1 28  1  0
  1 29  1  0
  1 30  1  0
  2 31  1  0
  2 32  1  0
  4 33  1  0
  4 34  1  0
  5 35  1  0
  5 36  1  0
  5 37  1  0
  8 38  1  0
 10 39  1  0
 11 40  1  0
 14 41  1  0
 14 42  1  0
 15 43  1  0
 16 44  1  0
 17 45  1  0
 17 46  1  0
 18 47  1  0
 20 48  1  0
 20 49  1  0
 20 50  1  0
 21 51  1  0
 21 52  1  0
 21 53  1  0
 22 54  1  0
 22 55  1  0
 22 56  1  0
 24 57  1  0
 26 58  1  0
 26 59  1  0
 26 60  1  0
M  END
$$$$
