@<TRIPOS>MOLECULE
*****
 76 80 0 0 0
SMALL
GASTEIGER

@<TRIPOS>ATOM
      1 C           7.2946    4.7232    2.8143 C.3     1  UNL1       -0.0306
      2 C           8.1399    3.6513    2.1581 C.3     1  UNL1        0.0885
      3 O           7.2762    2.7227    1.5705 O.3     1  UNL1       -0.4744
      4 C           7.7297    1.6179    0.8895 C.ar    1  UNL1        0.2555
      5 N           9.0027    1.2882    0.6985 N.ar    1  UNL1       -0.1317
      6 N           9.1048    0.1842    0.0138 N.ar    1  UNL1       -0.2692
      7 C          10.3345   -0.4588   -0.3720 C.3     1  UNL1        0.0304
      8 C           7.8333   -0.2346   -0.2601 C.ar    1  UNL1        0.0503
      9 C           6.9295    0.6465    0.2773 C.ar    1  UNL1        0.1152
     10 N           5.5258    0.6206    0.2467 N.pl3   1  UNL1       -0.2782
     11 C           4.8003   -0.4058   -0.4002 C.ar    1  UNL1        0.2202
     12 N           5.3421   -1.4444   -1.0447 N.ar    1  UNL1       -0.2224
     13 C           4.6527   -2.4188   -1.6580 C.ar    1  UNL1        0.0361
     14 C           3.2751   -2.3758   -1.6411 C.ar    1  UNL1       -0.0062
     15 C           2.4606   -3.4387   -2.3103 C.3     1  UNL1       -0.0362
     16 C           2.6850   -1.3177   -0.9849 C.ar    1  UNL1        0.0809
     17 C           1.2346   -1.1917   -0.9156 C.ar    1  UNL1        0.0258
     18 C           0.2872   -1.1922   -1.9152 C.ar    1  UNL1        0.0120
     19 N          -0.9390   -1.0499   -1.4127 N.ar    1  UNL1       -0.3586
     20 C          -0.8267   -0.9528   -0.0761 C.ar    1  UNL1        0.0686
     21 C          -1.7959   -0.7933    0.9206 C.ar    1  UNL1        0.0576
     22 N          -3.1623   -0.7069    0.5619 N.am    1  UNL1       -0.2825
     23 C          -3.9666   -1.8694    0.4676 C.2     1  UNL1        0.2342
     24 O          -3.4022   -2.9601    0.7187 O.2     1  UNL1       -0.2738
     25 C          -5.3757   -1.8505    0.1037 C.3     1  UNL1        0.0848
     26 C          -6.1159   -2.5790    1.2395 C.3     1  UNL1       -0.0409
     27 N          -5.9636   -0.6295   -0.2372 N.3     1  UNL1       -0.2890
     28 C          -5.5269    0.1024   -1.3427 C.3     1  UNL1        0.0124
     29 C          -5.5887    1.6044   -1.1787 C.3     1  UNL1        0.0117
     30 N          -6.7426    2.0544   -0.4774 N.3     1  UNL1       -0.3002
     31 C          -7.8202    2.3160   -1.3950 C.3     1  UNL1       -0.0124
     32 C          -7.1064    1.3229    0.6824 C.3     1  UNL1        0.0201
     33 C          -8.5527    1.6689    1.0517 C.3     1  UNL1       -0.0483
     34 C          -7.0805   -0.1757    0.4761 C.3     1  UNL1        0.0150
     35 C          -1.3667   -0.7259    2.2254 C.ar    1  UNL1       -0.0384
     36 C          -0.0410   -0.8079    2.5838 C.ar    1  UNL1       -0.0593
     37 C           0.8946   -0.9646    1.5885 C.ar    1  UNL1       -0.0518
     38 C           0.5075   -1.0366    0.2700 C.ar    1  UNL1        0.0107
     39 N           3.4355   -0.3781   -0.3928 N.ar    1  UNL1       -0.2139
     40 H           7.9041    5.6483    2.9009 H       1  UNL1        0.0262
     41 H           6.4073    4.9488    2.1788 H       1  UNL1        0.0262
     42 H           6.9375    4.4413    3.8161 H       1  UNL1        0.0262
     43 H           8.8002    3.1666    2.9065 H       1  UNL1        0.0694
     44 H           8.7697    4.1375    1.3783 H       1  UNL1        0.0694
     45 H          10.5539   -0.3161   -1.4483 H       1  UNL1        0.0473
     46 H          11.1817   -0.0103    0.1814 H       1  UNL1        0.0473
     47 H          10.2981   -1.5601   -0.2057 H       1  UNL1        0.0473
     48 H           7.6395   -1.1279   -0.8173 H       1  UNL1        0.0846
     49 H           4.9995    1.3864    0.7181 H       1  UNL1        0.1552
     50 H           5.1745   -3.2391   -2.1667 H       1  UNL1        0.0834
     51 H           2.8828   -4.4235   -2.0211 H       1  UNL1        0.0279
     52 H           2.5380   -3.3824   -3.4169 H       1  UNL1        0.0279
     53 H           1.4217   -3.4196   -1.9486 H       1  UNL1        0.0279
     54 H           0.5260   -1.2953   -2.9598 H       1  UNL1        0.0814
     55 H          -1.8681   -1.0112   -1.9006 H       1  UNL1        0.1654
     56 H          -3.5431    0.2598    0.3742 H       1  UNL1        0.1549
     57 H          -5.5488   -2.5474   -0.7780 H       1  UNL1        0.0556
     58 H          -5.9630   -2.0968    2.2060 H       1  UNL1        0.0249
     59 H          -7.1494   -2.8122    0.9729 H       1  UNL1        0.0249
     60 H          -5.5815   -3.5729    1.3116 H       1  UNL1        0.0249
     61 H          -6.2477   -0.1262   -2.1901 H       1  UNL1        0.0439
     62 H          -4.5552   -0.1795   -1.7357 H       1  UNL1        0.0439
     63 H          -4.6985    2.0448   -0.7288 H       1  UNL1        0.0439
     64 H          -5.6463    2.0370   -2.2212 H       1  UNL1        0.0439
     65 H          -8.4813    1.4637   -1.5773 H       1  UNL1        0.0391
     66 H          -8.4175    3.1576   -0.9728 H       1  UNL1        0.0391
     67 H          -7.3899    2.6261   -2.3683 H       1  UNL1        0.0391
     68 H          -6.5061    1.5586    1.5795 H       1  UNL1        0.0472
     69 H          -8.7740    1.2724    2.0820 H       1  UNL1        0.0245
     70 H          -8.7136    2.7591    1.1026 H       1  UNL1        0.0245
     71 H          -9.2400    1.1402    0.3710 H       1  UNL1        0.0245
     72 H          -7.2153   -0.6933    1.4254 H       1  UNL1        0.0442
     73 H          -8.0053   -0.4050   -0.1325 H       1  UNL1        0.0442
     74 H          -2.1108   -0.6032    2.9967 H       1  UNL1        0.0637
     75 H           0.2922   -0.7537    3.6156 H       1  UNL1        0.0618
     76 H           1.9560   -1.0376    1.7853 H       1  UNL1        0.0624
@<TRIPOS>BOND
     1     1     2    1
     2     2     3    1
     3     3     4    1
     4     4     5   ar
     5     5     6   ar
     6     6     7    1
     7     6     8   ar
     8     8     9   ar
     9     9    10    1
    10    10    11    1
    11    11    12   ar
    12    12    13   ar
    13    13    14   ar
    14    14    15    1
    15    14    16   ar
    16    16    17    1
    17    17    18   ar
    18    18    19   ar
    19    19    20   ar
    20    20    21   ar
    21    21    22    1
    22    22    23   am
    23    23    24    2
    24    23    25    1
    25    25    26    1
    26    25    27    1
    27    27    28    1
    28    28    29    1
    29    29    30    1
    30    30    31    1
    31    30    32    1
    32    32    33    1
    33    32    34    1
    34    21    35   ar
    35    35    36   ar
    36    36    37   ar
    37    37    38   ar
    38    16    39   ar
    39     9     4   ar
    40    39    11   ar
    41    38    17   ar
    42    38    20   ar
    43    34    27    1
    44     1    40    1
    45     1    41    1
    46     1    42    1
    47     2    43    1
    48     2    44    1
    49     7    45    1
    50     7    46    1
    51     7    47    1
    52     8    48    1
    53    10    49    1
    54    13    50    1
    55    15    51    1
    56    15    52    1
    57    15    53    1
    58    18    54    1
    59    19    55    1
    60    22    56    1
    61    25    57    1
    62    26    58    1
    63    26    59    1
    64    26    60    1
    65    28    61    1
    66    28    62    1
    67    29    63    1
    68    29    64    1
    69    31    65    1
    70    31    66    1
    71    31    67    1
    72    32    68    1
    73    33    69    1
    74    33    70    1
    75    33    71    1
    76    34    72    1
    77    34    73    1
    78    35    74    1
    79    36    75    1
    80    37    76    1
