
     RDKit          3D

 76 80  0  0  0  0  0  0  0  0999 V2000
    7.2946    4.7232    2.8143 C   0  0  0  0  0  0  0  0  0  0  0  0
    8.1399    3.6513    2.1581 C   0  0  0  0  0  0  0  0  0  0  0  0
    7.2762    2.7227    1.5705 O   0  0  0  0  0  0  0  0  0  0  0  0
    7.7297    1.6179    0.8895 C   0  0  0  0  0  0  0  0  0  0  0  0
    9.0027    1.2882    0.6985 N   0  0  0  0  0  0  0  0  0  0  0  0
    9.1048    0.1842    0.0138 N   0  0  0  0  0  0  0  0  0  0  0  0
   10.3345   -0.4588   -0.3720 C   0  0  0  0  0  0  0  0  0  0  0  0
    7.8333   -0.2346   -0.2601 C   0  0  0  0  0  0  0  0  0  0  0  0
    6.9295    0.6465    0.2773 C   0  0  0  0  0  0  0  0  0  0  0  0
    5.5258    0.6206    0.2467 N   0  0  0  0  0  0  0  0  0  0  0  0
    4.8003   -0.4058   -0.4002 C   0  0  0  0  0  0  0  0  0  0  0  0
    5.3421   -1.4444   -1.0447 N   0  0  0  0  0  0  0  0  0  0  0  0
    4.6527   -2.4188   -1.6580 C   0  0  0  0  0  0  0  0  0  0  0  0
    3.2751   -2.3758   -1.6411 C   0  0  0  0  0  0  0  0  0  0  0  0
    2.4606   -3.4387   -2.3103 C   0  0  0  0  0  0  0  0  0  0  0  0
    2.6850   -1.3177   -0.9849 C   0  0  0  0  0  0  0  0  0  0  0  0
    1.2346   -1.1917   -0.9156 C   0  0  0  0  0  0  0  0  0  0  0  0
    0.2872   -1.1922   -1.9152 C   0  0  0  0  0  0  0  0  0  0  0  0
   -0.9390   -1.0499   -1.4127 N   0  0  0  0  0  0  0  0  0  0  0  0
   -0.8267   -0.9528   -0.0761 C   0  0  0  0  0  0  0  0  0  0  0  0
   -1.7959   -0.7933    0.9206 C   0  0  0  0  0  0  0  0  0  0  0  0
   -3.1623   -0.7069    0.5619 N   0  0  0  0  0  0  0  0  0  0  0  0
   -3.9666   -1.8694    0.4676 C   0  0  0  0  0  0  0  0  0  0  0  0
   -3.4022   -2.9601    0.7187 O   0  0  0  0  0  0  0  0  0  0  0  0
   -5.3757   -1.8505    0.1037 C   0  0  1  0  0  0  0  0  0  0  0  0
   -6.1159   -2.5790    1.2395 C   0  0  0  0  0  0  0  0  0  0  0  0
   -5.9636   -0.6295   -0.2372 N   0  0  0  0  0  0  0  0  0  0  0  0
   -5.5269    0.1024   -1.3427 C   0  0  0  0  0  0  0  0  0  0  0  0
   -5.5887    1.6044   -1.1787 C   0  0  0  0  0  0  0  0  0  0  0  0
   -6.7426    2.0544   -0.4774 N   0  0  0  0  0  0  0  0  0  0  0  0
   -7.8202    2.3160   -1.3950 C   0  0  0  0  0  0  0  0  0  0  0  0
   -7.1064    1.3229    0.6824 C   0  0  1  0  0  0  0  0  0  0  0  0
   -8.5527    1.6689    1.0517 C   0  0  0  0  0  0  0  0  0  0  0  0
   -7.0805   -0.1757    0.4761 C   0  0  0  0  0  0  0  0  0  0  0  0
   -1.3667   -0.7259    2.2254 C   0  0  0  0  0  0  0  0  0  0  0  0
   -0.0410   -0.8079    2.5838 C   0  0  0  0  0  0  0  0  0  0  0  0
    0.8946   -0.9646    1.5885 C   0  0  0  0  0  0  0  0  0  0  0  0
    0.5075   -1.0366    0.2700 C   0  0  0  0  0  0  0  0  0  0  0  0
    3.4355   -0.3781   -0.3928 N   0  0  0  0  0  0  0  0  0  0  0  0
    7.9041    5.6483    2.9009 H   0  0  0  0  0  0  0  0  0  0  0  0
    6.4073    4.9488    2.1788 H   0  0  0  0  0  0  0  0  0  0  0  0
    6.9375    4.4413    3.8161 H   0  0  0  0  0  0  0  0  0  0  0  0
    8.8002    3.1666    2.9065 H   0  0  0  0  0  0  0  0  0  0  0  0
    8.7697    4.1375    1.3783 H   0  0  0  0  0  0  0  0  0  0  0  0
   10.5539   -0.3161   -1.4483 H   0  0  0  0  0  0  0  0  0  0  0  0
   11.1817   -0.0103    0.1814 H   0  0  0  0  0  0  0  0  0  0  0  0
   10.2981   -1.5601   -0.2057 H   0  0  0  0  0  0  0  0  0  0  0  0
    7.6395   -1.1279   -0.8173 H   0  0  0  0  0  0  0  0  0  0  0  0
    4.9995    1.3864    0.7181 H   0  0  0  0  0  0  0  0  0  0  0  0
    5.1745   -3.2391   -2.1667 H   0  0  0  0  0  0  0  0  0  0  0  0
    2.8828   -4.4235   -2.0211 H   0  0  0  0  0  0  0  0  0  0  0  0
    2.5380   -3.3824   -3.4169 H   0  0  0  0  0  0  0  0  0  0  0  0
    1.4217   -3.4196   -1.9486 H   0  0  0  0  0  0  0  0  0  0  0  0
    0.5260   -1.2953   -2.9598 H   0  0  0  0  0  0  0  0  0  0  0  0
   -1.8681   -1.0112   -1.9006 H   0  0  0  0  0  0  0  0  0  0  0  0
   -3.5431    0.2598    0.3742 H   0  0  0  0  0  0  0  0  0  0  0  0
   -5.5488   -2.5474   -0.7780 H   0  0  0  0  0  0  0  0  0  0  0  0
   -5.9630   -2.0968    2.2060 H   0  0  0  0  0  0  0  0  0  0  0  0
   -7.1494   -2.8122    0.9729 H   0  0  0  0  0  0  0  0  0  0  0  0
   -5.5815   -3.5729    1.3116 H   0  0  0  0  0  0  0  0  0  0  0  0
   -6.2477   -0.1262   -2.1901 H   0  0  0  0  0  0  0  0  0  0  0  0
   -4.5552   -0.1795   -1.7357 H   0  0  0  0  0  0  0  0  0  0  0  0
   -4.6985    2.0448   -0.7288 H   0  0  0  0  0  0  0  0  0  0  0  0
   -5.6463    2.0370   -2.2212 H   0  0  0  0  0  0  0  0  0  0  0  0
   -8.4813    1.4637   -1.5773 H   0  0  0  0  0  0  0  0  0  0  0  0
   -8.4175    3.1576   -0.9728 H   0  0  0  0  0  0  0  0  0  0  0  0
   -7.3899    2.6261   -2.3683 H   0  0  0  0  0  0  0  0  0  0  0  0
   -6.5061    1.5586    1.5795 H   0  0  0  0  0  0  0  0  0  0  0  0
   -8.7740    1.2724    2.0820 H   0  0  0  0  0  0  0  0  0  0  0  0
   -8.7136    2.7591    1.1026 H   0  0  0  0  0  0  0  0  0  0  0  0
   -9.2400    1.1402    0.3710 H   0  0  0  0  0  0  0  0  0  0  0  0
   -7.2153   -0.6933    1.4254 H   0  0  0  0  0  0  0  0  0  0  0  0
   -8.0053   -0.4050   -0.1325 H   0  0  0  0  0  0  0  0  0  0  0  0
   -2.1108   -0.6032    2.9967 H   0  0  0  0  0  0  0  0  0  0  0  0
    0.2922   -0.7537    3.6156 H   0  0  0  0  0  0  0  0  0  0  0  0
    1.9560   -1.0376    1.7853 H   0  0  0  0  0  0  0  0  0  0  0  0
  1  2  1  0
  2  3  1  0
  3  4  1  0
  4  5  2  0
  5  6  1  0
  6  7  1  0
  6  8  1  0
  8  9  2  0
  9 10  1  0
 10 11  1  0
 11 12  2  0
 12 13  1  0
 13 14  2  0
 14 15  1  0
 14 16  1  0
 16 17  1  0
 17 18  2  0
 18 19  1  0
 19 20  1  0
 20 21  2  0
 21 22  1  0
 22 23  1  0
 23 24  2  0
 23 25  1  0
 25 26  1  0
 25 27  1  0
 27 28  1  0
 28 29  1  0
 29 30  1  0
 30 31  1  0
 30 32  1  0
 32 33  1  0
 32 34  1  0
 21 35  1  0
 35 36  2  0
 36 37  1  0
 37 38  2  0
 16 39  2  0
  9  4  1  0
 39 11  1  0
 38 17  1  0
 38 20  1  0
 34 27  1  0
  1 40  1  0
  1 41  1  0
  1 42  1  0
  2 43  1  0
  2 44  1  0
  7 45  1  0
  7 46  1  0
  7 47  1  0
  8 48  1  0
 10 49  1  0
 13 50  1  0
 15 51  1  0
 15 52  1  0
 15 53  1  0
 18 54  1  0
 19 55  1  0
 22 56  1  0
 25 57  1  6
 26 58  1  0
 26 59  1  0
 26 60  1  0
 28 61  1  0
 28 62  1  0
 29 63  1  0
 29 64  1  0
 31 65  1  0
 31 66  1  0
 31 67  1  0
 32 68  1  1
 33 69  1  0
 33 70  1  0
 33 71  1  0
 34 72  1  0
 34 73  1  0
 35 74  1  0
 36 75  1  0
 37 76  1  0
M  END
$$$$
