@<TRIPOS>MOLECULE
*****
 47 48 0 0 0
SMALL
GASTEIGER

@<TRIPOS>ATOM
      1 C          -3.3678    3.1832    0.4643 C.3     1  UNL1       -0.0615
      2 C          -3.3303    2.2411   -0.6814 C.3     1  UNL1       -0.0323
      3 C          -4.7526    1.8558   -1.0597 C.3     1  UNL1       -0.0615
      4 C          -2.4265    1.0714   -0.5834 C.3     1  UNL1        0.0234
      5 N          -2.6219    0.1504    0.4596 N.3     1  UNL1       -0.1675
      6 C          -3.0626   -1.1471    0.0961 C.3     1  UNL1        0.0988
      7 C          -2.2172   -1.8639   -0.8631 C.2     1  UNL1        0.2512
      8 O          -1.1695   -1.3615   -1.3321 O.2     1  UNL1       -0.2723
      9 N          -2.5502   -3.1720   -1.3081 N.am    1  UNL1       -0.1964
     10 O          -1.7929   -3.8610   -2.1914 O.3     1  UNL1       -0.2952
     11 S          -1.5806    0.2770    1.7791 S.O2    1  UNL1        0.0613
     12 O          -1.8993   -0.7478    2.8618 O.2     1  UNL1       -0.1528
     13 O          -1.7465    1.6070    2.4447 O.2     1  UNL1       -0.1528
     14 C           0.1038    0.0187    1.3199 C.ar    1  UNL1        0.1055
     15 C           0.6863   -1.2268    1.3250 C.ar    1  UNL1       -0.0348
     16 C           2.0181   -1.4075    0.9610 C.ar    1  UNL1       -0.0522
     17 C           2.7679   -0.3094    0.5873 C.ar    1  UNL1       -0.0178
     18 C           4.1793   -0.4264    0.1919 C.ar    1  UNL1       -0.0179
     19 C           4.6424   -1.5681   -0.4439 C.ar    1  UNL1       -0.0540
     20 C           5.9633   -1.6942   -0.8207 C.ar    1  UNL1       -0.0612
     21 C           6.8380   -0.6649   -0.5592 C.ar    1  UNL1       -0.0617
     22 C           6.4169    0.4881    0.0717 C.ar    1  UNL1       -0.0612
     23 C           5.0894    0.5787    0.4337 C.ar    1  UNL1       -0.0540
     24 C           2.1720    0.9138    0.5891 C.ar    1  UNL1       -0.0522
     25 C           0.8346    1.1195    0.9511 C.ar    1  UNL1       -0.0348
     26 H          -3.9540    4.1128    0.1626 H       1  UNL1        0.0233
     27 H          -3.9065    2.8041    1.3538 H       1  UNL1        0.0233
     28 H          -2.3672    3.5870    0.7190 H       1  UNL1        0.0233
     29 H          -2.9712    2.8409   -1.5741 H       1  UNL1        0.0308
     30 H          -5.3167    1.4256   -0.2293 H       1  UNL1        0.0233
     31 H          -4.7441    1.2124   -1.9712 H       1  UNL1        0.0233
     32 H          -5.2575    2.8000   -1.3568 H       1  UNL1        0.0233
     33 H          -2.4750    0.5454   -1.5719 H       1  UNL1        0.0447
     34 H          -1.3809    1.4727   -0.5153 H       1  UNL1        0.0447
     35 H          -4.0738   -1.0299   -0.3957 H       1  UNL1        0.0540
     36 H          -3.1712   -1.7821    1.0141 H       1  UNL1        0.0540
     37 H          -3.4136   -3.6530   -0.9559 H       1  UNL1        0.1822
     38 H          -1.9140   -4.8390   -2.0720 H       1  UNL1        0.2414
     39 H           0.1153   -2.0955    1.6144 H       1  UNL1        0.0637
     40 H           2.4552   -2.3956    0.9723 H       1  UNL1        0.0624
     41 H           3.9401   -2.3555   -0.6360 H       1  UNL1        0.0624
     42 H           6.3293   -2.6006   -1.3251 H       1  UNL1        0.0618
     43 H           7.8861   -0.7899   -0.8696 H       1  UNL1        0.0618
     44 H           7.1340    1.2816    0.2630 H       1  UNL1        0.0618
     45 H           4.7424    1.4703    0.9269 H       1  UNL1        0.0624
     46 H           2.7385    1.8120    0.2970 H       1  UNL1        0.0624
     47 H           0.4105    2.1222    0.9349 H       1  UNL1        0.0637
@<TRIPOS>BOND
     1     1     2    1
     2     2     3    1
     3     2     4    1
     4     4     5    1
     5     5     6    1
     6     6     7    1
     7     7     8    2
     8     7     9   am
     9     9    10    1
    10     5    11    1
    11    11    12    2
    12    11    13    2
    13    11    14    1
    14    14    15   ar
    15    15    16   ar
    16    16    17   ar
    17    17    18    1
    18    18    19   ar
    19    19    20   ar
    20    20    21   ar
    21    21    22   ar
    22    22    23   ar
    23    17    24   ar
    24    24    25   ar
    25    25    14   ar
    26    23    18   ar
    27     1    26    1
    28     1    27    1
    29     1    28    1
    30     2    29    1
    31     3    30    1
    32     3    31    1
    33     3    32    1
    34     4    33    1
    35     4    34    1
    36     6    35    1
    37     6    36    1
    38     9    37    1
    39    10    38    1
    40    15    39    1
    41    16    40    1
    42    19    41    1
    43    20    42    1
    44    21    43    1
    45    22    44    1
    46    23    45    1
    47    24    46    1
    48    25    47    1
