
     RDKit          3D

 47 48  0  0  0  0  0  0  0  0999 V2000
   -3.3678    3.1832    0.4643 C   0  0  0  0  0  0  0  0  0  0  0  0
   -3.3303    2.2411   -0.6814 C   0  0  0  0  0  0  0  0  0  0  0  0
   -4.7526    1.8558   -1.0597 C   0  0  0  0  0  0  0  0  0  0  0  0
   -2.4265    1.0714   -0.5834 C   0  0  0  0  0  0  0  0  0  0  0  0
   -2.6219    0.1504    0.4596 N   0  0  0  0  0  0  0  0  0  0  0  0
   -3.0626   -1.1471    0.0961 C   0  0  0  0  0  0  0  0  0  0  0  0
   -2.2172   -1.8639   -0.8631 C   0  0  0  0  0  0  0  0  0  0  0  0
   -1.1695   -1.3615   -1.3321 O   0  0  0  0  0  0  0  0  0  0  0  0
   -2.5502   -3.1720   -1.3081 N   0  0  0  0  0  0  0  0  0  0  0  0
   -1.7929   -3.8610   -2.1914 O   0  0  0  0  0  0  0  0  0  0  0  0
   -1.5806    0.2770    1.7791 S   0  0  0  0  0  6  0  0  0  0  0  0
   -1.8993   -0.7478    2.8618 O   0  0  0  0  0  0  0  0  0  0  0  0
   -1.7465    1.6070    2.4447 O   0  0  0  0  0  0  0  0  0  0  0  0
    0.1038    0.0187    1.3199 C   0  0  0  0  0  0  0  0  0  0  0  0
    0.6863   -1.2268    1.3250 C   0  0  0  0  0  0  0  0  0  0  0  0
    2.0181   -1.4075    0.9610 C   0  0  0  0  0  0  0  0  0  0  0  0
    2.7679   -0.3094    0.5873 C   0  0  0  0  0  0  0  0  0  0  0  0
    4.1793   -0.4264    0.1919 C   0  0  0  0  0  0  0  0  0  0  0  0
    4.6424   -1.5681   -0.4439 C   0  0  0  0  0  0  0  0  0  0  0  0
    5.9633   -1.6942   -0.8207 C   0  0  0  0  0  0  0  0  0  0  0  0
    6.8380   -0.6649   -0.5592 C   0  0  0  0  0  0  0  0  0  0  0  0
    6.4169    0.4881    0.0717 C   0  0  0  0  0  0  0  0  0  0  0  0
    5.0894    0.5787    0.4337 C   0  0  0  0  0  0  0  0  0  0  0  0
    2.1720    0.9138    0.5891 C   0  0  0  0  0  0  0  0  0  0  0  0
    0.8346    1.1195    0.9511 C   0  0  0  0  0  0  0  0  0  0  0  0
   -3.9540    4.1128    0.1626 H   0  0  0  0  0  0  0  0  0  0  0  0
   -3.9065    2.8041    1.3538 H   0  0  0  0  0  0  0  0  0  0  0  0
   -2.3672    3.5870    0.7190 H   0  0  0  0  0  0  0  0  0  0  0  0
   -2.9712    2.8409   -1.5741 H   0  0  0  0  0  0  0  0  0  0  0  0
   -5.3167    1.4256   -0.2293 H   0  0  0  0  0  0  0  0  0  0  0  0
   -4.7441    1.2124   -1.9712 H   0  0  0  0  0  0  0  0  0  0  0  0
   -5.2575    2.8000   -1.3568 H   0  0  0  0  0  0  0  0  0  0  0  0
   -2.4750    0.5454   -1.5719 H   0  0  0  0  0  0  0  0  0  0  0  0
   -1.3809    1.4727   -0.5153 H   0  0  0  0  0  0  0  0  0  0  0  0
   -4.0738   -1.0299   -0.3957 H   0  0  0  0  0  0  0  0  0  0  0  0
   -3.1712   -1.7821    1.0141 H   0  0  0  0  0  0  0  0  0  0  0  0
   -3.4136   -3.6530   -0.9559 H   0  0  0  0  0  0  0  0  0  0  0  0
   -1.9140   -4.8390   -2.0720 H   0  0  0  0  0  0  0  0  0  0  0  0
    0.1153   -2.0955    1.6144 H   0  0  0  0  0  0  0  0  0  0  0  0
    2.4552   -2.3956    0.9723 H   0  0  0  0  0  0  0  0  0  0  0  0
    3.9401   -2.3555   -0.6360 H   0  0  0  0  0  0  0  0  0  0  0  0
    6.3293   -2.6006   -1.3251 H   0  0  0  0  0  0  0  0  0  0  0  0
    7.8861   -0.7899   -0.8696 H   0  0  0  0  0  0  0  0  0  0  0  0
    7.1340    1.2816    0.2630 H   0  0  0  0  0  0  0  0  0  0  0  0
    4.7424    1.4703    0.9269 H   0  0  0  0  0  0  0  0  0  0  0  0
    2.7385    1.8120    0.2970 H   0  0  0  0  0  0  0  0  0  0  0  0
    0.4105    2.1222    0.9349 H   0  0  0  0  0  0  0  0  0  0  0  0
  1  2  1  0
  2  3  1  0
  2  4  1  0
  4  5  1  0
  5  6  1  0
  6  7  1  0
  7  8  2  0
  7  9  1  0
  9 10  1  0
  5 11  1  0
 11 12  2  0
 11 13  2  0
 11 14  1  0
 14 15  2  0
 15 16  1  0
 16 17  2  0
 17 18  1  0
 18 19  2  0
 19 20  1  0
 20 21  2  0
 21 22  1  0
 22 23  2  0
 17 24  1  0
 24 25  2  0
 25 14  1  0
 23 18  1  0
  1 26  1  0
  1 27  1  0
  1 28  1  0
  2 29  1  0
  3 30  1  0
  3 31  1  0
  3 32  1  0
  4 33  1  0
  4 34  1  0
  6 35  1  0
  6 36  1  0
  9 37  1  0
 10 38  1  0
 15 39  1  0
 16 40  1  0
 19 41  1  0
 20 42  1  0
 21 43  1  0
 22 44  1  0
 23 45  1  0
 24 46  1  0
 25 47  1  0
M  END
$$$$
