@<TRIPOS>MOLECULE
*****
 106 110 0 0 0
SMALL
GASTEIGER

@<TRIPOS>ATOM
      1 N           7.3541    3.6374   -1.6138 N.3     1  UNL1       -0.3271
      2 C           6.3182    4.4255   -1.0077 C.3     1  UNL1        0.0077
      3 C           5.0060    3.6959   -1.2080 C.3     1  UNL1       -0.0218
      4 C           5.1721    2.2802   -0.7219 C.3     1  UNL1        0.0161
      5 N           5.5930    2.3489    0.6817 N.am    1  UNL1       -0.3014
      6 C           4.8549    1.7503    1.7173 C.2     1  UNL1        0.2163
      7 O           5.3217    1.8610    2.9030 O.2     1  UNL1       -0.2756
      8 C           3.6026    1.0190    1.5176 C.3     1  UNL1        0.0355
      9 C           3.8280   -0.4571    1.2135 C.3     1  UNL1        0.0477
     10 C           4.5518   -1.0609    2.3464 C.3     1  UNL1       -0.0161
     11 C           4.8839   -2.4824    2.2881 C.ar    1  UNL1       -0.0466
     12 C           4.1764   -3.4395    2.9725 C.ar    1  UNL1       -0.0586
     13 C           4.4589   -4.7991    2.9021 C.ar    1  UNL1       -0.0615
     14 C           5.4815   -5.2567    2.1287 C.ar    1  UNL1       -0.0617
     15 C           6.2138   -4.3071    1.4267 C.ar    1  UNL1       -0.0615
     16 C           5.9326   -2.9685    1.4980 C.ar    1  UNL1       -0.0586
     17 C           2.5272   -1.1361    0.9454 C.2     1  UNL1        0.2175
     18 O           2.1841   -2.1347    1.5924 O.2     1  UNL1       -0.2755
     19 N           1.6484   -0.6536   -0.0581 N.am    1  UNL1       -0.3034
     20 C           0.3839   -1.1609   -0.4830 C.3     1  UNL1        0.1047
     21 C           0.0641   -2.5117    0.1243 C.3     1  UNL1        0.0160
     22 C           1.0367   -3.5323   -0.3106 C.ar    1  UNL1        0.0375
     23 C           0.9969   -4.8476    0.1160 C.ar    1  UNL1        0.0485
     24 N           2.0149   -5.5032   -0.4631 N.ar    1  UNL1       -0.2440
     25 C           2.6635   -4.6072   -1.2276 C.ar    1  UNL1        0.0935
     26 N           2.0762   -3.4026   -1.1429 N.ar    1  UNL1       -0.3481
     27 C          -0.7154   -0.2087   -0.3821 C.2     1  UNL1        0.2340
     28 O          -0.4938    0.9452    0.0692 O.2     1  UNL1       -0.2738
     29 N          -2.0143   -0.5889   -0.7868 N.am    1  UNL1       -0.3084
     30 C          -3.1756    0.3038   -0.7021 C.3     1  UNL1        0.0517
     31 C          -3.4774    1.0282   -1.9417 C.3     1  UNL1       -0.0292
     32 C          -3.7826    0.3992   -3.2121 C.3     1  UNL1       -0.0393
     33 C          -2.7557   -0.4990   -3.8419 C.3     1  UNL1       -0.0502
     34 C          -3.2114   -0.8798   -5.2508 C.3     1  UNL1       -0.0528
     35 C          -4.5768   -1.5299   -5.2070 C.3     1  UNL1       -0.0530
     36 C          -5.5310   -0.4570   -4.7389 C.3     1  UNL1       -0.0528
     37 C          -5.1716   -0.1863   -3.2646 C.3     1  UNL1       -0.0502
     38 C          -4.2787   -0.3338    0.0639 C.3     1  UNL1        0.0993
     39 O          -3.6474   -0.6951    1.3239 O.3     1  UNL1       -0.3874
     40 C          -5.3310    0.6664    0.5758 C.3     1  UNL1        0.0831
     41 O          -6.1053    1.1860   -0.4343 O.3     1  UNL1       -0.3892
     42 C          -6.2922   -0.1413    1.4579 C.3     1  UNL1       -0.0190
     43 C          -7.3672    0.7596    2.0292 C.3     1  UNL1       -0.0080
     44 C          -6.7504    1.8139    2.8675 C.ar    1  UNL1        0.0414
     45 C          -6.5570    1.5741    4.1931 C.ar    1  UNL1       -0.0404
     46 C          -5.9801    2.5479    4.9734 C.ar    1  UNL1       -0.0586
     47 C          -5.6112    3.7310    4.4197 C.ar    1  UNL1       -0.0436
     48 C          -5.8280    3.9271    3.0705 C.ar    1  UNL1        0.0279
     49 N          -6.3951    2.9707    2.3016 N.ar    1  UNL1       -0.2599
     50 C           6.8266    3.0768    0.9406 C.3     1  UNL1        0.0161
     51 C           6.5769    4.5182    0.5023 C.3     1  UNL1       -0.0218
     52 H           7.3217    3.7370   -2.6600 H       1  UNL1        0.1185
     53 H           8.2964    3.9315   -1.2863 H       1  UNL1        0.1185
     54 H           6.2829    5.4256   -1.4840 H       1  UNL1        0.0459
     55 H           4.2342    4.1701   -0.5434 H       1  UNL1        0.0295
     56 H           4.7171    3.7422   -2.2719 H       1  UNL1        0.0295
     57 H           6.0522    1.8300   -1.2617 H       1  UNL1        0.0465
     58 H           4.2828    1.6530   -0.8683 H       1  UNL1        0.0465
     59 H           2.9898    1.0652    2.4386 H       1  UNL1        0.0366
     60 H           3.0124    1.5072    0.7169 H       1  UNL1        0.0366
     61 H           4.4350   -0.4557    0.2678 H       1  UNL1        0.0402
     62 H           5.5209   -0.5268    2.5728 H       1  UNL1        0.0321
     63 H           3.9786   -0.9232    3.3192 H       1  UNL1        0.0321
     64 H           3.3686   -3.1860    3.6352 H       1  UNL1        0.0620
     65 H           3.8721   -5.5445    3.4617 H       1  UNL1        0.0618
     66 H           5.7047   -6.3111    2.0706 H       1  UNL1        0.0618
     67 H           7.0314   -4.7029    0.8120 H       1  UNL1        0.0618
     68 H           6.5254   -2.2768    0.9393 H       1  UNL1        0.0620
     69 H           2.0474    0.2365   -0.5453 H       1  UNL1        0.1495
     70 H           0.5714   -1.4871   -1.5848 H       1  UNL1        0.0598
     71 H          -0.0227   -2.3876    1.2131 H       1  UNL1        0.0351
     72 H          -0.9308   -2.8809   -0.2300 H       1  UNL1        0.0351
     73 H           0.2528   -5.2683    0.8101 H       1  UNL1        0.0848
     74 H           3.5530   -4.7986   -1.8482 H       1  UNL1        0.1027
     75 H           2.3357   -2.5097   -1.6104 H       1  UNL1        0.1665
     76 H          -2.1547   -1.5437   -1.1362 H       1  UNL1        0.1491
     77 H          -2.7831    1.1177    0.0132 H       1  UNL1        0.0525
     78 H          -4.2746    1.7939   -1.6645 H       1  UNL1        0.0287
     79 H          -2.5802    1.7477   -2.0887 H       1  UNL1        0.0287
     80 H          -3.8581    1.2628   -3.9868 H       1  UNL1        0.0301
     81 H          -1.8329    0.0935   -3.9888 H       1  UNL1        0.0268
     82 H          -2.5729   -1.4471   -3.3501 H       1  UNL1        0.0268
     83 H          -2.5009   -1.6338   -5.6331 H       1  UNL1        0.0265
     84 H          -3.2320   -0.0233   -5.9145 H       1  UNL1        0.0265
     85 H          -4.8493   -1.8217   -6.2240 H       1  UNL1        0.0265
     86 H          -4.6139   -2.3603   -4.4723 H       1  UNL1        0.0265
     87 H          -6.5862   -0.7046   -4.8640 H       1  UNL1        0.0265
     88 H          -5.2386    0.4748   -5.2998 H       1  UNL1        0.0265
     89 H          -5.3274   -1.0795   -2.6701 H       1  UNL1        0.0268
     90 H          -5.8789    0.6574   -3.0046 H       1  UNL1        0.0268
     91 H          -4.8031   -1.1624   -0.3674 H       1  UNL1        0.0638
     92 H          -3.7274   -1.6520    1.4654 H       1  UNL1        0.2100
     93 H          -4.8561    1.4924    1.1290 H       1  UNL1        0.0620
     94 H          -6.2654    2.1451   -0.3737 H       1  UNL1        0.2099
     95 H          -6.7767   -0.8745    0.7814 H       1  UNL1        0.0294
     96 H          -5.7759   -0.6375    2.2800 H       1  UNL1        0.0294
     97 H          -8.0155    0.1411    2.6632 H       1  UNL1        0.0329
     98 H          -7.9982    1.2146    1.2449 H       1  UNL1        0.0329
     99 H          -6.8522    0.6211    4.6500 H       1  UNL1        0.0635
    100 H          -5.8179    2.3702    6.0372 H       1  UNL1        0.0619
    101 H          -5.1590    4.5153    4.9918 H       1  UNL1        0.0633
    102 H          -5.5508    4.8536    2.5830 H       1  UNL1        0.0829
    103 H           7.1066    3.0301    2.0134 H       1  UNL1        0.0465
    104 H           7.6167    2.6763    0.2737 H       1  UNL1        0.0465
    105 H           7.4108    5.1830    0.7292 H       1  UNL1        0.0295
    106 H           5.6153    4.8251    0.9568 H       1  UNL1        0.0295
@<TRIPOS>BOND
     1     1     2    1
     2     2     3    1
     3     3     4    1
     4     4     5    1
     5     5     6   am
     6     6     7    2
     7     6     8    1
     8     8     9    1
     9     9    10    1
    10    10    11    1
    11    11    12   ar
    12    12    13   ar
    13    13    14   ar
    14    14    15   ar
    15    15    16   ar
    16     9    17    1
    17    17    18    2
    18    17    19   am
    19    19    20    1
    20    20    21    1
    21    21    22    1
    22    22    23   ar
    23    23    24   ar
    24    24    25   ar
    25    25    26   ar
    26    20    27    1
    27    27    28    2
    28    27    29   am
    29    29    30    1
    30    30    31    1
    31    31    32    1
    32    32    33    1
    33    33    34    1
    34    34    35    1
    35    35    36    1
    36    36    37    1
    37    30    38    1
    38    38    39    1
    39    38    40    1
    40    40    41    1
    41    40    42    1
    42    42    43    1
    43    43    44    1
    44    44    45   ar
    45    45    46   ar
    46    46    47   ar
    47    47    48   ar
    48    48    49   ar
    49     5    50    1
    50    50    51    1
    51    51     2    1
    52    16    11   ar
    53    26    22   ar
    54    37    32    1
    55    49    44   ar
    56     1    52    1
    57     1    53    1
    58     2    54    1
    59     3    55    1
    60     3    56    1
    61     4    57    1
    62     4    58    1
    63     8    59    1
    64     8    60    1
    65     9    61    1
    66    10    62    1
    67    10    63    1
    68    12    64    1
    69    13    65    1
    70    14    66    1
    71    15    67    1
    72    16    68    1
    73    19    69    1
    74    20    70    1
    75    21    71    1
    76    21    72    1
    77    23    73    1
    78    25    74    1
    79    26    75    1
    80    29    76    1
    81    30    77    1
    82    31    78    1
    83    31    79    1
    84    32    80    1
    85    33    81    1
    86    33    82    1
    87    34    83    1
    88    34    84    1
    89    35    85    1
    90    35    86    1
    91    36    87    1
    92    36    88    1
    93    37    89    1
    94    37    90    1
    95    38    91    1
    96    39    92    1
    97    40    93    1
    98    41    94    1
    99    42    95    1
   100    42    96    1
   101    43    97    1
   102    43    98    1
   103    45    99    1
   104    46   100    1
   105    47   101    1
   106    48   102    1
   107    50   103    1
   108    50   104    1
   109    51   105    1
   110    51   106    1
