
     RDKit          3D

106110  0  0  0  0  0  0  0  0999 V2000
    7.3541    3.6374   -1.6138 N   0  0  0  0  0  0  0  0  0  0  0  0
    6.3182    4.4255   -1.0077 C   0  0  0  0  0  0  0  0  0  0  0  0
    5.0060    3.6959   -1.2080 C   0  0  0  0  0  0  0  0  0  0  0  0
    5.1721    2.2802   -0.7219 C   0  0  0  0  0  0  0  0  0  0  0  0
    5.5930    2.3489    0.6817 N   0  0  0  0  0  0  0  0  0  0  0  0
    4.8549    1.7503    1.7173 C   0  0  0  0  0  0  0  0  0  0  0  0
    5.3217    1.8610    2.9030 O   0  0  0  0  0  0  0  0  0  0  0  0
    3.6026    1.0190    1.5176 C   0  0  0  0  0  0  0  0  0  0  0  0
    3.8280   -0.4571    1.2135 C   0  0  1  0  0  0  0  0  0  0  0  0
    4.5518   -1.0609    2.3464 C   0  0  0  0  0  0  0  0  0  0  0  0
    4.8839   -2.4824    2.2881 C   0  0  0  0  0  0  0  0  0  0  0  0
    4.1764   -3.4395    2.9725 C   0  0  0  0  0  0  0  0  0  0  0  0
    4.4589   -4.7991    2.9021 C   0  0  0  0  0  0  0  0  0  0  0  0
    5.4815   -5.2567    2.1287 C   0  0  0  0  0  0  0  0  0  0  0  0
    6.2138   -4.3071    1.4267 C   0  0  0  0  0  0  0  0  0  0  0  0
    5.9326   -2.9685    1.4980 C   0  0  0  0  0  0  0  0  0  0  0  0
    2.5272   -1.1361    0.9454 C   0  0  0  0  0  0  0  0  0  0  0  0
    2.1841   -2.1347    1.5924 O   0  0  0  0  0  0  0  0  0  0  0  0
    1.6484   -0.6536   -0.0581 N   0  0  0  0  0  0  0  0  0  0  0  0
    0.3839   -1.1609   -0.4830 C   0  0  1  0  0  0  0  0  0  0  0  0
    0.0641   -2.5117    0.1243 C   0  0  0  0  0  0  0  0  0  0  0  0
    1.0367   -3.5323   -0.3106 C   0  0  0  0  0  0  0  0  0  0  0  0
    0.9969   -4.8476    0.1160 C   0  0  0  0  0  0  0  0  0  0  0  0
    2.0149   -5.5032   -0.4631 N   0  0  0  0  0  0  0  0  0  0  0  0
    2.6635   -4.6072   -1.2276 C   0  0  0  0  0  0  0  0  0  0  0  0
    2.0762   -3.4026   -1.1429 N   0  0  0  0  0  0  0  0  0  0  0  0
   -0.7154   -0.2087   -0.3821 C   0  0  0  0  0  0  0  0  0  0  0  0
   -0.4938    0.9452    0.0692 O   0  0  0  0  0  0  0  0  0  0  0  0
   -2.0143   -0.5889   -0.7868 N   0  0  0  0  0  0  0  0  0  0  0  0
   -3.1756    0.3038   -0.7021 C   0  0  1  0  0  0  0  0  0  0  0  0
   -3.4774    1.0282   -1.9417 C   0  0  0  0  0  0  0  0  0  0  0  0
   -3.7826    0.3992   -3.2121 C   0  0  0  0  0  0  0  0  0  0  0  0
   -2.7557   -0.4990   -3.8419 C   0  0  0  0  0  0  0  0  0  0  0  0
   -3.2114   -0.8798   -5.2508 C   0  0  0  0  0  0  0  0  0  0  0  0
   -4.5768   -1.5299   -5.2070 C   0  0  0  0  0  0  0  0  0  0  0  0
   -5.5310   -0.4570   -4.7389 C   0  0  0  0  0  0  0  0  0  0  0  0
   -5.1716   -0.1863   -3.2646 C   0  0  0  0  0  0  0  0  0  0  0  0
   -4.2787   -0.3338    0.0639 C   0  0  1  0  0  0  0  0  0  0  0  0
   -3.6474   -0.6951    1.3239 O   0  0  0  0  0  0  0  0  0  0  0  0
   -5.3310    0.6664    0.5758 C   0  0  1  0  0  0  0  0  0  0  0  0
   -6.1053    1.1860   -0.4343 O   0  0  0  0  0  0  0  0  0  0  0  0
   -6.2922   -0.1413    1.4579 C   0  0  0  0  0  0  0  0  0  0  0  0
   -7.3672    0.7596    2.0292 C   0  0  0  0  0  0  0  0  0  0  0  0
   -6.7504    1.8139    2.8675 C   0  0  0  0  0  0  0  0  0  0  0  0
   -6.5570    1.5741    4.1931 C   0  0  0  0  0  0  0  0  0  0  0  0
   -5.9801    2.5479    4.9734 C   0  0  0  0  0  0  0  0  0  0  0  0
   -5.6112    3.7310    4.4197 C   0  0  0  0  0  0  0  0  0  0  0  0
   -5.8280    3.9271    3.0705 C   0  0  0  0  0  0  0  0  0  0  0  0
   -6.3951    2.9707    2.3016 N   0  0  0  0  0  0  0  0  0  0  0  0
    6.8266    3.0768    0.9406 C   0  0  0  0  0  0  0  0  0  0  0  0
    6.5769    4.5182    0.5023 C   0  0  0  0  0  0  0  0  0  0  0  0
    7.3217    3.7370   -2.6600 H   0  0  0  0  0  0  0  0  0  0  0  0
    8.2964    3.9315   -1.2863 H   0  0  0  0  0  0  0  0  0  0  0  0
    6.2829    5.4256   -1.4840 H   0  0  0  0  0  0  0  0  0  0  0  0
    4.2342    4.1701   -0.5434 H   0  0  0  0  0  0  0  0  0  0  0  0
    4.7171    3.7422   -2.2719 H   0  0  0  0  0  0  0  0  0  0  0  0
    6.0522    1.8300   -1.2617 H   0  0  0  0  0  0  0  0  0  0  0  0
    4.2828    1.6530   -0.8683 H   0  0  0  0  0  0  0  0  0  0  0  0
    2.9898    1.0652    2.4386 H   0  0  0  0  0  0  0  0  0  0  0  0
    3.0124    1.5072    0.7169 H   0  0  0  0  0  0  0  0  0  0  0  0
    4.4350   -0.4557    0.2678 H   0  0  0  0  0  0  0  0  0  0  0  0
    5.5209   -0.5268    2.5728 H   0  0  0  0  0  0  0  0  0  0  0  0
    3.9786   -0.9232    3.3192 H   0  0  0  0  0  0  0  0  0  0  0  0
    3.3686   -3.1860    3.6352 H   0  0  0  0  0  0  0  0  0  0  0  0
    3.8721   -5.5445    3.4617 H   0  0  0  0  0  0  0  0  0  0  0  0
    5.7047   -6.3111    2.0706 H   0  0  0  0  0  0  0  0  0  0  0  0
    7.0314   -4.7029    0.8120 H   0  0  0  0  0  0  0  0  0  0  0  0
    6.5254   -2.2768    0.9393 H   0  0  0  0  0  0  0  0  0  0  0  0
    2.0474    0.2365   -0.5453 H   0  0  0  0  0  0  0  0  0  0  0  0
    0.5714   -1.4871   -1.5848 H   0  0  0  0  0  0  0  0  0  0  0  0
   -0.0227   -2.3876    1.2131 H   0  0  0  0  0  0  0  0  0  0  0  0
   -0.9308   -2.8809   -0.2300 H   0  0  0  0  0  0  0  0  0  0  0  0
    0.2528   -5.2683    0.8101 H   0  0  0  0  0  0  0  0  0  0  0  0
    3.5530   -4.7986   -1.8482 H   0  0  0  0  0  0  0  0  0  0  0  0
    2.3357   -2.5097   -1.6104 H   0  0  0  0  0  0  0  0  0  0  0  0
   -2.1547   -1.5437   -1.1362 H   0  0  0  0  0  0  0  0  0  0  0  0
   -2.7831    1.1177    0.0132 H   0  0  0  0  0  0  0  0  0  0  0  0
   -4.2746    1.7939   -1.6645 H   0  0  0  0  0  0  0  0  0  0  0  0
   -2.5802    1.7477   -2.0887 H   0  0  0  0  0  0  0  0  0  0  0  0
   -3.8581    1.2628   -3.9868 H   0  0  0  0  0  0  0  0  0  0  0  0
   -1.8329    0.0935   -3.9888 H   0  0  0  0  0  0  0  0  0  0  0  0
   -2.5729   -1.4471   -3.3501 H   0  0  0  0  0  0  0  0  0  0  0  0
   -2.5009   -1.6338   -5.6331 H   0  0  0  0  0  0  0  0  0  0  0  0
   -3.2320   -0.0233   -5.9145 H   0  0  0  0  0  0  0  0  0  0  0  0
   -4.8493   -1.8217   -6.2240 H   0  0  0  0  0  0  0  0  0  0  0  0
   -4.6139   -2.3603   -4.4723 H   0  0  0  0  0  0  0  0  0  0  0  0
   -6.5862   -0.7046   -4.8640 H   0  0  0  0  0  0  0  0  0  0  0  0
   -5.2386    0.4748   -5.2998 H   0  0  0  0  0  0  0  0  0  0  0  0
   -5.3274   -1.0795   -2.6701 H   0  0  0  0  0  0  0  0  0  0  0  0
   -5.8789    0.6574   -3.0046 H   0  0  0  0  0  0  0  0  0  0  0  0
   -4.8031   -1.1624   -0.3674 H   0  0  0  0  0  0  0  0  0  0  0  0
   -3.7274   -1.6520    1.4654 H   0  0  0  0  0  0  0  0  0  0  0  0
   -4.8561    1.4924    1.1290 H   0  0  0  0  0  0  0  0  0  0  0  0
   -6.2654    2.1451   -0.3737 H   0  0  0  0  0  0  0  0  0  0  0  0
   -6.7767   -0.8745    0.7814 H   0  0  0  0  0  0  0  0  0  0  0  0
   -5.7759   -0.6375    2.2800 H   0  0  0  0  0  0  0  0  0  0  0  0
   -8.0155    0.1411    2.6632 H   0  0  0  0  0  0  0  0  0  0  0  0
   -7.9982    1.2146    1.2449 H   0  0  0  0  0  0  0  0  0  0  0  0
   -6.8522    0.6211    4.6500 H   0  0  0  0  0  0  0  0  0  0  0  0
   -5.8179    2.3702    6.0372 H   0  0  0  0  0  0  0  0  0  0  0  0
   -5.1590    4.5153    4.9918 H   0  0  0  0  0  0  0  0  0  0  0  0
   -5.5508    4.8536    2.5830 H   0  0  0  0  0  0  0  0  0  0  0  0
    7.1066    3.0301    2.0134 H   0  0  0  0  0  0  0  0  0  0  0  0
    7.6167    2.6763    0.2737 H   0  0  0  0  0  0  0  0  0  0  0  0
    7.4108    5.1830    0.7292 H   0  0  0  0  0  0  0  0  0  0  0  0
    5.6153    4.8251    0.9568 H   0  0  0  0  0  0  0  0  0  0  0  0
  1  2  1  0
  2  3  1  0
  3  4  1  0
  4  5  1  0
  5  6  1  0
  6  7  2  0
  6  8  1  0
  8  9  1  0
  9 10  1  0
 10 11  1  0
 11 12  2  0
 12 13  1  0
 13 14  2  0
 14 15  1  0
 15 16  2  0
  9 17  1  0
 17 18  2  0
 17 19  1  0
 19 20  1  0
 20 21  1  0
 21 22  1  0
 22 23  2  0
 23 24  1  0
 24 25  2  0
 25 26  1  0
 20 27  1  0
 27 28  2  0
 27 29  1  0
 29 30  1  0
 30 31  1  0
 31 32  1  0
 32 33  1  0
 33 34  1  0
 34 35  1  0
 35 36  1  0
 36 37  1  0
 30 38  1  0
 38 39  1  0
 38 40  1  0
 40 41  1  0
 40 42  1  0
 42 43  1  0
 43 44  1  0
 44 45  2  0
 45 46  1  0
 46 47  2  0
 47 48  1  0
 48 49  2  0
  5 50  1  0
 50 51  1  0
 51  2  1  0
 16 11  1  0
 26 22  1  0
 37 32  1  0
 49 44  1  0
  1 52  1  0
  1 53  1  0
  2 54  1  0
  3 55  1  0
  3 56  1  0
  4 57  1  0
  4 58  1  0
  8 59  1  0
  8 60  1  0
  9 61  1  6
 10 62  1  0
 10 63  1  0
 12 64  1  0
 13 65  1  0
 14 66  1  0
 15 67  1  0
 16 68  1  0
 19 69  1  0
 20 70  1  6
 21 71  1  0
 21 72  1  0
 23 73  1  0
 25 74  1  0
 26 75  1  0
 29 76  1  0
 30 77  1  1
 31 78  1  0
 31 79  1  0
 32 80  1  0
 33 81  1  0
 33 82  1  0
 34 83  1  0
 34 84  1  0
 35 85  1  0
 35 86  1  0
 36 87  1  0
 36 88  1  0
 37 89  1  0
 37 90  1  0
 38 91  1  6
 39 92  1  0
 40 93  1  1
 41 94  1  0
 42 95  1  0
 42 96  1  0
 43 97  1  0
 43 98  1  0
 45 99  1  0
 46100  1  0
 47101  1  0
 48102  1  0
 50103  1  0
 50104  1  0
 51105  1  0
 51106  1  0
M  END
$$$$
