@<TRIPOS>MOLECULE
*****
 43 45 0 0 0
SMALL
GASTEIGER

@<TRIPOS>ATOM
      1 C          -4.6389   -0.0278    1.2769 C.3     1  UNL1       -0.0499
      2 C          -3.6719   -1.1142    0.8446 C.3     1  UNL1        0.0023
      3 C          -4.3371   -2.3305    0.2792 C.3     1  UNL1       -0.0499
      4 N          -2.7264   -0.5152   -0.0565 N.3     1  UNL1       -0.3098
      5 C          -1.9217    0.4522    0.7131 C.3     1  UNL1        0.0218
      6 C          -1.0165    1.1958   -0.1826 C.ar    1  UNL1       -0.0287
      7 C          -1.4399    2.4701   -0.5987 C.ar    1  UNL1       -0.0570
      8 C          -0.7184    3.1755   -1.5200 C.ar    1  UNL1       -0.0614
      9 C           0.4374    2.6973   -2.0850 C.ar    1  UNL1       -0.0614
     10 C           0.8521    1.4454   -1.6725 C.ar    1  UNL1       -0.0566
     11 C           0.1470    0.6914   -0.7314 C.ar    1  UNL1       -0.0233
     12 C           0.7353   -0.5805   -0.2312 C.3     1  UNL1        0.0510
     13 N           2.0139   -0.3533    0.4405 N.ar    1  UNL1       -0.3149
     14 C           2.2014    0.0774    1.6678 C.ar    1  UNL1        0.1614
     15 S           0.9510    0.5368    2.6153 S.2     1  UNL1       -0.0128
     16 N           3.4686    0.1583    2.1693 N.ar    1  UNL1       -0.3009
     17 C           4.5258   -0.1951    1.4283 C.ar    1  UNL1        0.2761
     18 O           5.6961   -0.1212    1.8871 O.2     1  UNL1       -0.2655
     19 C           4.3513   -0.6514    0.1346 C.ar    1  UNL1        0.1283
     20 N           5.2166   -1.0857   -0.8096 N.ar    1  UNL1       -0.3553
     21 C           4.5476   -1.4497   -1.9121 C.ar    1  UNL1        0.0043
     22 C           3.2204   -1.2266   -1.6274 C.ar    1  UNL1       -0.0200
     23 C           3.0830   -0.7250   -0.3470 C.ar    1  UNL1        0.0743
     24 H          -5.6842   -0.4049    1.1760 H       1  UNL1        0.0245
     25 H          -4.5128    0.9016    0.6533 H       1  UNL1        0.0245
     26 H          -4.4490    0.2804    2.3231 H       1  UNL1        0.0245
     27 H          -3.1409   -1.4532    1.7730 H       1  UNL1        0.0455
     28 H          -4.6398   -2.2540   -0.7684 H       1  UNL1        0.0245
     29 H          -3.6084   -3.1735    0.3473 H       1  UNL1        0.0245
     30 H          -5.1631   -2.6225    0.9674 H       1  UNL1        0.0245
     31 H          -3.1918   -0.0835   -0.8674 H       1  UNL1        0.1225
     32 H          -1.4419   -0.1183    1.4780 H       1  UNL1        0.0474
     33 H          -2.5943    1.2053    1.2197 H       1  UNL1        0.0474
     34 H          -2.3471    2.8953   -0.1817 H       1  UNL1        0.0621
     35 H          -1.0439    4.1550   -1.8377 H       1  UNL1        0.0618
     36 H           1.0152    3.2413   -2.8114 H       1  UNL1        0.0618
     37 H           1.7679    1.0281   -2.1006 H       1  UNL1        0.0621
     38 H           0.0770   -1.0176    0.5710 H       1  UNL1        0.0542
     39 H           0.8159   -1.2406   -1.0930 H       1  UNL1        0.0542
     40 H           3.5554    0.5110    3.1537 H       1  UNL1        0.1709
     41 H           6.2534   -1.1102   -0.6447 H       1  UNL1        0.1655
     42 H           4.9635   -1.8446   -2.8509 H       1  UNL1        0.0807
     43 H           2.3921   -1.4191   -2.3166 H       1  UNL1        0.0653
@<TRIPOS>BOND
     1     1     2    1
     2     2     3    1
     3     2     4    1
     4     4     5    1
     5     5     6    1
     6     6     7   ar
     7     7     8   ar
     8     8     9   ar
     9     9    10   ar
    10    10    11   ar
    11    11    12    1
    12    12    13    1
    13    13    14   ar
    14    14    15    2
    15    14    16   ar
    16    16    17   ar
    17    17    18    2
    18    17    19   ar
    19    19    20   ar
    20    20    21   ar
    21    21    22   ar
    22    22    23   ar
    23    11     6   ar
    24    23    13   ar
    25    23    19   ar
    26     1    24    1
    27     1    25    1
    28     1    26    1
    29     2    27    1
    30     3    28    1
    31     3    29    1
    32     3    30    1
    33     4    31    1
    34     5    32    1
    35     5    33    1
    36     7    34    1
    37     8    35    1
    38     9    36    1
    39    10    37    1
    40    12    38    1
    41    12    39    1
    42    16    40    1
    43    20    41    1
    44    21    42    1
    45    22    43    1
