
     RDKit          3D

 43 45  0  0  0  0  0  0  0  0999 V2000
   -4.6389   -0.0278    1.2769 C   0  0  0  0  0  0  0  0  0  0  0  0
   -3.6719   -1.1142    0.8446 C   0  0  0  0  0  0  0  0  0  0  0  0
   -4.3371   -2.3305    0.2792 C   0  0  0  0  0  0  0  0  0  0  0  0
   -2.7264   -0.5152   -0.0565 N   0  0  0  0  0  0  0  0  0  0  0  0
   -1.9217    0.4522    0.7131 C   0  0  0  0  0  0  0  0  0  0  0  0
   -1.0165    1.1958   -0.1826 C   0  0  0  0  0  0  0  0  0  0  0  0
   -1.4399    2.4701   -0.5987 C   0  0  0  0  0  0  0  0  0  0  0  0
   -0.7184    3.1755   -1.5200 C   0  0  0  0  0  0  0  0  0  0  0  0
    0.4374    2.6973   -2.0850 C   0  0  0  0  0  0  0  0  0  0  0  0
    0.8521    1.4454   -1.6725 C   0  0  0  0  0  0  0  0  0  0  0  0
    0.1470    0.6914   -0.7314 C   0  0  0  0  0  0  0  0  0  0  0  0
    0.7353   -0.5805   -0.2312 C   0  0  0  0  0  0  0  0  0  0  0  0
    2.0139   -0.3533    0.4405 N   0  0  0  0  0  0  0  0  0  0  0  0
    2.2014    0.0774    1.6678 C   0  0  0  0  0  0  0  0  0  0  0  0
    0.9510    0.5368    2.6153 S   0  0  0  0  0  0  0  0  0  0  0  0
    3.4686    0.1583    2.1693 N   0  0  0  0  0  0  0  0  0  0  0  0
    4.5258   -0.1951    1.4283 C   0  0  0  0  0  0  0  0  0  0  0  0
    5.6961   -0.1212    1.8871 O   0  0  0  0  0  0  0  0  0  0  0  0
    4.3513   -0.6514    0.1346 C   0  0  0  0  0  0  0  0  0  0  0  0
    5.2166   -1.0857   -0.8096 N   0  0  0  0  0  0  0  0  0  0  0  0
    4.5476   -1.4497   -1.9121 C   0  0  0  0  0  0  0  0  0  0  0  0
    3.2204   -1.2266   -1.6274 C   0  0  0  0  0  0  0  0  0  0  0  0
    3.0830   -0.7250   -0.3470 C   0  0  0  0  0  0  0  0  0  0  0  0
   -5.6842   -0.4049    1.1760 H   0  0  0  0  0  0  0  0  0  0  0  0
   -4.5128    0.9016    0.6533 H   0  0  0  0  0  0  0  0  0  0  0  0
   -4.4490    0.2804    2.3231 H   0  0  0  0  0  0  0  0  0  0  0  0
   -3.1409   -1.4532    1.7730 H   0  0  0  0  0  0  0  0  0  0  0  0
   -4.6398   -2.2540   -0.7684 H   0  0  0  0  0  0  0  0  0  0  0  0
   -3.6084   -3.1735    0.3473 H   0  0  0  0  0  0  0  0  0  0  0  0
   -5.1631   -2.6225    0.9674 H   0  0  0  0  0  0  0  0  0  0  0  0
   -3.1918   -0.0835   -0.8674 H   0  0  0  0  0  0  0  0  0  0  0  0
   -1.4419   -0.1183    1.4780 H   0  0  0  0  0  0  0  0  0  0  0  0
   -2.5943    1.2053    1.2197 H   0  0  0  0  0  0  0  0  0  0  0  0
   -2.3471    2.8953   -0.1817 H   0  0  0  0  0  0  0  0  0  0  0  0
   -1.0439    4.1550   -1.8377 H   0  0  0  0  0  0  0  0  0  0  0  0
    1.0152    3.2413   -2.8114 H   0  0  0  0  0  0  0  0  0  0  0  0
    1.7679    1.0281   -2.1006 H   0  0  0  0  0  0  0  0  0  0  0  0
    0.0770   -1.0176    0.5710 H   0  0  0  0  0  0  0  0  0  0  0  0
    0.8159   -1.2406   -1.0930 H   0  0  0  0  0  0  0  0  0  0  0  0
    3.5554    0.5110    3.1537 H   0  0  0  0  0  0  0  0  0  0  0  0
    6.2534   -1.1102   -0.6447 H   0  0  0  0  0  0  0  0  0  0  0  0
    4.9635   -1.8446   -2.8509 H   0  0  0  0  0  0  0  0  0  0  0  0
    2.3921   -1.4191   -2.3166 H   0  0  0  0  0  0  0  0  0  0  0  0
  1  2  1  0
  2  3  1  0
  2  4  1  0
  4  5  1  0
  5  6  1  0
  6  7  2  0
  7  8  1  0
  8  9  2  0
  9 10  1  0
 10 11  2  0
 11 12  1  0
 12 13  1  0
 13 14  1  0
 14 15  2  0
 14 16  1  0
 16 17  1  0
 17 18  2  0
 17 19  1  0
 19 20  1  0
 20 21  1  0
 21 22  2  0
 22 23  1  0
 11  6  1  0
 23 13  1  0
 23 19  2  0
  1 24  1  0
  1 25  1  0
  1 26  1  0
  2 27  1  0
  3 28  1  0
  3 29  1  0
  3 30  1  0
  4 31  1  0
  5 32  1  0
  5 33  1  0
  7 34  1  0
  8 35  1  0
  9 36  1  0
 10 37  1  0
 12 38  1  0
 12 39  1  0
 16 40  1  0
 20 41  1  0
 21 42  1  0
 22 43  1  0
M  END
$$$$
