
     RDKit          3D

 43 44  0  0  0  0  0  0  0  0999 V2000
    6.3621    0.7565   -0.1187 C   0  0  0  0  0  0  0  0  0  0  0  0
    5.5394    1.0574    0.9434 O   0  0  0  0  0  0  0  0  0  0  0  0
    4.6034    0.1194    1.2658 C   0  0  0  0  0  0  0  0  0  0  0  0
    3.6159   -0.1771    0.1208 C   0  0  0  0  0  0  0  0  0  0  0  0
    2.9104    1.0062   -0.2492 N   0  0  0  0  0  0  0  0  0  0  0  0
    1.9617    0.9160   -1.2950 C   0  0  0  0  0  0  0  0  0  0  0  0
    0.8343   -0.0131   -1.0839 C   0  0  0  0  0  0  0  0  0  0  0  0
   -0.4125    0.4631   -0.6350 C   0  0  0  0  0  0  0  0  0  0  0  0
   -1.4638   -0.3800   -0.4136 C   0  0  0  0  0  0  0  0  0  0  0  0
   -2.7682    0.1770    0.0627 C   0  0  2  0  0  0  0  0  0  0  0  0
   -2.6071    1.7061    0.0737 C   0  0  0  0  0  0  0  0  0  0  0  0
   -2.9187   -0.2143    1.4938 C   0  0  0  0  0  0  0  0  0  0  0  0
   -4.2869   -0.2660    2.0550 C   0  0  0  0  0  0  0  0  0  0  0  0
   -5.5086   -0.9878    0.9593 S   0  0  0  0  0  0  0  0  0  0  0  0
   -4.9911   -0.5350   -0.6890 C   0  0  0  0  0  0  0  0  0  0  0  0
   -5.8567   -0.6818   -1.8149 N   0  0  0  0  0  0  0  0  0  0  0  0
   -3.8325   -0.0819   -0.8183 N   0  0  0  0  0  0  0  0  0  0  0  0
   -1.3153   -1.7456   -0.6319 C   0  0  0  0  0  0  0  0  0  0  0  0
   -2.3701   -2.5682   -0.4063 F   0  0  0  0  0  0  0  0  0  0  0  0
   -0.0954   -2.1898   -1.0688 C   0  0  0  0  0  0  0  0  0  0  0  0
    1.0014   -1.3527   -1.3058 C   0  0  0  0  0  0  0  0  0  0  0  0
    2.1758   -1.8901   -1.7639 F   0  0  0  0  0  0  0  0  0  0  0  0
    5.7661    0.6206   -1.0202 H   0  0  0  0  0  0  0  0  0  0  0  0
    7.0362    1.6327   -0.2941 H   0  0  0  0  0  0  0  0  0  0  0  0
    7.0367   -0.1126    0.0951 H   0  0  0  0  0  0  0  0  0  0  0  0
    4.0600    0.4555    2.1711 H   0  0  0  0  0  0  0  0  0  0  0  0
    5.0592   -0.8676    1.5497 H   0  0  0  0  0  0  0  0  0  0  0  0
    4.2162   -0.6059   -0.6905 H   0  0  0  0  0  0  0  0  0  0  0  0
    2.9173   -0.9321    0.5972 H   0  0  0  0  0  0  0  0  0  0  0  0
    3.5789    1.7654   -0.4736 H   0  0  0  0  0  0  0  0  0  0  0  0
    2.4668    0.7048   -2.2908 H   0  0  0  0  0  0  0  0  0  0  0  0
    1.5068    1.9385   -1.4838 H   0  0  0  0  0  0  0  0  0  0  0  0
   -0.4439    1.5300   -0.4885 H   0  0  0  0  0  0  0  0  0  0  0  0
   -3.5719    2.1898    0.3451 H   0  0  0  0  0  0  0  0  0  0  0  0
   -2.3174    2.1180   -0.8882 H   0  0  0  0  0  0  0  0  0  0  0  0
   -1.8816    2.0418    0.8396 H   0  0  0  0  0  0  0  0  0  0  0  0
   -2.3247    0.4843    2.1597 H   0  0  0  0  0  0  0  0  0  0  0  0
   -2.4325   -1.2181    1.6866 H   0  0  0  0  0  0  0  0  0  0  0  0
   -4.3068   -0.8657    3.0063 H   0  0  0  0  0  0  0  0  0  0  0  0
   -4.6333    0.7533    2.3416 H   0  0  0  0  0  0  0  0  0  0  0  0
   -6.8433   -0.3512   -1.8325 H   0  0  0  0  0  0  0  0  0  0  0  0
   -5.4758   -1.1445   -2.6581 H   0  0  0  0  0  0  0  0  0  0  0  0
    0.0093   -3.2552   -1.2351 H   0  0  0  0  0  0  0  0  0  0  0  0
  1  2  1  0
  2  3  1  0
  3  4  1  0
  4  5  1  0
  5  6  1  0
  6  7  1  0
  7  8  2  0
  8  9  1  0
  9 10  1  0
 10 11  1  1
 10 12  1  0
 12 13  1  0
 13 14  1  0
 14 15  1  0
 15 16  1  0
 15 17  2  0
  9 18  2  0
 18 19  1  0
 18 20  1  0
 20 21  2  0
 21 22  1  0
 21  7  1  0
 17 10  1  0
  1 23  1  0
  1 24  1  0
  1 25  1  0
  3 26  1  0
  3 27  1  0
  4 28  1  0
  4 29  1  0
  5 30  1  0
  6 31  1  0
  6 32  1  0
  8 33  1  0
 11 34  1  0
 11 35  1  0
 11 36  1  0
 12 37  1  0
 12 38  1  0
 13 39  1  0
 13 40  1  0
 16 41  1  0
 16 42  1  0
 20 43  1  0
M  END
$$$$
