@<TRIPOS>MOLECULE
*****
 43 44 0 0 0
SMALL
GASTEIGER

@<TRIPOS>ATOM
      1 C           6.3621    0.7565   -0.1187 C.3     1  UNL1        0.0365
      2 O           5.5394    1.0574    0.9434 O.3     1  UNL1       -0.3817
      3 C           4.6034    0.1194    1.2658 C.3     1  UNL1        0.0598
      4 C           3.6159   -0.1771    0.1208 C.3     1  UNL1        0.0196
      5 N           2.9104    1.0062   -0.2492 N.3     1  UNL1       -0.3098
      6 C           1.9617    0.9160   -1.2950 C.3     1  UNL1        0.0241
      7 C           0.8343   -0.0131   -1.0839 C.ar    1  UNL1        0.0021
      8 C          -0.4125    0.4631   -0.6350 C.ar    1  UNL1       -0.0464
      9 C          -1.4638   -0.3800   -0.4136 C.ar    1  UNL1        0.0154
     10 C          -2.7682    0.1770    0.0627 C.3     1  UNL1        0.0897
     11 C          -2.6071    1.7061    0.0737 C.3     1  UNL1       -0.0354
     12 C          -2.9187   -0.2143    1.4938 C.3     1  UNL1       -0.0142
     13 C          -4.2869   -0.2660    2.0550 C.3     1  UNL1        0.0034
     14 S          -5.5086   -0.9878    0.9593 S.3     1  UNL1       -0.0910
     15 C          -4.9911   -0.5350   -0.6890 C.2     1  UNL1        0.1475
     16 N          -5.8567   -0.6818   -1.8149 N.pl3   1  UNL1       -0.3380
     17 N          -3.8325   -0.0819   -0.8183 N.2     1  UNL1       -0.2524
     18 C          -1.3153   -1.7456   -0.6319 C.ar    1  UNL1        0.1316
     19 F          -2.3701   -2.5682   -0.4063 F       1  UNL1       -0.2050
     20 C          -0.0954   -2.1898   -1.0688 C.ar    1  UNL1        0.0095
     21 C           1.0014   -1.3527   -1.3058 C.ar    1  UNL1        0.1305
     22 F           2.1758   -1.8901   -1.7639 F       1  UNL1       -0.2051
     23 H           5.7661    0.6206   -1.0202 H       1  UNL1        0.0523
     24 H           7.0362    1.6327   -0.2941 H       1  UNL1        0.0523
     25 H           7.0367   -0.1126    0.0951 H       1  UNL1        0.0523
     26 H           4.0600    0.4555    2.1711 H       1  UNL1        0.0572
     27 H           5.0592   -0.8676    1.5497 H       1  UNL1        0.0572
     28 H           4.2162   -0.6059   -0.6905 H       1  UNL1        0.0447
     29 H           2.9173   -0.9321    0.5972 H       1  UNL1        0.0447
     30 H           3.5789    1.7654   -0.4736 H       1  UNL1        0.1223
     31 H           2.4668    0.7048   -2.2908 H       1  UNL1        0.0474
     32 H           1.5068    1.9385   -1.4838 H       1  UNL1        0.0474
     33 H          -0.4439    1.5300   -0.4885 H       1  UNL1        0.0626
     34 H          -3.5719    2.1898    0.3451 H       1  UNL1        0.0256
     35 H          -2.3174    2.1180   -0.8882 H       1  UNL1        0.0256
     36 H          -1.8816    2.0418    0.8396 H       1  UNL1        0.0256
     37 H          -2.3247    0.4843    2.1597 H       1  UNL1        0.0300
     38 H          -2.4325   -1.2181    1.6866 H       1  UNL1        0.0300
     39 H          -4.3068   -0.8657    3.0063 H       1  UNL1        0.0381
     40 H          -4.6333    0.7533    2.3416 H       1  UNL1        0.0381
     41 H          -6.8433   -0.3512   -1.8325 H       1  UNL1        0.1442
     42 H          -5.4758   -1.1445   -2.6581 H       1  UNL1        0.1442
     43 H           0.0093   -3.2552   -1.2351 H       1  UNL1        0.0675
@<TRIPOS>BOND
     1     1     2    1
     2     2     3    1
     3     3     4    1
     4     4     5    1
     5     5     6    1
     6     6     7    1
     7     7     8   ar
     8     8     9   ar
     9     9    10    1
    10    10    11    1
    11    10    12    1
    12    12    13    1
    13    13    14    1
    14    14    15    1
    15    15    16    1
    16    15    17    2
    17     9    18   ar
    18    18    19    1
    19    18    20   ar
    20    20    21   ar
    21    21    22    1
    22    21     7   ar
    23    17    10    1
    24     1    23    1
    25     1    24    1
    26     1    25    1
    27     3    26    1
    28     3    27    1
    29     4    28    1
    30     4    29    1
    31     5    30    1
    32     6    31    1
    33     6    32    1
    34     8    33    1
    35    11    34    1
    36    11    35    1
    37    11    36    1
    38    12    37    1
    39    12    38    1
    40    13    39    1
    41    13    40    1
    42    16    41    1
    43    16    42    1
    44    20    43    1
