@<TRIPOS>MOLECULE
*****
 40 42 0 0 0
SMALL
GASTEIGER

@<TRIPOS>ATOM
      1 F          -3.5861   -4.9653   -1.2915 F       1  UNL1       -0.1663
      2 C          -2.7848   -4.6353   -0.1822 C.3     1  UNL1        0.3894
      3 F          -3.4238   -5.0572    0.9826 F       1  UNL1       -0.1663
      4 O          -2.7358   -3.2497   -0.1488 O.3     1  UNL1       -0.4305
      5 C          -1.5442   -2.5666   -0.1793 C.ar    1  UNL1        0.1683
      6 C          -1.6156   -1.1630   -0.1288 C.ar    1  UNL1        0.1628
      7 O          -2.8443   -0.5994   -0.0557 O.3     1  UNL1       -0.4880
      8 C          -3.3241    0.6698    0.0067 C.3     1  UNL1        0.0926
      9 C          -2.9479    1.5273    1.1695 C.3     1  UNL1       -0.0068
     10 C          -3.5734    2.9309    1.0769 C.3     1  UNL1       -0.0468
     11 C          -3.9674    1.9816    2.1514 C.3     1  UNL1       -0.0468
     12 C          -0.4726   -0.3914   -0.1531 C.ar    1  UNL1       -0.0042
     13 C           0.7724   -0.9469   -0.2263 C.ar    1  UNL1        0.0407
     14 C           0.8779   -2.3307   -0.2780 C.ar    1  UNL1       -0.0459
     15 C          -0.2674   -3.0728   -0.2531 C.ar    1  UNL1       -0.0154
     16 C           2.0594   -0.2368   -0.2249 C.2     1  UNL1        0.2484
     17 O           3.1828   -0.7776   -0.3933 O.2     1  UNL1       -0.2698
     18 N           2.1778    1.1753   -0.0237 N.am    1  UNL1       -0.2790
     19 C           3.5783    1.5056   -0.0774 C.ar    1  UNL1        0.0736
     20 C           4.1102    1.3538    1.2121 C.ar    1  UNL1        0.0816
     21 CL          3.2678    0.8504    2.6470 Cl      1  UNL1       -0.0800
     22 C           5.4672    1.6195    1.4225 C.ar    1  UNL1        0.0478
     23 N           6.2518    2.0161    0.4045 N.ar    1  UNL1       -0.2602
     24 C           5.7233    2.1555   -0.8199 C.ar    1  UNL1        0.0478
     25 C           4.4088    1.9178   -1.1219 C.ar    1  UNL1        0.0816
     26 CL          3.5295    2.0351   -2.6190 Cl      1  UNL1       -0.0800
     27 H          -1.8361   -5.1767   -0.2092 H       1  UNL1        0.1520
     28 H          -3.0982    1.2604   -0.9376 H       1  UNL1        0.0699
     29 H          -4.4590    0.6202    0.0343 H       1  UNL1        0.0699
     30 H          -1.8983    1.4851    1.5059 H       1  UNL1        0.0334
     31 H          -4.3277    3.1274    0.3027 H       1  UNL1        0.0269
     32 H          -2.9233    3.7941    1.3358 H       1  UNL1        0.0269
     33 H          -4.9373    1.4588    2.1101 H       1  UNL1        0.0269
     34 H          -3.6281    2.2390    3.1741 H       1  UNL1        0.0269
     35 H          -0.4383    0.6782   -0.1265 H       1  UNL1        0.0663
     36 H           1.8555   -2.8258   -0.3396 H       1  UNL1        0.0626
     37 H          -0.1558   -4.1447   -0.2967 H       1  UNL1        0.0655
     38 H           1.2933    1.7401    0.1251 H       1  UNL1        0.1552
     39 H           5.9604    1.5256    2.3921 H       1  UNL1        0.0845
     40 H           6.2731    2.4720   -1.7158 H       1  UNL1        0.0845
@<TRIPOS>BOND
     1     1     2    1
     2     2     3    1
     3     2     4    1
     4     4     5    1
     5     5     6   ar
     6     6     7    1
     7     7     8    1
     8     8     9    1
     9     9    10    1
    10    10    11    1
    11     6    12   ar
    12    12    13   ar
    13    13    14   ar
    14    14    15   ar
    15    13    16    1
    16    16    17    2
    17    16    18   am
    18    18    19    1
    19    19    20   ar
    20    20    21    1
    21    20    22   ar
    22    22    23   ar
    23    23    24   ar
    24    24    25   ar
    25    25    26    1
    26    15     5   ar
    27    25    19   ar
    28    11     9    1
    29     2    27    1
    30     8    28    1
    31     8    29    1
    32     9    30    1
    33    10    31    1
    34    10    32    1
    35    11    33    1
    36    11    34    1
    37    12    35    1
    38    14    36    1
    39    15    37    1
    40    18    38    1
    41    22    39    1
    42    24    40    1
