@<TRIPOS>MOLECULE
*****
 47 48 0 0 0
SMALL
GASTEIGER

@<TRIPOS>ATOM
      1 C          -5.5360    3.0763   -0.8092 C.3     1  UNL1        0.0790
      2 O          -6.6764    2.3365   -0.4613 O.3     1  UNL1       -0.4914
      3 C          -6.5388    1.0404    0.0028 C.ar    1  UNL1        0.1618
      4 C          -5.2612    0.5173    0.1069 C.ar    1  UNL1       -0.0092
      5 C          -4.9964   -0.7508    0.5521 C.ar    1  UNL1       -0.0212
      6 C          -3.6599   -1.3124    0.6662 C.2     1  UNL1       -0.0512
      7 C          -2.5506   -0.6790    0.3591 C.2     1  UNL1       -0.0182
      8 C          -1.2323   -1.3327    0.5081 C.2     1  UNL1        0.1635
      9 O          -1.1615   -2.5022    0.9305 O.2     1  UNL1       -0.2922
     10 C          -0.0307   -0.5528    0.1412 C.3     1  UNL1        0.0724
     11 C           1.1583   -1.3923    0.3663 C.2     1  UNL1        0.1635
     12 O           1.0536   -2.5542    0.7982 O.2     1  UNL1       -0.2922
     13 C           2.4897   -0.8642    0.0817 C.2     1  UNL1       -0.0182
     14 C           3.5860   -1.5617    0.2613 C.2     1  UNL1       -0.0512
     15 C           4.9293   -1.0772   -0.0082 C.ar    1  UNL1       -0.0212
     16 C           6.0217   -1.9218    0.2255 C.ar    1  UNL1       -0.0509
     17 C           7.3143   -1.5113   -0.0137 C.ar    1  UNL1       -0.0160
     18 C           7.6016   -0.2531   -0.4937 C.ar    1  UNL1        0.1585
     19 O           8.9098    0.1162   -0.7189 O.3     1  UNL1       -0.5033
     20 C           6.5438    0.5937   -0.7306 C.ar    1  UNL1        0.1618
     21 O           6.7390    1.8579   -1.2064 O.3     1  UNL1       -0.4914
     22 C           5.7460    2.8000   -1.4823 C.3     1  UNL1        0.0790
     23 C           5.2317    0.1768   -0.4877 C.ar    1  UNL1       -0.0092
     24 C          -6.1130   -1.5143    0.9071 C.ar    1  UNL1       -0.0509
     25 C          -7.3792   -1.0025    0.8063 C.ar    1  UNL1       -0.0160
     26 C          -7.6274    0.2728    0.3574 C.ar    1  UNL1        0.1585
     27 O          -8.8996    0.8155    0.2457 O.3     1  UNL1       -0.5033
     28 H          -5.7680    4.1018   -1.1244 H       1  UNL1        0.0660
     29 H          -4.9405    2.5367   -1.5848 H       1  UNL1        0.0660
     30 H          -4.8474    3.1610    0.0729 H       1  UNL1        0.0660
     31 H          -4.3975    1.1436   -0.1807 H       1  UNL1        0.0661
     32 H          -3.5795   -2.3337    1.0339 H       1  UNL1        0.0625
     33 H          -2.6190    0.3343   -0.0065 H       1  UNL1        0.0653
     34 H           0.0894    0.3570    0.7646 H       1  UNL1        0.0426
     35 H          -0.0731   -0.2469   -0.9345 H       1  UNL1        0.0426
     36 H           2.6181    0.1594   -0.3012 H       1  UNL1        0.0653
     37 H           3.4659   -2.5844    0.6433 H       1  UNL1        0.0625
     38 H           5.8116   -2.9069    0.6003 H       1  UNL1        0.0625
     39 H           8.1363   -2.2055    0.1837 H       1  UNL1        0.0655
     40 H           9.5803   -0.4805   -1.2146 H       1  UNL1        0.2923
     41 H           5.1578    2.4172   -2.3613 H       1  UNL1        0.0660
     42 H           6.1097    3.8157   -1.6238 H       1  UNL1        0.0660
     43 H           5.0066    2.8237   -0.6286 H       1  UNL1        0.0660
     44 H           4.4345    0.8685   -0.6860 H       1  UNL1        0.0661
     45 H          -5.9397   -2.5305    1.2666 H       1  UNL1        0.0625
     46 H          -8.2643   -1.5903    1.0814 H       1  UNL1        0.0655
     47 H          -9.6429    0.3393    0.7550 H       1  UNL1        0.2923
@<TRIPOS>BOND
     1     1     2    1
     2     2     3    1
     3     3     4   ar
     4     4     5   ar
     5     5     6    1
     6     6     7    2
     7     7     8    1
     8     8     9    2
     9     8    10    1
    10    10    11    1
    11    11    12    2
    12    11    13    1
    13    13    14    2
    14    14    15    1
    15    15    16   ar
    16    16    17   ar
    17    17    18   ar
    18    18    19    1
    19    18    20   ar
    20    20    21    1
    21    21    22    1
    22    20    23   ar
    23     5    24   ar
    24    24    25   ar
    25    25    26   ar
    26    26    27    1
    27    26     3   ar
    28    23    15   ar
    29     1    28    1
    30     1    29    1
    31     1    30    1
    32     4    31    1
    33     6    32    1
    34     7    33    1
    35    10    34    1
    36    10    35    1
    37    13    36    1
    38    14    37    1
    39    16    38    1
    40    17    39    1
    41    19    40    1
    42    22    41    1
    43    22    42    1
    44    22    43    1
    45    23    44    1
    46    24    45    1
    47    25    46    1
    48    27    47    1
