@<TRIPOS>MOLECULE
*****
 30 32 0 0 0
SMALL
GASTEIGER

@<TRIPOS>ATOM
      1 CL          5.6541    2.8475    1.0606 Cl      1  UNL1       -0.0835
      2 C           4.4486    1.6301    0.7056 C.ar    1  UNL1        0.0424
      3 C           3.1970    1.7720    1.2355 C.ar    1  UNL1       -0.0247
      4 C           2.1611    0.8942    1.0380 C.ar    1  UNL1        0.0466
      5 CL          0.5667    1.0374    1.6954 Cl      1  UNL1       -0.0832
      6 C           2.3612   -0.2211    0.2549 C.ar    1  UNL1       -0.0149
      7 C           3.6433   -0.3735   -0.2924 C.ar    1  UNL1       -0.0547
      8 C           4.6659    0.5170   -0.0820 C.ar    1  UNL1       -0.0430
      9 C           1.4252   -1.3228   -0.1280 C.3     1  UNL1        0.0460
     10 C           0.7795   -1.0383   -1.4381 C.3     1  UNL1        0.0151
     11 S          -0.5231    0.1512   -1.0156 S.3     1  UNL1       -0.1143
     12 C          -1.3171   -0.7586    0.3032 C.2     1  UNL1        0.0760
     13 S           0.1046   -1.4883    1.0780 S.3     1  UNL1       -0.1068
     14 C          -2.5899   -0.8857    0.6471 C.2     1  UNL1        0.1451
     15 C          -2.9552   -1.6983    1.7777 C.1     1  UNL1        0.1193
     16 N          -3.2646   -2.3412    2.6905 N.1     1  UNL1       -0.1893
     17 N          -3.5323   -0.1829   -0.1579 N.ar    1  UNL1       -0.2957
     18 C          -4.2509   -0.2906   -1.2945 C.ar    1  UNL1        0.0300
     19 C          -5.0022    0.8645   -1.4532 C.ar    1  UNL1        0.0458
     20 N          -4.7376    1.6702   -0.4123 N.ar    1  UNL1       -0.2437
     21 C          -3.8349    1.0316    0.3871 C.ar    1  UNL1        0.1009
     22 H           2.9799    2.6363    1.8640 H       1  UNL1        0.0647
     23 H           3.9224   -1.2143   -0.9276 H       1  UNL1        0.0622
     24 H           5.6501    0.3957   -0.5049 H       1  UNL1        0.0632
     25 H           1.9975   -2.3038   -0.1475 H       1  UNL1        0.0473
     26 H           1.4585   -0.6599   -2.2094 H       1  UNL1        0.0394
     27 H           0.2537   -1.9557   -1.8023 H       1  UNL1        0.0394
     28 H          -4.0692   -1.2415   -1.8018 H       1  UNL1        0.0829
     29 H          -5.6208    0.8910   -2.3348 H       1  UNL1        0.0845
     30 H          -3.5712    1.6377    1.2644 H       1  UNL1        0.1032
@<TRIPOS>BOND
     1     1     2    1
     2     2     3   ar
     3     3     4   ar
     4     4     5    1
     5     4     6   ar
     6     6     7   ar
     7     7     8   ar
     8     6     9    1
     9     9    10    1
    10    10    11    1
    11    11    12    1
    12    12    13    1
    13    12    14    2
    14    14    15    1
    15    15    16    3
    16    14    17    1
    17    17    18   ar
    18    18    19   ar
    19    19    20   ar
    20    20    21   ar
    21     8     2   ar
    22    13     9    1
    23    21    17   ar
    24     3    22    1
    25     7    23    1
    26     8    24    1
    27     9    25    1
    28    10    26    1
    29    10    27    1
    30    18    28    1
    31    19    29    1
    32    21    30    1
