@<TRIPOS>MOLECULE
*****
 97 104 0 0 0
SMALL
GASTEIGER

@<TRIPOS>ATOM
      1 C          12.3438   -4.4395    0.4883 C.3     1  UNL1       -0.0376
      2 C          12.3923   -3.0414   -0.0120 C.ar    1  UNL1       -0.0233
      3 C          11.2402   -2.2837   -0.1749 C.ar    1  UNL1       -0.0355
      4 C          11.2761   -1.0067   -0.6310 C.ar    1  UNL1        0.0346
      5 N          10.1328   -0.2246   -0.8085 N.pl3   1  UNL1       -0.2835
      6 C           8.7763   -0.5939   -0.6258 C.ar    1  UNL1        0.2226
      7 N           8.3661   -1.8038   -0.2397 N.ar    1  UNL1       -0.2225
      8 C           7.0733   -2.1439   -0.0725 C.ar    1  UNL1        0.0362
      9 C           6.1066   -1.1735   -0.3175 C.ar    1  UNL1        0.0186
     10 C           6.5029    0.0834   -0.7167 C.ar    1  UNL1        0.2249
     11 O           5.5380    1.0557   -0.9684 O.3     1  UNL1       -0.4373
     12 C           4.1926    0.8386   -0.7619 C.ar    1  UNL1        0.1381
     13 C           3.2998    0.7940   -1.8338 C.ar    1  UNL1       -0.0169
     14 C           1.9494    0.5756   -1.6111 C.ar    1  UNL1       -0.0363
     15 C           1.4517    0.3986   -0.3466 C.ar    1  UNL1        0.0427
     16 N           0.0797    0.1752   -0.1547 N.am    1  UNL1       -0.2686
     17 C          -0.8617    1.2341    0.0147 C.2     1  UNL1        0.3092
     18 O          -0.4186    2.3914   -0.0155 O.2     1  UNL1       -0.2521
     19 N          -2.2365    1.0279    0.2091 N.am    1  UNL1       -0.2538
     20 C          -3.2149    2.0480    0.3673 C.ar    1  UNL1        0.1299
     21 C          -3.0408    3.4095    0.3295 C.ar    1  UNL1        0.0018
     22 C          -4.2470    4.0478    0.5239 C.ar    1  UNL1        0.0679
     23 C          -4.4555    5.5157    0.5505 C.3     1  UNL1       -0.0025
     24 C          -5.2742    5.9136    1.7312 C.3     1  UNL1       -0.0572
     25 C          -5.0848    5.9819   -0.7627 C.3     1  UNL1       -0.0572
     26 N          -5.1411    3.0587    0.6783 N.ar    1  UNL1       -0.1694
     27 N          -4.5415    1.8857    0.5877 N.ar    1  UNL1       -0.2180
     28 C          -5.1300    0.5981    0.7015 C.ar    1  UNL1        0.0709
     29 C          -4.6284   -0.3308    1.6154 C.ar    1  UNL1       -0.0360
     30 C          -5.1811   -1.5861    1.7366 C.ar    1  UNL1       -0.0563
     31 C          -6.2402   -1.8879    0.9281 C.ar    1  UNL1       -0.0198
     32 C          -6.7577   -0.9820    0.0120 C.ar    1  UNL1        0.1226
     33 O          -7.8286   -1.3946   -0.7519 O.3     1  UNL1       -0.4906
     34 C          -8.4899   -0.6373   -1.7144 C.3     1  UNL1        0.1022
     35 C          -9.6157   -1.3473   -2.3861 C.3     1  UNL1        0.0333
     36 N         -10.6671   -1.8010   -1.5542 N.3     1  UNL1       -0.2948
     37 C         -10.3737   -2.8585   -0.6631 C.3     1  UNL1        0.0225
     38 C         -10.4855   -2.4973    0.7928 C.3     1  UNL1        0.0604
     39 O         -11.4230   -1.5343    1.0823 O.3     1  UNL1       -0.3772
     40 C         -12.3599   -1.3578    0.0756 C.3     1  UNL1        0.0604
     41 C         -11.6898   -0.8909   -1.2118 C.3     1  UNL1        0.0225
     42 C          -6.2013    0.2693   -0.1043 C.ar    1  UNL1        0.0056
     43 C           2.3181    0.4413    0.7162 C.ar    1  UNL1        0.0069
     44 C           1.8544    0.2868    2.0039 C.ar    1  UNL1       -0.0521
     45 C           2.7062    0.3454    3.0944 C.ar    1  UNL1       -0.0611
     46 C           4.0478    0.5653    2.8631 C.ar    1  UNL1       -0.0611
     47 C           4.5554    0.7253    1.5917 C.ar    1  UNL1       -0.0505
     48 C           3.6910    0.6624    0.5094 C.ar    1  UNL1        0.0262
     49 N           7.8093    0.3441   -0.8607 N.ar    1  UNL1       -0.1789
     50 C          12.5108   -0.4658   -0.9357 C.ar    1  UNL1       -0.0298
     51 C          13.6615   -1.1881   -0.7852 C.ar    1  UNL1        0.0215
     52 C          14.9867   -0.9110   -1.0051 C.ar    1  UNL1        0.0569
     53 N          15.6813   -1.9998   -0.6830 N.ar    1  UNL1       -0.1812
     54 N          14.8734   -2.9490   -0.2725 N.ar    1  UNL1       -0.2767
     55 C          13.6023   -2.4841   -0.3204 C.ar    1  UNL1        0.0687
     56 H          12.4283   -4.4729    1.5947 H       1  UNL1        0.0278
     57 H          11.4154   -4.9436    0.1475 H       1  UNL1        0.0278
     58 H          13.2301   -4.9651    0.0786 H       1  UNL1        0.0278
     59 H          10.3264   -2.7938    0.0920 H       1  UNL1        0.0639
     60 H          10.2855    0.8029   -1.1260 H       1  UNL1        0.1550
     61 H           6.7489   -3.1255    0.2400 H       1  UNL1        0.0832
     62 H           5.0768   -1.4583   -0.1859 H       1  UNL1        0.0686
     63 H           3.7244    0.9381   -2.8129 H       1  UNL1        0.0655
     64 H           1.2970    0.5492   -2.4734 H       1  UNL1        0.0637
     65 H          -0.2704   -0.8074   -0.1349 H       1  UNL1        0.1564
     66 H          -2.5597    0.0170    0.2272 H       1  UNL1        0.1578
     67 H          -2.1116    3.9308    0.1724 H       1  UNL1        0.0671
     68 H          -3.4509    5.9965    0.5769 H       1  UNL1        0.0359
     69 H          -6.3399    6.0235    1.4455 H       1  UNL1        0.0236
     70 H          -4.8514    6.8417    2.1615 H       1  UNL1        0.0236
     71 H          -5.1848    5.1188    2.5042 H       1  UNL1        0.0236
     72 H          -5.7090    6.8774   -0.5808 H       1  UNL1        0.0236
     73 H          -4.2865    6.3012   -1.4919 H       1  UNL1        0.0236
     74 H          -5.6166    5.1581   -1.2783 H       1  UNL1        0.0236
     75 H          -3.7943   -0.0739    2.2500 H       1  UNL1        0.0639
     76 H          -4.8201   -2.3296    2.4301 H       1  UNL1        0.0619
     77 H          -6.6867   -2.8691    1.0084 H       1  UNL1        0.0654
     78 H          -8.8488    0.3484   -1.3466 H       1  UNL1        0.0709
     79 H          -7.7420   -0.3896   -2.5110 H       1  UNL1        0.0709
     80 H         -10.0669   -0.6084   -3.1106 H       1  UNL1        0.0460
     81 H          -9.1936   -2.1753   -2.9960 H       1  UNL1        0.0460
     82 H         -11.0004   -3.7712   -0.8342 H       1  UNL1        0.0449
     83 H          -9.3164   -3.1926   -0.8198 H       1  UNL1        0.0449
     84 H          -9.4834   -2.2544    1.2351 H       1  UNL1        0.0572
     85 H         -10.7760   -3.4430    1.3433 H       1  UNL1        0.0572
     86 H         -12.9829   -2.2730   -0.0945 H       1  UNL1        0.0572
     87 H         -13.0528   -0.5486    0.3953 H       1  UNL1        0.0572
     88 H         -11.3430    0.1510   -0.9987 H       1  UNL1        0.0449
     89 H         -12.4925   -0.8920   -1.9828 H       1  UNL1        0.0449
     90 H          -6.6390    0.9379   -0.8314 H       1  UNL1        0.0675
     91 H           0.7981    0.1169    2.1463 H       1  UNL1        0.0624
     92 H           2.3736    0.2269    4.1156 H       1  UNL1        0.0618
     93 H           4.7280    0.6158    3.6899 H       1  UNL1        0.0618
     94 H           5.6041    0.9145    1.4469 H       1  UNL1        0.0625
     95 H          12.6067    0.5563   -1.3068 H       1  UNL1        0.0643
     96 H          15.3961    0.0081   -1.3685 H       1  UNL1        0.0854
     97 H          15.1489   -3.9022    0.0403 H       1  UNL1        0.1889
@<TRIPOS>BOND
     1     1     2    1
     2     2     3   ar
     3     3     4   ar
     4     4     5    1
     5     5     6    1
     6     6     7   ar
     7     7     8   ar
     8     8     9   ar
     9     9    10   ar
    10    10    11    1
    11    11    12    1
    12    12    13   ar
    13    13    14   ar
    14    14    15   ar
    15    15    16    1
    16    16    17   am
    17    17    18    2
    18    17    19   am
    19    19    20    1
    20    20    21   ar
    21    21    22   ar
    22    22    23    1
    23    23    24    1
    24    23    25    1
    25    22    26   ar
    26    26    27   ar
    27    27    28    1
    28    28    29   ar
    29    29    30   ar
    30    30    31   ar
    31    31    32   ar
    32    32    33    1
    33    33    34    1
    34    34    35    1
    35    35    36    1
    36    36    37    1
    37    37    38    1
    38    38    39    1
    39    39    40    1
    40    40    41    1
    41    32    42   ar
    42    15    43   ar
    43    43    44   ar
    44    44    45   ar
    45    45    46   ar
    46    46    47   ar
    47    47    48   ar
    48    10    49   ar
    49     4    50   ar
    50    50    51   ar
    51    51    52   ar
    52    52    53   ar
    53    53    54   ar
    54    54    55   ar
    55    55     2   ar
    56    49     6   ar
    57    55    51   ar
    58    48    12   ar
    59    27    20   ar
    60    42    28   ar
    61    48    43   ar
    62    41    36    1
    63     1    56    1
    64     1    57    1
    65     1    58    1
    66     3    59    1
    67     5    60    1
    68     8    61    1
    69     9    62    1
    70    13    63    1
    71    14    64    1
    72    16    65    1
    73    19    66    1
    74    21    67    1
    75    23    68    1
    76    24    69    1
    77    24    70    1
    78    24    71    1
    79    25    72    1
    80    25    73    1
    81    25    74    1
    82    29    75    1
    83    30    76    1
    84    31    77    1
    85    34    78    1
    86    34    79    1
    87    35    80    1
    88    35    81    1
    89    37    82    1
    90    37    83    1
    91    38    84    1
    92    38    85    1
    93    40    86    1
    94    40    87    1
    95    41    88    1
    96    41    89    1
    97    42    90    1
    98    44    91    1
    99    45    92    1
   100    46    93    1
   101    47    94    1
   102    50    95    1
   103    52    96    1
   104    54    97    1
