
     RDKit          3D

 97104  0  0  0  0  0  0  0  0999 V2000
   12.3438   -4.4395    0.4883 C   0  0  0  0  0  0  0  0  0  0  0  0
   12.3923   -3.0414   -0.0120 C   0  0  0  0  0  0  0  0  0  0  0  0
   11.2402   -2.2837   -0.1749 C   0  0  0  0  0  0  0  0  0  0  0  0
   11.2761   -1.0067   -0.6310 C   0  0  0  0  0  0  0  0  0  0  0  0
   10.1328   -0.2246   -0.8085 N   0  0  0  0  0  0  0  0  0  0  0  0
    8.7763   -0.5939   -0.6258 C   0  0  0  0  0  0  0  0  0  0  0  0
    8.3661   -1.8038   -0.2397 N   0  0  0  0  0  0  0  0  0  0  0  0
    7.0733   -2.1439   -0.0725 C   0  0  0  0  0  0  0  0  0  0  0  0
    6.1066   -1.1735   -0.3175 C   0  0  0  0  0  0  0  0  0  0  0  0
    6.5029    0.0834   -0.7167 C   0  0  0  0  0  0  0  0  0  0  0  0
    5.5380    1.0557   -0.9684 O   0  0  0  0  0  0  0  0  0  0  0  0
    4.1926    0.8386   -0.7619 C   0  0  0  0  0  0  0  0  0  0  0  0
    3.2998    0.7940   -1.8338 C   0  0  0  0  0  0  0  0  0  0  0  0
    1.9494    0.5756   -1.6111 C   0  0  0  0  0  0  0  0  0  0  0  0
    1.4517    0.3986   -0.3466 C   0  0  0  0  0  0  0  0  0  0  0  0
    0.0797    0.1752   -0.1547 N   0  0  0  0  0  0  0  0  0  0  0  0
   -0.8617    1.2341    0.0147 C   0  0  0  0  0  0  0  0  0  0  0  0
   -0.4186    2.3914   -0.0155 O   0  0  0  0  0  0  0  0  0  0  0  0
   -2.2365    1.0279    0.2091 N   0  0  0  0  0  0  0  0  0  0  0  0
   -3.2149    2.0480    0.3673 C   0  0  0  0  0  0  0  0  0  0  0  0
   -3.0408    3.4095    0.3295 C   0  0  0  0  0  0  0  0  0  0  0  0
   -4.2470    4.0478    0.5239 C   0  0  0  0  0  0  0  0  0  0  0  0
   -4.4555    5.5157    0.5505 C   0  0  0  0  0  0  0  0  0  0  0  0
   -5.2742    5.9136    1.7312 C   0  0  0  0  0  0  0  0  0  0  0  0
   -5.0848    5.9819   -0.7627 C   0  0  0  0  0  0  0  0  0  0  0  0
   -5.1411    3.0587    0.6783 N   0  0  0  0  0  0  0  0  0  0  0  0
   -4.5415    1.8857    0.5877 N   0  0  0  0  0  0  0  0  0  0  0  0
   -5.1300    0.5981    0.7015 C   0  0  0  0  0  0  0  0  0  0  0  0
   -4.6284   -0.3308    1.6154 C   0  0  0  0  0  0  0  0  0  0  0  0
   -5.1811   -1.5861    1.7366 C   0  0  0  0  0  0  0  0  0  0  0  0
   -6.2402   -1.8879    0.9281 C   0  0  0  0  0  0  0  0  0  0  0  0
   -6.7577   -0.9820    0.0120 C   0  0  0  0  0  0  0  0  0  0  0  0
   -7.8286   -1.3946   -0.7519 O   0  0  0  0  0  0  0  0  0  0  0  0
   -8.4899   -0.6373   -1.7144 C   0  0  0  0  0  0  0  0  0  0  0  0
   -9.6157   -1.3473   -2.3861 C   0  0  0  0  0  0  0  0  0  0  0  0
  -10.6671   -1.8010   -1.5542 N   0  0  0  0  0  0  0  0  0  0  0  0
  -10.3737   -2.8585   -0.6631 C   0  0  0  0  0  0  0  0  0  0  0  0
  -10.4855   -2.4973    0.7928 C   0  0  0  0  0  0  0  0  0  0  0  0
  -11.4230   -1.5343    1.0823 O   0  0  0  0  0  0  0  0  0  0  0  0
  -12.3599   -1.3578    0.0756 C   0  0  0  0  0  0  0  0  0  0  0  0
  -11.6898   -0.8909   -1.2118 C   0  0  0  0  0  0  0  0  0  0  0  0
   -6.2013    0.2693   -0.1043 C   0  0  0  0  0  0  0  0  0  0  0  0
    2.3181    0.4413    0.7162 C   0  0  0  0  0  0  0  0  0  0  0  0
    1.8544    0.2868    2.0039 C   0  0  0  0  0  0  0  0  0  0  0  0
    2.7062    0.3454    3.0944 C   0  0  0  0  0  0  0  0  0  0  0  0
    4.0478    0.5653    2.8631 C   0  0  0  0  0  0  0  0  0  0  0  0
    4.5554    0.7253    1.5917 C   0  0  0  0  0  0  0  0  0  0  0  0
    3.6910    0.6624    0.5094 C   0  0  0  0  0  0  0  0  0  0  0  0
    7.8093    0.3441   -0.8607 N   0  0  0  0  0  0  0  0  0  0  0  0
   12.5108   -0.4658   -0.9357 C   0  0  0  0  0  0  0  0  0  0  0  0
   13.6615   -1.1881   -0.7852 C   0  0  0  0  0  0  0  0  0  0  0  0
   14.9867   -0.9110   -1.0051 C   0  0  0  0  0  0  0  0  0  0  0  0
   15.6813   -1.9998   -0.6830 N   0  0  0  0  0  0  0  0  0  0  0  0
   14.8734   -2.9490   -0.2725 N   0  0  0  0  0  0  0  0  0  0  0  0
   13.6023   -2.4841   -0.3204 C   0  0  0  0  0  0  0  0  0  0  0  0
   12.4283   -4.4729    1.5947 H   0  0  0  0  0  0  0  0  0  0  0  0
   11.4154   -4.9436    0.1475 H   0  0  0  0  0  0  0  0  0  0  0  0
   13.2301   -4.9651    0.0786 H   0  0  0  0  0  0  0  0  0  0  0  0
   10.3264   -2.7938    0.0920 H   0  0  0  0  0  0  0  0  0  0  0  0
   10.2855    0.8029   -1.1260 H   0  0  0  0  0  0  0  0  0  0  0  0
    6.7489   -3.1255    0.2400 H   0  0  0  0  0  0  0  0  0  0  0  0
    5.0768   -1.4583   -0.1859 H   0  0  0  0  0  0  0  0  0  0  0  0
    3.7244    0.9381   -2.8129 H   0  0  0  0  0  0  0  0  0  0  0  0
    1.2970    0.5492   -2.4734 H   0  0  0  0  0  0  0  0  0  0  0  0
   -0.2704   -0.8074   -0.1349 H   0  0  0  0  0  0  0  0  0  0  0  0
   -2.5597    0.0170    0.2272 H   0  0  0  0  0  0  0  0  0  0  0  0
   -2.1116    3.9308    0.1724 H   0  0  0  0  0  0  0  0  0  0  0  0
   -3.4509    5.9965    0.5769 H   0  0  0  0  0  0  0  0  0  0  0  0
   -6.3399    6.0235    1.4455 H   0  0  0  0  0  0  0  0  0  0  0  0
   -4.8514    6.8417    2.1615 H   0  0  0  0  0  0  0  0  0  0  0  0
   -5.1848    5.1188    2.5042 H   0  0  0  0  0  0  0  0  0  0  0  0
   -5.7090    6.8774   -0.5808 H   0  0  0  0  0  0  0  0  0  0  0  0
   -4.2865    6.3012   -1.4919 H   0  0  0  0  0  0  0  0  0  0  0  0
   -5.6166    5.1581   -1.2783 H   0  0  0  0  0  0  0  0  0  0  0  0
   -3.7943   -0.0739    2.2500 H   0  0  0  0  0  0  0  0  0  0  0  0
   -4.8201   -2.3296    2.4301 H   0  0  0  0  0  0  0  0  0  0  0  0
   -6.6867   -2.8691    1.0084 H   0  0  0  0  0  0  0  0  0  0  0  0
   -8.8488    0.3484   -1.3466 H   0  0  0  0  0  0  0  0  0  0  0  0
   -7.7420   -0.3896   -2.5110 H   0  0  0  0  0  0  0  0  0  0  0  0
  -10.0669   -0.6084   -3.1106 H   0  0  0  0  0  0  0  0  0  0  0  0
   -9.1936   -2.1753   -2.9960 H   0  0  0  0  0  0  0  0  0  0  0  0
  -11.0004   -3.7712   -0.8342 H   0  0  0  0  0  0  0  0  0  0  0  0
   -9.3164   -3.1926   -0.8198 H   0  0  0  0  0  0  0  0  0  0  0  0
   -9.4834   -2.2544    1.2351 H   0  0  0  0  0  0  0  0  0  0  0  0
  -10.7760   -3.4430    1.3433 H   0  0  0  0  0  0  0  0  0  0  0  0
  -12.9829   -2.2730   -0.0945 H   0  0  0  0  0  0  0  0  0  0  0  0
  -13.0528   -0.5486    0.3953 H   0  0  0  0  0  0  0  0  0  0  0  0
  -11.3430    0.1510   -0.9987 H   0  0  0  0  0  0  0  0  0  0  0  0
  -12.4925   -0.8920   -1.9828 H   0  0  0  0  0  0  0  0  0  0  0  0
   -6.6390    0.9379   -0.8314 H   0  0  0  0  0  0  0  0  0  0  0  0
    0.7981    0.1169    2.1463 H   0  0  0  0  0  0  0  0  0  0  0  0
    2.3736    0.2269    4.1156 H   0  0  0  0  0  0  0  0  0  0  0  0
    4.7280    0.6158    3.6899 H   0  0  0  0  0  0  0  0  0  0  0  0
    5.6041    0.9145    1.4469 H   0  0  0  0  0  0  0  0  0  0  0  0
   12.6067    0.5563   -1.3068 H   0  0  0  0  0  0  0  0  0  0  0  0
   15.3961    0.0081   -1.3685 H   0  0  0  0  0  0  0  0  0  0  0  0
   15.1489   -3.9022    0.0403 H   0  0  0  0  0  0  0  0  0  0  0  0
  1  2  1  0
  2  3  2  0
  3  4  1  0
  4  5  1  0
  5  6  1  0
  6  7  2  0
  7  8  1  0
  8  9  2  0
  9 10  1  0
 10 11  1  0
 11 12  1  0
 12 13  2  0
 13 14  1  0
 14 15  2  0
 15 16  1  0
 16 17  1  0
 17 18  2  0
 17 19  1  0
 19 20  1  0
 20 21  2  0
 21 22  1  0
 22 23  1  0
 23 24  1  0
 23 25  1  0
 22 26  2  0
 26 27  1  0
 27 28  1  0
 28 29  2  0
 29 30  1  0
 30 31  2  0
 31 32  1  0
 32 33  1  0
 33 34  1  0
 34 35  1  0
 35 36  1  0
 36 37  1  0
 37 38  1  0
 38 39  1  0
 39 40  1  0
 40 41  1  0
 32 42  2  0
 15 43  1  0
 43 44  2  0
 44 45  1  0
 45 46  2  0
 46 47  1  0
 47 48  2  0
 10 49  2  0
  4 50  2  0
 50 51  1  0
 51 52  1  0
 52 53  2  0
 53 54  1  0
 54 55  1  0
 55  2  1  0
 49  6  1  0
 55 51  2  0
 48 12  1  0
 27 20  1  0
 42 28  1  0
 48 43  1  0
 41 36  1  0
  1 56  1  0
  1 57  1  0
  1 58  1  0
  3 59  1  0
  5 60  1  0
  8 61  1  0
  9 62  1  0
 13 63  1  0
 14 64  1  0
 16 65  1  0
 19 66  1  0
 21 67  1  0
 23 68  1  0
 24 69  1  0
 24 70  1  0
 24 71  1  0
 25 72  1  0
 25 73  1  0
 25 74  1  0
 29 75  1  0
 30 76  1  0
 31 77  1  0
 34 78  1  0
 34 79  1  0
 35 80  1  0
 35 81  1  0
 37 82  1  0
 37 83  1  0
 38 84  1  0
 38 85  1  0
 40 86  1  0
 40 87  1  0
 41 88  1  0
 41 89  1  0
 42 90  1  0
 44 91  1  0
 45 92  1  0
 46 93  1  0
 47 94  1  0
 50 95  1  0
 52 96  1  0
 54 97  1  0
M  END
$$$$
