@<TRIPOS>MOLECULE
*****
 61 65 0 0 0
SMALL
GASTEIGER

@<TRIPOS>ATOM
      1 C           6.7700    0.1845    3.2335 C.1     1  UNL1       -0.1158
      2 C           7.3689    0.7701    2.3557 C.1     1  UNL1       -0.0647
      3 C           8.0925    1.4845    1.3192 C.3     1  UNL1        0.1513
      4 O           7.9383    0.9456    0.0378 O.3     1  UNL1       -0.4624
      5 C           6.6882    0.8579   -0.5288 C.ar    1  UNL1        0.2344
      6 C           6.5517    0.3274   -1.8086 C.ar    1  UNL1        0.0899
      7 N           5.3491    0.2327   -2.3790 N.ar    1  UNL1       -0.2459
      8 C           4.2083    0.6373   -1.7638 C.ar    1  UNL1        0.1172
      9 C           2.9310    0.5335   -2.4450 C.2     1  UNL1        0.1507
     10 F           2.9171    0.0674   -3.7153 F       1  UNL1       -0.2032
     11 C           1.7810    0.8597   -1.9124 C.2     1  UNL1       -0.0157
     12 C           0.5019    0.7405   -2.6464 C.ar    1  UNL1       -0.0036
     13 C           0.3782    1.0759   -3.9721 C.ar    1  UNL1        0.0379
     14 N          -0.8191    0.9487   -4.5604 N.ar    1  UNL1       -0.2267
     15 C          -1.9181    0.5047   -3.9123 C.ar    1  UNL1        0.2187
     16 F          -3.0700    0.4215   -4.6175 F       1  UNL1       -0.1835
     17 C          -1.8273    0.1583   -2.5795 C.ar    1  UNL1        0.0349
     18 C          -3.0441   -0.3186   -1.8713 C.3     1  UNL1        0.0950
     19 C          -4.0589    0.8277   -2.0162 C.3     1  UNL1       -0.0351
     20 N          -3.4865   -1.4869   -2.5667 N.2     1  UNL1       -0.2520
     21 C          -4.3651   -2.3075   -2.1370 C.2     1  UNL1        0.1485
     22 N          -4.7641   -3.4270   -2.8477 N.pl3   1  UNL1       -0.3380
     23 S          -5.0325   -1.9322   -0.5306 S.3     1  UNL1       -0.0746
     24 C          -3.5710   -1.3021    0.4079 C.3     1  UNL1        0.1054
     25 C          -3.7091   -1.2393    1.8464 C.2     1  UNL1        0.2326
     26 O          -4.7188   -1.9583    2.3010 O.2     1  UNL1       -0.2741
     27 N          -2.9558   -0.5528    2.7944 N.am    1  UNL1       -0.2960
     28 C          -3.3367   -0.6738    4.2147 C.3     1  UNL1        0.0382
     29 C          -2.1092   -1.2937    4.8738 C.3     1  UNL1        0.0635
     30 O          -1.0112   -0.4986    4.6755 O.3     1  UNL1       -0.3767
     31 C          -1.2165    0.6111    3.9047 C.3     1  UNL1        0.0635
     32 C          -1.8314    0.2696    2.5376 C.3     1  UNL1        0.0382
     33 C          -2.2268   -1.8932   -0.0700 C.3     1  UNL1       -0.0220
     34 C          -2.6875   -0.5048   -0.4193 C.3     1  UNL1        0.0135
     35 C          -0.6071    0.2841   -1.9680 C.ar    1  UNL1       -0.0433
     36 C           4.3603    1.1593   -0.4977 C.ar    1  UNL1        0.0596
     37 N           5.5804    1.2577    0.0851 N.ar    1  UNL1       -0.2178
     38 H           6.2584   -0.3399    4.0036 H       1  UNL1        0.1229
     39 H           9.1784    1.4362    1.6102 H       1  UNL1        0.0837
     40 H           7.7361    2.5455    1.3743 H       1  UNL1        0.0837
     41 H           7.4666    0.0058   -2.2996 H       1  UNL1        0.0884
     42 H           1.7576    1.2362   -0.8810 H       1  UNL1        0.0653
     43 H           1.2552    1.4331   -4.4963 H       1  UNL1        0.0836
     44 H          -4.7179    0.9076   -1.1349 H       1  UNL1        0.0256
     45 H          -4.6318    0.6846   -2.9561 H       1  UNL1        0.0256
     46 H          -3.5381    1.8109   -2.1100 H       1  UNL1        0.0256
     47 H          -5.4891   -4.0687   -2.4670 H       1  UNL1        0.1442
     48 H          -4.3569   -3.6632   -3.7779 H       1  UNL1        0.1442
     49 H          -3.4386    0.3380    4.6355 H       1  UNL1        0.0487
     50 H          -4.2178   -1.2929    4.3663 H       1  UNL1        0.0487
     51 H          -2.3043   -1.5513    5.9368 H       1  UNL1        0.0575
     52 H          -1.9061   -2.2889    4.3857 H       1  UNL1        0.0575
     53 H          -0.1960    1.0186    3.6366 H       1  UNL1        0.0575
     54 H          -1.7510    1.4244    4.3780 H       1  UNL1        0.0575
     55 H          -1.0438   -0.1295    1.8973 H       1  UNL1        0.0487
     56 H          -2.2246    1.2696    2.1866 H       1  UNL1        0.0487
     57 H          -2.2983   -2.6874   -0.8496 H       1  UNL1        0.0287
     58 H          -1.3966   -1.9900    0.6082 H       1  UNL1        0.0287
     59 H          -2.2020    0.3975    0.0002 H       1  UNL1        0.0346
     60 H          -0.4830    0.0211   -0.9347 H       1  UNL1        0.0629
     61 H           3.4935    1.5079    0.0660 H       1  UNL1        0.0853
@<TRIPOS>BOND
     1     1     2    3
     2     2     3    1
     3     3     4    1
     4     4     5    1
     5     5     6   ar
     6     6     7   ar
     7     7     8   ar
     8     8     9    1
     9     9    10    1
    10     9    11    2
    11    11    12    1
    12    12    13   ar
    13    13    14   ar
    14    14    15   ar
    15    15    16    1
    16    15    17   ar
    17    17    18    1
    18    18    19    1
    19    18    20    1
    20    20    21    2
    21    21    22    1
    22    21    23    1
    23    23    24    1
    24    24    25    1
    25    25    26    2
    26    25    27   am
    27    27    28    1
    28    28    29    1
    29    29    30    1
    30    30    31    1
    31    31    32    1
    32    24    33    1
    33    33    34    1
    34    17    35   ar
    35     8    36   ar
    36    36    37   ar
    37    37     5   ar
    38    35    12   ar
    39    34    18    1
    40    34    24    1
    41    32    27    1
    42     1    38    1
    43     3    39    1
    44     3    40    1
    45     6    41    1
    46    11    42    1
    47    13    43    1
    48    19    44    1
    49    19    45    1
    50    19    46    1
    51    22    47    1
    52    22    48    1
    53    28    49    1
    54    28    50    1
    55    29    51    1
    56    29    52    1
    57    31    53    1
    58    31    54    1
    59    32    55    1
    60    32    56    1
    61    33    57    1
    62    33    58    1
    63    34    59    1
    64    35    60    1
    65    36    61    1
