@<TRIPOS>MOLECULE
*****
 43 46 0 0 0
SMALL
GASTEIGER

@<TRIPOS>ATOM
      1 C          -7.2306   -0.4590    1.0784 C.3     1  UNL1       -0.0307
      2 C          -7.2426   -0.4862   -0.4312 C.3     1  UNL1        0.0868
      3 O          -6.1931   -1.2464   -0.9530 O.3     1  UNL1       -0.4922
      4 C          -4.8776   -0.9025   -0.7274 C.ar    1  UNL1        0.1205
      5 C          -4.5450    0.1968   -0.0024 C.ar    1  UNL1       -0.0193
      6 C          -3.2103    0.4937    0.1948 C.ar    1  UNL1       -0.0491
      7 C          -2.1828   -0.2736   -0.3104 C.ar    1  UNL1        0.0021
      8 C          -0.8057    0.1375   -0.0378 C.ar    1  UNL1        0.0898
      9 C           0.2864   -0.5668   -0.5013 C.ar    1  UNL1        0.0422
     10 N           1.5522   -0.1869   -0.2495 N.ar    1  UNL1       -0.2457
     11 C           2.7813   -0.6529   -0.5556 C.ar    1  UNL1        0.3559
     12 O           2.9802   -1.6745   -1.2294 O.2     1  UNL1       -0.2440
     13 N           3.7204    0.1455   -0.0280 N.ar    1  UNL1       -0.1795
     14 C           5.1458    0.0373   -0.0979 C.ar    1  UNL1        0.0707
     15 C           5.9093    0.7126    0.8344 C.ar    1  UNL1       -0.0361
     16 C           7.2870    0.6741    0.8543 C.ar    1  UNL1       -0.0598
     17 C           7.9263   -0.0770   -0.1063 C.ar    1  UNL1       -0.0616
     18 C           7.1814   -0.7647   -1.0541 C.ar    1  UNL1       -0.0598
     19 C           5.7854   -0.7036   -1.0450 C.ar    1  UNL1       -0.0361
     20 N           3.0531    1.1010    0.6016 N.ar    1  UNL1       -0.1403
     21 C           1.7398    0.9108    0.4748 C.ar    1  UNL1        0.2021
     22 C           0.6935    1.6807    0.9817 C.ar    1  UNL1        0.1620
     23 N           0.9426    2.8407    1.7471 N.pl3   1  UNL1       -0.3402
     24 N          -0.5433    1.2393    0.6892 N.ar    1  UNL1       -0.2272
     25 C          -2.5274   -1.3699   -1.0339 C.ar    1  UNL1       -0.0491
     26 C          -3.8483   -1.6889   -1.2454 C.ar    1  UNL1       -0.0193
     27 H          -6.3229   -0.9835    1.4474 H       1  UNL1        0.0262
     28 H          -8.1356   -1.0394    1.4119 H       1  UNL1        0.0262
     29 H          -7.3718    0.5560    1.4710 H       1  UNL1        0.0262
     30 H          -7.0688    0.5758   -0.7736 H       1  UNL1        0.0694
     31 H          -8.2386   -0.8114   -0.8054 H       1  UNL1        0.0694
     32 H          -5.2714    0.8729    0.4312 H       1  UNL1        0.0654
     33 H          -2.9495    1.3856    0.7834 H       1  UNL1        0.0625
     34 H           0.1596   -1.4545   -1.0871 H       1  UNL1        0.0837
     35 H           5.4343    1.3174    1.6098 H       1  UNL1        0.0639
     36 H           7.8900    1.2029    1.5846 H       1  UNL1        0.0618
     37 H           9.0104   -0.1173   -0.1039 H       1  UNL1        0.0618
     38 H           7.6877   -1.3486   -1.8004 H       1  UNL1        0.0618
     39 H           5.2086   -1.2445   -1.7900 H       1  UNL1        0.0639
     40 H           1.1676    2.7581    2.7501 H       1  UNL1        0.1438
     41 H           0.8984    3.7672    1.2988 H       1  UNL1        0.1438
     42 H          -1.7582   -1.9949   -1.4457 H       1  UNL1        0.0625
     43 H          -4.1178   -2.5590   -1.8197 H       1  UNL1        0.0654
@<TRIPOS>BOND
     1     1     2    1
     2     2     3    1
     3     3     4    1
     4     4     5   ar
     5     5     6   ar
     6     6     7   ar
     7     7     8    1
     8     8     9   ar
     9     9    10   ar
    10    10    11   ar
    11    11    12    2
    12    11    13   ar
    13    13    14    1
    14    14    15   ar
    15    15    16   ar
    16    16    17   ar
    17    17    18   ar
    18    18    19   ar
    19    13    20   ar
    20    20    21   ar
    21    21    22   ar
    22    22    23    1
    23    22    24   ar
    24     7    25   ar
    25    25    26   ar
    26    26     4   ar
    27    24     8   ar
    28    21    10   ar
    29    19    14   ar
    30     1    27    1
    31     1    28    1
    32     1    29    1
    33     2    30    1
    34     2    31    1
    35     5    32    1
    36     6    33    1
    37     9    34    1
    38    15    35    1
    39    16    36    1
    40    17    37    1
    41    18    38    1
    42    19    39    1
    43    23    40    1
    44    23    41    1
    45    25    42    1
    46    26    43    1
