@<TRIPOS>MOLECULE
*****
 63 66 0 0 0
SMALL
GASTEIGER

@<TRIPOS>ATOM
      1 C          -2.9521    4.2917    0.0165 C.3     1  UNL1       -0.0649
      2 C          -1.9281    3.6450   -0.8825 C.3     1  UNL1       -0.0504
      3 C          -2.6108    2.9638   -2.0585 C.3     1  UNL1       -0.0068
      4 C          -3.5497    1.9118   -1.5729 C.ar    1  UNL1        0.0891
      5 N          -4.8881    1.9290   -1.4812 N.ar    1  UNL1       -0.1736
      6 N          -5.3331    0.7943   -0.9925 N.ar    1  UNL1       -0.2598
      7 C          -6.6948    0.3700   -0.7216 C.3     1  UNL1        0.0311
      8 C          -4.2451   -0.0006   -0.7536 C.ar    1  UNL1        0.1513
      9 C          -4.1160   -1.2717   -0.2531 C.ar    1  UNL1        0.2775
     10 O          -5.1244   -1.9197    0.0821 O.2     1  UNL1       -0.2655
     11 N          -2.8472   -1.7750   -0.1460 N.ar    1  UNL1       -0.3051
     12 C          -1.7419   -1.1290   -0.4878 C.ar    1  UNL1        0.1452
     13 C          -0.3957   -1.6798   -0.3719 C.ar    1  UNL1        0.0608
     14 C           0.7015   -0.8983   -0.7844 C.ar    1  UNL1       -0.0212
     15 C           2.0002   -1.3457   -0.7138 C.ar    1  UNL1        0.1064
     16 S           3.2921   -0.3332   -1.2403 S.O2    1  UNL1        0.0610
     17 O           2.8295    0.5040   -2.4228 O.2     1  UNL1       -0.1528
     18 O           4.3651   -1.2451   -1.8275 O.2     1  UNL1       -0.1528
     19 N           4.0202    0.6216   -0.0659 N.3     1  UNL1       -0.1741
     20 C           3.1224    1.5448    0.5363 C.3     1  UNL1        0.0333
     21 C           3.5520    1.7437    1.9930 C.3     1  UNL1        0.0131
     22 N           4.9496    2.1471    2.0394 N.3     1  UNL1       -0.3028
     23 C           5.1624    3.3205    1.1752 C.3     1  UNL1       -0.0127
     24 C           5.7909    1.0984    1.5268 C.3     1  UNL1        0.0131
     25 C           4.9913    0.0228    0.7770 C.3     1  UNL1        0.0333
     26 C           2.2650   -2.5989   -0.2255 C.ar    1  UNL1       -0.0319
     27 C           1.2011   -3.3569    0.1751 C.ar    1  UNL1       -0.0174
     28 C          -0.1416   -2.9202    0.1123 C.ar    1  UNL1        0.1312
     29 O          -1.1304   -3.7885    0.5516 O.3     1  UNL1       -0.4915
     30 C          -0.7785   -5.0590    1.0394 C.3     1  UNL1        0.0868
     31 C          -1.9839   -5.8600    1.4713 C.3     1  UNL1       -0.0307
     32 N          -1.8861    0.1290   -0.9813 N.ar    1  UNL1       -0.2254
     33 C          -3.0931    0.6670   -1.1069 C.ar    1  UNL1        0.1192
     34 H          -3.6987    4.8493   -0.5789 H       1  UNL1        0.0230
     35 H          -2.3993    5.0204    0.6602 H       1  UNL1        0.0230
     36 H          -3.4573    3.5879    0.6929 H       1  UNL1        0.0230
     37 H          -1.3362    2.9335   -0.2862 H       1  UNL1        0.0266
     38 H          -1.3025    4.4501   -1.2977 H       1  UNL1        0.0266
     39 H          -3.0917    3.7313   -2.6657 H       1  UNL1        0.0329
     40 H          -1.8233    2.4760   -2.6482 H       1  UNL1        0.0329
     41 H          -6.7691   -0.2578    0.1954 H       1  UNL1        0.0473
     42 H          -7.0741   -0.2790   -1.5606 H       1  UNL1        0.0473
     43 H          -7.3399    1.2438   -0.5575 H       1  UNL1        0.0473
     44 H          -2.8305   -2.7432    0.2400 H       1  UNL1        0.1704
     45 H           0.4560    0.0905   -1.1653 H       1  UNL1        0.0645
     46 H           2.0781    1.1728    0.5716 H       1  UNL1        0.0456
     47 H           3.0838    2.5146    0.0033 H       1  UNL1        0.0456
     48 H           3.4926    0.7425    2.4641 H       1  UNL1        0.0439
     49 H           2.8962    2.4855    2.4654 H       1  UNL1        0.0439
     50 H           5.1368    2.9981    0.1151 H       1  UNL1        0.0391
     51 H           6.1891    3.6766    1.3937 H       1  UNL1        0.0391
     52 H           4.3898    4.0707    1.4243 H       1  UNL1        0.0391
     53 H           6.2823    0.5824    2.3703 H       1  UNL1        0.0439
     54 H           6.5862    1.5041    0.8727 H       1  UNL1        0.0439
     55 H           5.7575   -0.4755    0.1125 H       1  UNL1        0.0456
     56 H           4.5754   -0.6850    1.5007 H       1  UNL1        0.0456
     57 H           3.2979   -2.9635   -0.1648 H       1  UNL1        0.0638
     58 H           1.3990   -4.3459    0.5619 H       1  UNL1        0.0655
     59 H          -0.1308   -4.9541    1.9379 H       1  UNL1        0.0694
     60 H          -0.2711   -5.6752    0.2508 H       1  UNL1        0.0694
     61 H          -1.7985   -6.9476    1.3744 H       1  UNL1        0.0262
     62 H          -2.2354   -5.6872    2.5529 H       1  UNL1        0.0262
     63 H          -2.8648   -5.6386    0.8420 H       1  UNL1        0.0262
@<TRIPOS>BOND
     1     1     2    1
     2     2     3    1
     3     3     4    1
     4     4     5   ar
     5     5     6   ar
     6     6     7    1
     7     6     8   ar
     8     8     9   ar
     9     9    10    2
    10     9    11   ar
    11    11    12   ar
    12    12    13    1
    13    13    14   ar
    14    14    15   ar
    15    15    16    1
    16    16    17    2
    17    16    18    2
    18    16    19    1
    19    19    20    1
    20    20    21    1
    21    21    22    1
    22    22    23    1
    23    22    24    1
    24    24    25    1
    25    15    26   ar
    26    26    27   ar
    27    27    28   ar
    28    28    29    1
    29    29    30    1
    30    30    31    1
    31    12    32   ar
    32    32    33   ar
    33    33     4   ar
    34    33     8   ar
    35    28    13   ar
    36    25    19    1
    37     1    34    1
    38     1    35    1
    39     1    36    1
    40     2    37    1
    41     2    38    1
    42     3    39    1
    43     3    40    1
    44     7    41    1
    45     7    42    1
    46     7    43    1
    47    11    44    1
    48    14    45    1
    49    20    46    1
    50    20    47    1
    51    21    48    1
    52    21    49    1
    53    23    50    1
    54    23    51    1
    55    23    52    1
    56    24    53    1
    57    24    54    1
    58    25    55    1
    59    25    56    1
    60    26    57    1
    61    27    58    1
    62    30    59    1
    63    30    60    1
    64    31    61    1
    65    31    62    1
    66    31    63    1
