
     RDKit          3D

 50 52  0  0  0  0  0  0  0  0999 V2000
    5.4351    0.9763    0.8342 C   0  0  0  0  0  0  0  0  0  0  0  0
    4.2476    0.3259    0.2666 N   0  0  0  0  0  0  0  0  0  0  0  0
    3.8740   -0.8378    1.0046 C   0  0  0  0  0  0  0  0  0  0  0  0
    2.4968   -1.3089    0.5896 C   0  0  0  0  0  0  0  0  0  0  0  0
    1.5081   -0.3553    0.8160 O   0  0  0  0  0  0  0  0  0  0  0  0
    0.1793   -0.5767    0.5318 C   0  0  0  0  0  0  0  0  0  0  0  0
   -0.1765   -1.8068   -0.0152 C   0  0  0  0  0  0  0  0  0  0  0  0
   -1.4929   -2.0834   -0.3228 C   0  0  0  0  0  0  0  0  0  0  0  0
   -2.4401   -1.1111   -0.0729 C   0  0  0  0  0  0  0  0  0  0  0  0
   -3.8379   -1.3992   -0.4211 C   0  0  0  0  0  0  0  0  0  0  0  0
   -4.7084   -0.4201   -0.8323 C   0  0  0  0  0  0  0  0  0  0  0  0
   -6.0245   -0.6859   -1.1529 C   0  0  0  0  0  0  0  0  0  0  0  0
   -6.5351   -1.9563   -1.0761 C   0  0  0  0  0  0  0  0  0  0  0  0
   -5.6573   -2.9713   -0.6581 C   0  0  0  0  0  0  0  0  0  0  0  0
   -4.3525   -2.6719   -0.3462 C   0  0  0  0  0  0  0  0  0  0  0  0
   -2.0851    0.1056    0.4700 C   0  0  0  0  0  0  0  0  0  0  0  0
   -0.7757    0.3872    0.7776 C   0  0  0  0  0  0  0  0  0  0  0  0
   -0.3399    1.6891    1.3321 C   0  0  0  0  0  0  0  0  0  0  0  0
   -1.1539    2.7967    0.8190 C   0  0  0  0  0  0  0  0  0  0  0  0
   -1.0076    3.4492   -0.3520 C   0  0  0  0  0  0  0  0  0  0  0  0
   -1.8568    4.4414   -0.6613 C   0  0  0  0  0  0  0  0  0  0  0  0
   -2.8536    4.7651    0.2262 C   0  0  0  0  0  0  0  0  0  0  0  0
   -2.5348    3.5756    1.5590 S   0  0  0  0  0  0  0  0  0  0  0  0
    4.4946    0.0717   -1.1283 C   0  0  0  0  0  0  0  0  0  0  0  0
    5.5815   -0.9056   -1.3799 C   0  0  0  0  0  0  0  0  0  0  0  0
    5.7717   -1.3228   -2.5773 O   0  0  0  0  0  0  0  0  0  0  0  0
    6.3937   -1.3850   -0.3875 O   0  0  0  0  0  0  0  0  0  0  0  0
    6.2740    0.8810    0.1401 H   0  0  0  0  0  0  0  0  0  0  0  0
    5.6738    0.4551    1.8055 H   0  0  0  0  0  0  0  0  0  0  0  0
    5.2368    2.0209    1.1272 H   0  0  0  0  0  0  0  0  0  0  0  0
    3.8505   -0.5785    2.0939 H   0  0  0  0  0  0  0  0  0  0  0  0
    4.5455   -1.7303    0.8345 H   0  0  0  0  0  0  0  0  0  0  0  0
    2.5549   -1.6086   -0.4733 H   0  0  0  0  0  0  0  0  0  0  0  0
    2.2565   -2.2708    1.1341 H   0  0  0  0  0  0  0  0  0  0  0  0
    0.5881   -2.5687   -0.2068 H   0  0  0  0  0  0  0  0  0  0  0  0
   -1.8167   -3.0348   -0.7519 H   0  0  0  0  0  0  0  0  0  0  0  0
   -4.3636    0.6098   -0.9103 H   0  0  0  0  0  0  0  0  0  0  0  0
   -6.7013    0.1193   -1.4841 H   0  0  0  0  0  0  0  0  0  0  0  0
   -7.5662   -2.1778   -1.3240 H   0  0  0  0  0  0  0  0  0  0  0  0
   -6.0449   -3.9742   -0.5924 H   0  0  0  0  0  0  0  0  0  0  0  0
   -3.6781   -3.4719   -0.0215 H   0  0  0  0  0  0  0  0  0  0  0  0
   -2.8681    0.8447    0.6513 H   0  0  0  0  0  0  0  0  0  0  0  0
   -0.4339    1.6412    2.4309 H   0  0  0  0  0  0  0  0  0  0  0  0
    0.6978    1.8661    1.0123 H   0  0  0  0  0  0  0  0  0  0  0  0
   -0.1747    3.1641   -1.0691 H   0  0  0  0  0  0  0  0  0  0  0  0
   -1.8087    5.0326   -1.6100 H   0  0  0  0  0  0  0  0  0  0  0  0
   -3.6517    5.5053    0.2226 H   0  0  0  0  0  0  0  0  0  0  0  0
    3.5649   -0.2807   -1.6158 H   0  0  0  0  0  0  0  0  0  0  0  0
    4.8299    1.0531   -1.5702 H   0  0  0  0  0  0  0  0  0  0  0  0
    6.8855   -2.2826   -0.4529 H   0  0  0  0  0  0  0  0  0  0  0  0
  1  2  1  0
  2  3  1  0
  3  4  1  0
  4  5  1  0
  5  6  1  0
  6  7  2  0
  7  8  1  0
  8  9  2  0
  9 10  1  0
 10 11  2  0
 11 12  1  0
 12 13  2  0
 13 14  1  0
 14 15  2  0
  9 16  1  0
 16 17  2  0
 17 18  1  0
 18 19  1  0
 19 20  2  0
 20 21  1  0
 21 22  2  0
 22 23  1  0
  2 24  1  0
 24 25  1  0
 25 26  2  0
 25 27  1  0
 17  6  1  0
 23 19  1  0
 15 10  1  0
  1 28  1  0
  1 29  1  0
  1 30  1  0
  3 31  1  0
  3 32  1  0
  4 33  1  0
  4 34  1  0
  7 35  1  0
  8 36  1  0
 11 37  1  0
 12 38  1  0
 13 39  1  0
 14 40  1  0
 15 41  1  0
 16 42  1  0
 18 43  1  0
 18 44  1  0
 20 45  1  0
 21 46  1  0
 22 47  1  0
 24 48  1  0
 24 49  1  0
 27 50  1  0
M  END
$$$$
