@<TRIPOS>MOLECULE
*****
 18 17 0 0 0
SMALL
GASTEIGER

@<TRIPOS>ATOM
      1 CB         -1.7599   -1.1981    0.6221 C.3     1  ALA1       -0.0362
      2 CA         -0.9672   -0.1847   -0.1257 C.3     1  ALA1        0.1173
      3 N           0.4256   -0.1134    0.2104 N.am    1  ALA1       -0.3028
      4 C           1.3798   -0.3360   -0.8492 C.2     0  UNK0        0.2105
      5 C           2.8273   -0.2681   -0.5290 C.3     0  UNK0        0.0122
      6 O           1.0244   -0.5809   -2.0124 O.2     0  UNK0       -0.2761
      7 C          -1.5386    1.1915    0.0828 C.2     1  ALA1        0.3250
      8 O          -0.8110    2.2995    0.5223 O.3     1  ALA1       -0.4793
      9 OXT        -2.7391    1.4806   -0.1206 O.2     1  ALA1       -0.2489
     10 HB1        -1.8781   -2.1221    0.0229 H       1  ALA1        0.0253
     11 HB2        -2.7842   -0.7812    0.7490 H       1  ALA1        0.0253
     12 HB3        -1.3965   -1.3993    1.6515 H       1  ALA1        0.0253
     13 HA         -1.0545   -0.4107   -1.2004 H       1  ALA1        0.0611
     14 H           0.8048    0.0868    1.1614 H       1  ALA1        0.1495
     15 H           3.3306    0.4628   -1.2241 H       0  UNK0        0.0322
     16 H           3.0211    0.1451    0.4820 H       0  UNK0        0.0322
     17 H           3.3507   -1.2191   -0.6316 H       0  UNK0        0.0322
     18 H          -1.2351    2.9474    1.1885 H       1  ALA1        0.2951
@<TRIPOS>BOND
     1     1     2    1
     2     2     3    1
     3     3     4   am
     4     4     5    1
     5     4     6    2
     6     2     7    1
     7     7     8    1
     8     7     9    2
     9     1    10    1
    10     1    11    1
    11     1    12    1
    12     2    13    1
    13     3    14    1
    14     5    15    1
    15     5    16    1
    16     5    17    1
    17     8    18    1
