
     RDKit          3D

 18 17  0  0  0  0  0  0  0  0999 V2000
   -1.7599   -1.1981    0.6221 C   0  0  0  0  0  0  0  0  0  0  0  0
   -0.9672   -0.1847   -0.1257 C   0  0  2  0  0  0  0  0  0  0  0  0
    0.4256   -0.1134    0.2104 N   0  0  0  0  0  0  0  0  0  0  0  0
    1.3798   -0.3360   -0.8492 C   0  0  0  0  0  0  0  0  0  0  0  0
    2.8273   -0.2681   -0.5290 C   0  0  0  0  0  0  0  0  0  0  0  0
    1.0244   -0.5809   -2.0124 O   0  0  0  0  0  0  0  0  0  0  0  0
   -1.5386    1.1915    0.0828 C   0  0  0  0  0  0  0  0  0  0  0  0
   -0.8110    2.2995    0.5223 O   0  0  0  0  0  0  0  0  0  0  0  0
   -2.7391    1.4806   -0.1206 O   0  0  0  0  0  0  0  0  0  0  0  0
   -1.8781   -2.1221    0.0229 H   0  0  0  0  0  0  0  0  0  0  0  0
   -2.7842   -0.7812    0.7490 H   0  0  0  0  0  0  0  0  0  0  0  0
   -1.3965   -1.3993    1.6515 H   0  0  0  0  0  0  0  0  0  0  0  0
   -1.0545   -0.4107   -1.2004 H   0  0  0  0  0  0  0  0  0  0  0  0
    0.8048    0.0868    1.1614 H   0  0  0  0  0  0  0  0  0  0  0  0
    3.3306    0.4628   -1.2241 H   0  0  0  0  0  0  0  0  0  0  0  0
    3.0211    0.1451    0.4820 H   0  0  0  0  0  0  0  0  0  0  0  0
    3.3507   -1.2191   -0.6316 H   0  0  0  0  0  0  0  0  0  0  0  0
   -1.2351    2.9474    1.1885 H   0  0  0  0  0  0  0  0  0  0  0  0
  1  2  1  0
  2  3  1  0
  3  4  1  0
  4  5  1  0
  4  6  2  0
  2  7  1  0
  7  8  1  0
  7  9  2  0
  1 10  1  0
  1 11  1  0
  1 12  1  0
  2 13  1  6
  3 14  1  0
  5 15  1  0
  5 16  1  0
  5 17  1  0
  8 18  1  0
M  END
$$$$
