@<TRIPOS>MOLECULE
*****
 51 53 0 0 0
SMALL
GASTEIGER

@<TRIPOS>ATOM
      1 C          -3.8673    4.9788   -0.6384 C.3     1  UNL1        0.0788
      2 O          -2.8526    4.0311   -0.7767 O.3     1  UNL1       -0.4951
      3 C          -2.9951    2.6743   -0.5878 C.ar    1  UNL1        0.1209
      4 C          -4.1863    2.0711   -0.2304 C.ar    1  UNL1       -0.0181
      5 C          -4.2597    0.6848   -0.0550 C.ar    1  UNL1       -0.0323
      6 C          -3.1678   -0.1136   -0.2289 C.ar    1  UNL1        0.1059
      7 C          -1.9716    0.4874   -0.5871 C.ar    1  UNL1        0.0658
      8 C          -1.8884    1.8694   -0.7645 C.ar    1  UNL1       -0.0060
      9 C          -0.7330   -0.1891   -0.8076 C.2     1  UNL1        0.2528
     10 O           0.0320    0.4404   -1.6235 O.2     1  UNL1       -0.2696
     11 N          -0.1405   -1.4168   -0.3252 N.am    1  UNL1       -0.2656
     12 C           1.2827   -1.5359   -0.5573 C.3     1  UNL1        0.0202
     13 C           2.1413   -0.9753    0.5249 C.3     1  UNL1       -0.0367
     14 C           3.6106   -1.1276    0.2778 C.3     1  UNL1       -0.0512
     15 C           4.0813   -0.4543   -0.9691 C.3     1  UNL1       -0.0447
     16 C           3.8542    1.0160   -1.0175 C.3     1  UNL1        0.0259
     17 C           4.5224    1.7791    0.0588 C.2     1  UNL1        0.2354
     18 O           5.2326    1.2431    0.9468 O.2     1  UNL1       -0.2737
     19 N           4.3362    3.1894    0.0674 N.am    1  UNL1       -0.1975
     20 O           4.9364    3.9105    1.0411 O.3     1  UNL1       -0.2952
     21 C          -0.8296   -2.4755    0.3238 C.ar    1  UNL1        0.0618
     22 C           0.0724   -3.3940    0.8131 C.ar    1  UNL1       -0.0384
     23 C          -0.3449   -4.5355    1.4969 C.ar    1  UNL1       -0.0599
     24 C          -1.6932   -4.7371    1.6802 C.ar    1  UNL1       -0.0598
     25 C          -2.6290   -3.8477    1.2092 C.ar    1  UNL1       -0.0346
     26 C          -2.1732   -2.7272    0.5357 C.ar    1  UNL1        0.1149
     27 S          -3.5237   -1.7785    0.0425 S.O2    1  UNL1        0.0275
     28 O          -4.0948   -2.3884   -1.2287 O.2     1  UNL1       -0.1642
     29 O          -4.6191   -1.9430    1.0864 O.2     1  UNL1       -0.1642
     30 H          -4.8579    4.6182   -0.9830 H       1  UNL1        0.0660
     31 H          -3.6185    5.8570   -1.2996 H       1  UNL1        0.0660
     32 H          -3.9521    5.4031    0.3818 H       1  UNL1        0.0660
     33 H          -5.0568    2.7052   -0.0914 H       1  UNL1        0.0655
     34 H          -5.2001    0.2240    0.2254 H       1  UNL1        0.0638
     35 H          -0.9343    2.3149   -1.0475 H       1  UNL1        0.0662
     36 H           1.6153   -2.4734   -1.0293 H       1  UNL1        0.0469
     37 H           1.4845   -0.8201   -1.4355 H       1  UNL1        0.0469
     38 H           1.9923    0.1593    0.5646 H       1  UNL1        0.0280
     39 H           1.9169   -1.2737    1.5574 H       1  UNL1        0.0280
     40 H           3.9050   -2.2146    0.1730 H       1  UNL1        0.0266
     41 H           4.1347   -0.7969    1.1995 H       1  UNL1        0.0266
     42 H           3.5828   -0.9150   -1.8247 H       1  UNL1        0.0270
     43 H           5.1686   -0.6489   -1.0684 H       1  UNL1        0.0270
     44 H           4.3098    1.3806   -1.9810 H       1  UNL1        0.0359
     45 H           2.7820    1.2901   -1.0907 H       1  UNL1        0.0359
     46 H           3.7459    3.6794   -0.6621 H       1  UNL1        0.1822
     47 H           5.0614    4.8421    0.7058 H       1  UNL1        0.2414
     48 H           1.1188   -3.2086    0.6500 H       1  UNL1        0.0637
     49 H           0.3964   -5.2234    1.8603 H       1  UNL1        0.0618
     50 H          -2.0377   -5.6324    2.2175 H       1  UNL1        0.0618
     51 H          -3.6893   -4.0030    1.3514 H       1  UNL1        0.0637
@<TRIPOS>BOND
     1     1     2    1
     2     2     3    1
     3     3     4   ar
     4     4     5   ar
     5     5     6   ar
     6     6     7   ar
     7     7     8   ar
     8     7     9    1
     9     9    10    2
    10     9    11   am
    11    11    12    1
    12    12    13    1
    13    13    14    1
    14    14    15    1
    15    15    16    1
    16    16    17    1
    17    17    18    2
    18    17    19   am
    19    19    20    1
    20    11    21    1
    21    21    22   ar
    22    22    23   ar
    23    23    24   ar
    24    24    25   ar
    25    25    26   ar
    26    26    27    1
    27    27    28    2
    28    27    29    2
    29     8     3   ar
    30    26    21   ar
    31    27     6    1
    32     1    30    1
    33     1    31    1
    34     1    32    1
    35     4    33    1
    36     5    34    1
    37     8    35    1
    38    12    36    1
    39    12    37    1
    40    13    38    1
    41    13    39    1
    42    14    40    1
    43    14    41    1
    44    15    42    1
    45    15    43    1
    46    16    44    1
    47    16    45    1
    48    19    46    1
    49    20    47    1
    50    22    48    1
    51    23    49    1
    52    24    50    1
    53    25    51    1
