
     RDKit          3D

 51 53  0  0  0  0  0  0  0  0999 V2000
   -3.8673    4.9788   -0.6384 C   0  0  0  0  0  0  0  0  0  0  0  0
   -2.8526    4.0311   -0.7767 O   0  0  0  0  0  0  0  0  0  0  0  0
   -2.9951    2.6743   -0.5878 C   0  0  0  0  0  0  0  0  0  0  0  0
   -4.1863    2.0711   -0.2304 C   0  0  0  0  0  0  0  0  0  0  0  0
   -4.2597    0.6848   -0.0550 C   0  0  0  0  0  0  0  0  0  0  0  0
   -3.1678   -0.1136   -0.2289 C   0  0  0  0  0  0  0  0  0  0  0  0
   -1.9716    0.4874   -0.5871 C   0  0  0  0  0  0  0  0  0  0  0  0
   -1.8884    1.8694   -0.7645 C   0  0  0  0  0  0  0  0  0  0  0  0
   -0.7330   -0.1891   -0.8076 C   0  0  0  0  0  0  0  0  0  0  0  0
    0.0320    0.4404   -1.6235 O   0  0  0  0  0  0  0  0  0  0  0  0
   -0.1405   -1.4168   -0.3252 N   0  0  0  0  0  0  0  0  0  0  0  0
    1.2827   -1.5359   -0.5573 C   0  0  0  0  0  0  0  0  0  0  0  0
    2.1413   -0.9753    0.5249 C   0  0  0  0  0  0  0  0  0  0  0  0
    3.6106   -1.1276    0.2778 C   0  0  0  0  0  0  0  0  0  0  0  0
    4.0813   -0.4543   -0.9691 C   0  0  0  0  0  0  0  0  0  0  0  0
    3.8542    1.0160   -1.0175 C   0  0  0  0  0  0  0  0  0  0  0  0
    4.5224    1.7791    0.0588 C   0  0  0  0  0  0  0  0  0  0  0  0
    5.2326    1.2431    0.9468 O   0  0  0  0  0  0  0  0  0  0  0  0
    4.3362    3.1894    0.0674 N   0  0  0  0  0  0  0  0  0  0  0  0
    4.9364    3.9105    1.0411 O   0  0  0  0  0  0  0  0  0  0  0  0
   -0.8296   -2.4755    0.3238 C   0  0  0  0  0  0  0  0  0  0  0  0
    0.0724   -3.3940    0.8131 C   0  0  0  0  0  0  0  0  0  0  0  0
   -0.3449   -4.5355    1.4969 C   0  0  0  0  0  0  0  0  0  0  0  0
   -1.6932   -4.7371    1.6802 C   0  0  0  0  0  0  0  0  0  0  0  0
   -2.6290   -3.8477    1.2092 C   0  0  0  0  0  0  0  0  0  0  0  0
   -2.1732   -2.7272    0.5357 C   0  0  0  0  0  0  0  0  0  0  0  0
   -3.5237   -1.7785    0.0425 S   0  0  0  0  0  6  0  0  0  0  0  0
   -4.0948   -2.3884   -1.2287 O   0  0  0  0  0  0  0  0  0  0  0  0
   -4.6191   -1.9430    1.0864 O   0  0  0  0  0  0  0  0  0  0  0  0
   -4.8579    4.6182   -0.9830 H   0  0  0  0  0  0  0  0  0  0  0  0
   -3.6185    5.8570   -1.2996 H   0  0  0  0  0  0  0  0  0  0  0  0
   -3.9521    5.4031    0.3818 H   0  0  0  0  0  0  0  0  0  0  0  0
   -5.0568    2.7052   -0.0914 H   0  0  0  0  0  0  0  0  0  0  0  0
   -5.2001    0.2240    0.2254 H   0  0  0  0  0  0  0  0  0  0  0  0
   -0.9343    2.3149   -1.0475 H   0  0  0  0  0  0  0  0  0  0  0  0
    1.6153   -2.4734   -1.0293 H   0  0  0  0  0  0  0  0  0  0  0  0
    1.4845   -0.8201   -1.4355 H   0  0  0  0  0  0  0  0  0  0  0  0
    1.9923    0.1593    0.5646 H   0  0  0  0  0  0  0  0  0  0  0  0
    1.9169   -1.2737    1.5574 H   0  0  0  0  0  0  0  0  0  0  0  0
    3.9050   -2.2146    0.1730 H   0  0  0  0  0  0  0  0  0  0  0  0
    4.1347   -0.7969    1.1995 H   0  0  0  0  0  0  0  0  0  0  0  0
    3.5828   -0.9150   -1.8247 H   0  0  0  0  0  0  0  0  0  0  0  0
    5.1686   -0.6489   -1.0684 H   0  0  0  0  0  0  0  0  0  0  0  0
    4.3098    1.3806   -1.9810 H   0  0  0  0  0  0  0  0  0  0  0  0
    2.7820    1.2901   -1.0907 H   0  0  0  0  0  0  0  0  0  0  0  0
    3.7459    3.6794   -0.6621 H   0  0  0  0  0  0  0  0  0  0  0  0
    5.0614    4.8421    0.7058 H   0  0  0  0  0  0  0  0  0  0  0  0
    1.1188   -3.2086    0.6500 H   0  0  0  0  0  0  0  0  0  0  0  0
    0.3964   -5.2234    1.8603 H   0  0  0  0  0  0  0  0  0  0  0  0
   -2.0377   -5.6324    2.2175 H   0  0  0  0  0  0  0  0  0  0  0  0
   -3.6893   -4.0030    1.3514 H   0  0  0  0  0  0  0  0  0  0  0  0
  1  2  1  0
  2  3  1  0
  3  4  2  0
  4  5  1  0
  5  6  2  0
  6  7  1  0
  7  8  2  0
  7  9  1  0
  9 10  2  0
  9 11  1  0
 11 12  1  0
 12 13  1  0
 13 14  1  0
 14 15  1  0
 15 16  1  0
 16 17  1  0
 17 18  2  0
 17 19  1  0
 19 20  1  0
 11 21  1  0
 21 22  2  0
 22 23  1  0
 23 24  2  0
 24 25  1  0
 25 26  2  0
 26 27  1  0
 27 28  2  0
 27 29  2  0
  8  3  1  0
 26 21  1  0
 27  6  1  0
  1 30  1  0
  1 31  1  0
  1 32  1  0
  4 33  1  0
  5 34  1  0
  8 35  1  0
 12 36  1  0
 12 37  1  0
 13 38  1  0
 13 39  1  0
 14 40  1  0
 14 41  1  0
 15 42  1  0
 15 43  1  0
 16 44  1  0
 16 45  1  0
 19 46  1  0
 20 47  1  0
 22 48  1  0
 23 49  1  0
 24 50  1  0
 25 51  1  0
M  END
$$$$
