
     RDKit          3D

 69 71  0  0  0  0  0  0  0  0999 V2000
    6.8934    0.2851   -0.4464 C   0  0  0  0  0  0  0  0  0  0  0  0
    5.8082    0.0848    0.4927 N   0  0  0  0  0  0  0  0  0  0  0  0
    6.1295    0.7440    1.7630 C   0  0  0  0  0  0  0  0  0  0  0  0
    5.5156   -1.2843    0.7717 C   0  0  0  0  0  0  0  0  0  0  0  0
    4.9214   -2.0692   -0.3510 C   0  0  0  0  0  0  0  0  0  0  0  0
    3.6343   -1.5144   -0.8055 N   0  0  0  0  0  0  0  0  0  0  0  0
    2.4557   -2.0161   -0.1220 C   0  0  0  0  0  0  0  0  0  0  0  0
    1.2586   -1.8943   -1.0364 C   0  0  0  0  0  0  0  0  0  0  0  0
    0.7996   -0.4851   -1.0757 N   0  0  0  0  0  0  0  0  0  0  0  0
   -0.5711   -0.3773   -0.8950 C   0  0  0  0  0  0  0  0  0  0  0  0
   -1.2279   -1.4967   -0.7982 O   0  0  0  0  0  0  0  0  0  0  0  0
   -1.4243    0.8257   -0.7967 C   0  0  0  0  0  0  0  0  0  0  0  0
   -1.0310    2.0426   -0.3640 C   0  0  0  0  0  0  0  0  0  0  0  0
   -1.9161    3.0544   -0.2568 C   0  0  0  0  0  0  0  0  0  0  0  0
   -1.7699    4.4688    0.1801 C   0  0  0  0  0  0  0  0  0  0  0  0
   -0.3457    4.6622    0.5733 C   0  0  0  0  0  0  0  0  0  0  0  0
   -2.7419    4.7859    1.2800 C   0  0  0  0  0  0  0  0  0  0  0  0
   -2.1145    5.3066   -1.0567 C   0  0  0  0  0  0  0  0  0  0  0  0
   -3.4529    2.3179   -0.7857 S   0  0  0  0  0  0  0  0  0  0  0  0
   -2.7549    0.7032   -1.1057 C   0  0  0  0  0  0  0  0  0  0  0  0
   -3.5102   -0.4122   -1.5920 N   0  0  0  0  0  0  0  0  0  0  0  0
   -4.1477   -1.3249   -0.7154 C   0  0  0  0  0  0  0  0  0  0  0  0
   -4.0419   -1.1470    0.5238 O   0  0  0  0  0  0  0  0  0  0  0  0
   -4.9077   -2.4426   -1.2183 N   0  0  0  0  0  0  0  0  0  0  0  0
   -5.5161   -3.3089   -0.2876 C   0  0  0  0  0  0  0  0  0  0  0  0
   -6.7991   -3.0500    0.1531 C   0  0  0  0  0  0  0  0  0  0  0  0
   -7.3960   -3.8937    1.0598 C   0  0  0  0  0  0  0  0  0  0  0  0
   -6.6709   -4.9938    1.5048 C   0  0  0  0  0  0  0  0  0  0  0  0
   -5.3822   -5.2521    1.0609 C   0  0  0  0  0  0  0  0  0  0  0  0
   -4.5239   -6.6507    1.6567 Cl  0  0  0  0  0  0  0  0  0  0  0  0
   -4.7930   -4.3999    0.1519 C   0  0  0  0  0  0  0  0  0  0  0  0
   -3.1637   -4.7101   -0.4230 Cl  0  0  0  0  0  0  0  0  0  0  0  0
    1.5393    0.6901   -1.3333 C   0  0  0  0  0  0  0  0  0  0  0  0
    2.7656    0.5005   -2.1946 C   0  0  0  0  0  0  0  0  0  0  0  0
    3.6699   -0.5604   -1.8418 C   0  0  0  0  0  0  0  0  0  0  0  0
    4.6866   -0.6708   -2.5877 O   0  0  0  0  0  0  0  0  0  0  0  0
    7.8778    0.3777    0.0912 H   0  0  0  0  0  0  0  0  0  0  0  0
    7.0088   -0.5646   -1.1308 H   0  0  0  0  0  0  0  0  0  0  0  0
    6.7171    1.2288   -0.9867 H   0  0  0  0  0  0  0  0  0  0  0  0
    5.1901    1.2215    2.1297 H   0  0  0  0  0  0  0  0  0  0  0  0
    6.8449    1.5884    1.6170 H   0  0  0  0  0  0  0  0  0  0  0  0
    6.5204    0.0123    2.5017 H   0  0  0  0  0  0  0  0  0  0  0  0
    6.4519   -1.7463    1.1598 H   0  0  0  0  0  0  0  0  0  0  0  0
    4.8245   -1.2875    1.6628 H   0  0  0  0  0  0  0  0  0  0  0  0
    5.5868   -2.1295   -1.2337 H   0  0  0  0  0  0  0  0  0  0  0  0
    4.7436   -3.1007    0.0297 H   0  0  0  0  0  0  0  0  0  0  0  0
    2.5720   -3.0691    0.2145 H   0  0  0  0  0  0  0  0  0  0  0  0
    2.3113   -1.3539    0.7635 H   0  0  0  0  0  0  0  0  0  0  0  0
    1.5265   -2.2443   -2.0548 H   0  0  0  0  0  0  0  0  0  0  0  0
    0.4776   -2.5352   -0.6406 H   0  0  0  0  0  0  0  0  0  0  0  0
    0.0225    2.2668   -0.0345 H   0  0  0  0  0  0  0  0  0  0  0  0
    0.2768    4.3055   -0.2930 H   0  0  0  0  0  0  0  0  0  0  0  0
   -0.1236    5.7490    0.7856 H   0  0  0  0  0  0  0  0  0  0  0  0
   -0.1178    4.0847    1.4648 H   0  0  0  0  0  0  0  0  0  0  0  0
   -2.2855    5.3192    2.1335 H   0  0  0  0  0  0  0  0  0  0  0  0
   -3.1875    3.8468    1.6933 H   0  0  0  0  0  0  0  0  0  0  0  0
   -3.6017    5.3538    0.8417 H   0  0  0  0  0  0  0  0  0  0  0  0
   -2.1998    6.3629   -0.7911 H   0  0  0  0  0  0  0  0  0  0  0  0
   -1.3413    5.1635   -1.8474 H   0  0  0  0  0  0  0  0  0  0  0  0
   -3.0576    4.9035   -1.4798 H   0  0  0  0  0  0  0  0  0  0  0  0
   -3.5691   -0.5197   -2.6257 H   0  0  0  0  0  0  0  0  0  0  0  0
   -4.9770   -2.5655   -2.2505 H   0  0  0  0  0  0  0  0  0  0  0  0
   -7.3490   -2.1800   -0.2104 H   0  0  0  0  0  0  0  0  0  0  0  0
   -8.3962   -3.7123    1.4186 H   0  0  0  0  0  0  0  0  0  0  0  0
   -7.1164   -5.6647    2.2108 H   0  0  0  0  0  0  0  0  0  0  0  0
    0.8734    1.4112   -1.8451 H   0  0  0  0  0  0  0  0  0  0  0  0
    1.9004    1.1261   -0.3948 H   0  0  0  0  0  0  0  0  0  0  0  0
    2.3966    0.3526   -3.2369 H   0  0  0  0  0  0  0  0  0  0  0  0
    3.3241    1.4818   -2.2323 H   0  0  0  0  0  0  0  0  0  0  0  0
  1  2  1  0
  2  3  1  0
  2  4  1  0
  4  5  1  0
  5  6  1  0
  6  7  1  0
  7  8  1  0
  8  9  1  0
  9 10  1  0
 10 11  2  0
 10 12  1  0
 12 13  1  0
 13 14  2  0
 14 15  1  0
 15 16  1  0
 15 17  1  0
 15 18  1  0
 14 19  1  0
 19 20  1  0
 20 21  1  0
 21 22  1  0
 22 23  2  0
 22 24  1  0
 24 25  1  0
 25 26  2  0
 26 27  1  0
 27 28  2  0
 28 29  1  0
 29 30  1  0
 29 31  2  0
 31 32  1  0
  9 33  1  0
 33 34  1  0
 34 35  1  0
 35 36  2  0
 35  6  1  0
 20 12  2  0
 31 25  1  0
  1 37  1  0
  1 38  1  0
  1 39  1  0
  3 40  1  0
  3 41  1  0
  3 42  1  0
  4 43  1  0
  4 44  1  0
  5 45  1  0
  5 46  1  0
  7 47  1  0
  7 48  1  0
  8 49  1  0
  8 50  1  0
 13 51  1  0
 16 52  1  0
 16 53  1  0
 16 54  1  0
 17 55  1  0
 17 56  1  0
 17 57  1  0
 18 58  1  0
 18 59  1  0
 18 60  1  0
 21 61  1  0
 24 62  1  0
 26 63  1  0
 27 64  1  0
 28 65  1  0
 33 66  1  0
 33 67  1  0
 34 68  1  0
 34 69  1  0
M  END
$$$$
