@<TRIPOS>MOLECULE
*****
 69 71 0 0 0
SMALL
GASTEIGER

@<TRIPOS>ATOM
      1 C           6.8934    0.2851   -0.4464 C.3     1  UNL1       -0.0130
      2 N           5.8082    0.0848    0.4927 N.3     1  UNL1       -0.3069
      3 C           6.1295    0.7440    1.7630 C.3     1  UNL1       -0.0130
      4 C           5.5156   -1.2843    0.7717 C.3     1  UNL1        0.0141
      5 C           4.9214   -2.0692   -0.3510 C.3     1  UNL1        0.0275
      6 N           3.6343   -1.5144   -0.8055 N.am    1  UNL1       -0.2987
      7 C           2.4557   -2.0161   -0.1220 C.3     1  UNL1        0.0305
      8 C           1.2586   -1.8943   -1.0364 C.3     1  UNL1        0.0308
      9 N           0.7996   -0.4851   -1.0757 N.am    1  UNL1       -0.2955
     10 C          -0.5711   -0.3773   -0.8950 C.2     1  UNL1        0.2490
     11 O          -1.2279   -1.4967   -0.7982 O.2     1  UNL1       -0.2699
     12 C          -1.4243    0.8257   -0.7967 C.ar    1  UNL1        0.0657
     13 C          -1.0310    2.0426   -0.3640 C.ar    1  UNL1       -0.0370
     14 C          -1.9161    3.0544   -0.2568 C.ar    1  UNL1       -0.0023
     15 C          -1.7699    4.4688    0.1801 C.3     1  UNL1       -0.0064
     16 C          -0.3457    4.6622    0.5733 C.3     1  UNL1       -0.0556
     17 C          -2.7419    4.7859    1.2800 C.3     1  UNL1       -0.0556
     18 C          -2.1145    5.3066   -1.0567 C.3     1  UNL1       -0.0556
     19 S          -3.4529    2.3179   -0.7857 S.2     1  UNL1       -0.0771
     20 C          -2.7549    0.7032   -1.1057 C.ar    1  UNL1        0.0853
     21 N          -3.5102   -0.4122   -1.5920 N.am    1  UNL1       -0.2629
     22 C          -4.1477   -1.3249   -0.7154 C.2     1  UNL1        0.3085
     23 O          -4.0419   -1.1470    0.5238 O.2     1  UNL1       -0.2521
     24 N          -4.9077   -2.4426   -1.2183 N.am    1  UNL1       -0.2678
     25 C          -5.5161   -3.3089   -0.2876 C.ar    1  UNL1        0.0546
     26 C          -6.7991   -3.0500    0.1531 C.ar    1  UNL1       -0.0389
     27 C          -7.3960   -3.8937    1.0598 C.ar    1  UNL1       -0.0585
     28 C          -6.6709   -4.9938    1.5048 C.ar    1  UNL1       -0.0419
     29 C          -5.3822   -5.2521    1.0609 C.ar    1  UNL1        0.0610
     30 CL         -4.5239   -6.6507    1.6567 Cl      1  UNL1       -0.0820
     31 C          -4.7930   -4.3999    0.1519 C.ar    1  UNL1        0.0804
     32 CL         -3.1637   -4.7101   -0.4230 Cl      1  UNL1       -0.0801
     33 C           1.5393    0.6901   -1.3333 C.3     1  UNL1        0.0233
     34 C           2.7656    0.5005   -2.1946 C.3     1  UNL1        0.0399
     35 C           3.6699   -0.5604   -1.8418 C.2     1  UNL1        0.2171
     36 O           4.6866   -0.6708   -2.5877 O.2     1  UNL1       -0.2755
     37 H           7.8778    0.3777    0.0912 H       1  UNL1        0.0391
     38 H           7.0088   -0.5646   -1.1308 H       1  UNL1        0.0391
     39 H           6.7171    1.2288   -0.9867 H       1  UNL1        0.0391
     40 H           5.1901    1.2215    2.1297 H       1  UNL1        0.0391
     41 H           6.8449    1.5884    1.6170 H       1  UNL1        0.0391
     42 H           6.5204    0.0123    2.5017 H       1  UNL1        0.0391
     43 H           6.4519   -1.7463    1.1598 H       1  UNL1        0.0442
     44 H           4.8245   -1.2875    1.6628 H       1  UNL1        0.0442
     45 H           5.5868   -2.1295   -1.2337 H       1  UNL1        0.0477
     46 H           4.7436   -3.1007    0.0297 H       1  UNL1        0.0477
     47 H           2.5720   -3.0691    0.2145 H       1  UNL1        0.0480
     48 H           2.3113   -1.3539    0.7635 H       1  UNL1        0.0480
     49 H           1.5265   -2.2443   -2.0548 H       1  UNL1        0.0480
     50 H           0.4776   -2.5352   -0.6406 H       1  UNL1        0.0480
     51 H           0.0225    2.2668   -0.0345 H       1  UNL1        0.0634
     52 H           0.2768    4.3055   -0.2930 H       1  UNL1        0.0238
     53 H          -0.1236    5.7490    0.7856 H       1  UNL1        0.0238
     54 H          -0.1178    4.0847    1.4648 H       1  UNL1        0.0238
     55 H          -2.2855    5.3192    2.1335 H       1  UNL1        0.0238
     56 H          -3.1875    3.8468    1.6933 H       1  UNL1        0.0238
     57 H          -3.6017    5.3538    0.8417 H       1  UNL1        0.0238
     58 H          -2.1998    6.3629   -0.7911 H       1  UNL1        0.0238
     59 H          -1.3413    5.1635   -1.8474 H       1  UNL1        0.0238
     60 H          -3.0576    4.9035   -1.4798 H       1  UNL1        0.0238
     61 H          -3.5691   -0.5197   -2.6257 H       1  UNL1        0.1569
     62 H          -4.9770   -2.5655   -2.2505 H       1  UNL1        0.1564
     63 H          -7.3490   -2.1800   -0.2104 H       1  UNL1        0.0637
     64 H          -8.3962   -3.7123    1.4186 H       1  UNL1        0.0619
     65 H          -7.1164   -5.6647    2.2108 H       1  UNL1        0.0633
     66 H           0.8734    1.4112   -1.8451 H       1  UNL1        0.0469
     67 H           1.9004    1.1261   -0.3948 H       1  UNL1        0.0469
     68 H           2.3966    0.3526   -3.2369 H       1  UNL1        0.0374
     69 H           3.3241    1.4818   -2.2323 H       1  UNL1        0.0374
@<TRIPOS>BOND
     1     1     2    1
     2     2     3    1
     3     2     4    1
     4     4     5    1
     5     5     6    1
     6     6     7    1
     7     7     8    1
     8     8     9    1
     9     9    10   am
    10    10    11    2
    11    10    12    1
    12    12    13   ar
    13    13    14   ar
    14    14    15    1
    15    15    16    1
    16    15    17    1
    17    15    18    1
    18    14    19   ar
    19    19    20   ar
    20    20    21    1
    21    21    22   am
    22    22    23    2
    23    22    24   am
    24    24    25    1
    25    25    26   ar
    26    26    27   ar
    27    27    28   ar
    28    28    29   ar
    29    29    30    1
    30    29    31   ar
    31    31    32    1
    32     9    33    1
    33    33    34    1
    34    34    35    1
    35    35    36    2
    36    35     6   am
    37    20    12   ar
    38    31    25   ar
    39     1    37    1
    40     1    38    1
    41     1    39    1
    42     3    40    1
    43     3    41    1
    44     3    42    1
    45     4    43    1
    46     4    44    1
    47     5    45    1
    48     5    46    1
    49     7    47    1
    50     7    48    1
    51     8    49    1
    52     8    50    1
    53    13    51    1
    54    16    52    1
    55    16    53    1
    56    16    54    1
    57    17    55    1
    58    17    56    1
    59    17    57    1
    60    18    58    1
    61    18    59    1
    62    18    60    1
    63    21    61    1
    64    24    62    1
    65    26    63    1
    66    27    64    1
    67    28    65    1
    68    33    66    1
    69    33    67    1
    70    34    68    1
    71    34    69    1
