@<TRIPOS>MOLECULE
*****
 43 47 0 0 0
SMALL
GASTEIGER

@<TRIPOS>ATOM
      1 C           5.9783    2.0705    1.2631 C.3     1  UNL1        0.0790
      2 O           5.2772    1.0152    0.6232 O.3     1  UNL1       -0.4914
      3 C           3.8945    0.9888    0.6659 C.ar    1  UNL1        0.1623
      4 C           3.1832    1.9690    1.3187 C.ar    1  UNL1       -0.0157
      5 C           1.8083    1.9132    1.3423 C.ar    1  UNL1       -0.0499
      6 C           1.1377    0.8804    0.7155 C.ar    1  UNL1       -0.0022
      7 C          -0.2473    0.8338    0.7453 C.ar    1  UNL1        0.0183
      8 C          -0.8737   -0.2120    0.1083 C.ar    1  UNL1        0.2159
      9 N          -0.1996   -1.1762   -0.5328 N.ar    1  UNL1       -0.1961
     10 C           1.1495   -1.1036   -0.5446 C.ar    1  UNL1        0.1831
     11 C           1.8363   -0.0984    0.0640 C.ar    1  UNL1        0.0909
     12 C           3.2373   -0.0401    0.0409 C.ar    1  UNL1        0.1748
     13 O           3.9340   -1.0462   -0.6278 O.3     1  UNL1       -0.4907
     14 C           4.2480   -0.9091   -2.0026 C.3     1  UNL1        0.0790
     15 C          -0.7536   -2.3012   -1.2232 C.3     1  UNL1        0.1550
     16 C          -2.2185   -2.4183   -1.2347 C.3     1  UNL1        0.0330
     17 C          -2.9524   -1.3711   -0.5384 C.ar    1  UNL1       -0.0243
     18 C          -4.3243   -1.4573   -0.5342 C.ar    1  UNL1       -0.0120
     19 C          -5.1214   -0.5250    0.0920 C.ar    1  UNL1        0.1665
     20 C          -4.4940    0.5168    0.7265 C.ar    1  UNL1        0.1670
     21 C          -3.1033    0.6563    0.7553 C.ar    1  UNL1       -0.0025
     22 C          -2.3563   -0.2999    0.1161 C.ar    1  UNL1        0.0533
     23 O          -5.4609    1.3282    1.2831 O.3     1  UNL1       -0.4526
     24 C          -6.7123    0.9994    0.6642 C.3     1  UNL1        0.2332
     25 O          -6.4930   -0.3568    0.2576 O.3     1  UNL1       -0.4526
     26 H           7.0665    1.9423    1.0803 H       1  UNL1        0.0660
     27 H           5.7502    2.0255    2.3390 H       1  UNL1        0.0660
     28 H           5.6287    3.0583    0.8593 H       1  UNL1        0.0660
     29 H           3.6747    2.8011    1.8259 H       1  UNL1        0.0655
     30 H           1.1968    2.6585    1.8418 H       1  UNL1        0.0625
     31 H          -0.7754    1.6220    1.2684 H       1  UNL1        0.0690
     32 H           1.7460   -1.8686   -1.0559 H       1  UNL1        0.1384
     33 H           5.3168   -1.2281   -2.1187 H       1  UNL1        0.0660
     34 H           4.1418    0.1429   -2.3410 H       1  UNL1        0.0660
     35 H           3.5736   -1.5580   -2.5803 H       1  UNL1        0.0660
     36 H          -0.3298   -3.2224   -0.7252 H       1  UNL1        0.1034
     37 H          -0.3059   -2.3316   -2.2568 H       1  UNL1        0.1034
     38 H          -2.5647   -2.4123   -2.3099 H       1  UNL1        0.0375
     39 H          -2.5783   -3.4069   -0.8435 H       1  UNL1        0.0375
     40 H          -4.8563   -2.2809   -1.0342 H       1  UNL1        0.0658
     41 H          -2.6443    1.4739    1.2547 H       1  UNL1        0.0663
     42 H          -6.9378    1.6515   -0.1854 H       1  UNL1        0.1166
     43 H          -7.4764    1.0767    1.4377 H       1  UNL1        0.1166
@<TRIPOS>UNITY_ATOM_ATTR
9 1
charge 1
@<TRIPOS>BOND
     1     1     2    1
     2     2     3    1
     3     3     4   ar
     4     4     5   ar
     5     5     6   ar
     6     6     7   ar
     7     7     8   ar
     8     8     9   ar
     9     9    10   ar
    10    10    11   ar
    11    11    12   ar
    12    12    13    1
    13    13    14    1
    14     9    15    1
    15    15    16    1
    16    16    17    1
    17    17    18   ar
    18    18    19   ar
    19    19    20   ar
    20    20    21   ar
    21    21    22   ar
    22    20    23    1
    23    23    24    1
    24    24    25    1
    25    12     3   ar
    26    22    17   ar
    27    11     6   ar
    28    25    19    1
    29    22     8    1
    30     1    26    1
    31     1    27    1
    32     1    28    1
    33     4    29    1
    34     5    30    1
    35     7    31    1
    36    10    32    1
    37    14    33    1
    38    14    34    1
    39    14    35    1
    40    15    36    1
    41    15    37    1
    42    16    38    1
    43    16    39    1
    44    18    40    1
    45    21    41    1
    46    24    42    1
    47    24    43    1
