
     RDKit          3D

 43 47  0  0  0  0  0  0  0  0999 V2000
    5.9783    2.0705    1.2631 C   0  0  0  0  0  0  0  0  0  0  0  0
    5.2772    1.0152    0.6232 O   0  0  0  0  0  0  0  0  0  0  0  0
    3.8945    0.9888    0.6659 C   0  0  0  0  0  0  0  0  0  0  0  0
    3.1832    1.9690    1.3187 C   0  0  0  0  0  0  0  0  0  0  0  0
    1.8083    1.9132    1.3423 C   0  0  0  0  0  0  0  0  0  0  0  0
    1.1377    0.8804    0.7155 C   0  0  0  0  0  0  0  0  0  0  0  0
   -0.2473    0.8338    0.7453 C   0  0  0  0  0  0  0  0  0  0  0  0
   -0.8737   -0.2120    0.1083 C   0  0  0  0  0  0  0  0  0  0  0  0
   -0.1996   -1.1762   -0.5328 N   0  0  0  0  0  4  0  0  0  0  0  0
    1.1495   -1.1036   -0.5446 C   0  0  0  0  0  0  0  0  0  0  0  0
    1.8363   -0.0984    0.0640 C   0  0  0  0  0  0  0  0  0  0  0  0
    3.2373   -0.0401    0.0409 C   0  0  0  0  0  0  0  0  0  0  0  0
    3.9340   -1.0462   -0.6278 O   0  0  0  0  0  0  0  0  0  0  0  0
    4.2480   -0.9091   -2.0026 C   0  0  0  0  0  0  0  0  0  0  0  0
   -0.7536   -2.3012   -1.2232 C   0  0  0  0  0  0  0  0  0  0  0  0
   -2.2185   -2.4183   -1.2347 C   0  0  0  0  0  0  0  0  0  0  0  0
   -2.9524   -1.3711   -0.5384 C   0  0  0  0  0  0  0  0  0  0  0  0
   -4.3243   -1.4573   -0.5342 C   0  0  0  0  0  0  0  0  0  0  0  0
   -5.1214   -0.5250    0.0920 C   0  0  0  0  0  0  0  0  0  0  0  0
   -4.4940    0.5168    0.7265 C   0  0  0  0  0  0  0  0  0  0  0  0
   -3.1033    0.6563    0.7553 C   0  0  0  0  0  0  0  0  0  0  0  0
   -2.3563   -0.2999    0.1161 C   0  0  0  0  0  0  0  0  0  0  0  0
   -5.4609    1.3282    1.2831 O   0  0  0  0  0  0  0  0  0  0  0  0
   -6.7123    0.9994    0.6642 C   0  0  0  0  0  0  0  0  0  0  0  0
   -6.4930   -0.3568    0.2576 O   0  0  0  0  0  0  0  0  0  0  0  0
    7.0665    1.9423    1.0803 H   0  0  0  0  0  0  0  0  0  0  0  0
    5.7502    2.0255    2.3390 H   0  0  0  0  0  0  0  0  0  0  0  0
    5.6287    3.0583    0.8593 H   0  0  0  0  0  0  0  0  0  0  0  0
    3.6747    2.8011    1.8259 H   0  0  0  0  0  0  0  0  0  0  0  0
    1.1968    2.6585    1.8418 H   0  0  0  0  0  0  0  0  0  0  0  0
   -0.7754    1.6220    1.2684 H   0  0  0  0  0  0  0  0  0  0  0  0
    1.7460   -1.8686   -1.0559 H   0  0  0  0  0  0  0  0  0  0  0  0
    5.3168   -1.2281   -2.1187 H   0  0  0  0  0  0  0  0  0  0  0  0
    4.1418    0.1429   -2.3410 H   0  0  0  0  0  0  0  0  0  0  0  0
    3.5736   -1.5580   -2.5803 H   0  0  0  0  0  0  0  0  0  0  0  0
   -0.3298   -3.2224   -0.7252 H   0  0  0  0  0  0  0  0  0  0  0  0
   -0.3059   -2.3316   -2.2568 H   0  0  0  0  0  0  0  0  0  0  0  0
   -2.5647   -2.4123   -2.3099 H   0  0  0  0  0  0  0  0  0  0  0  0
   -2.5783   -3.4069   -0.8435 H   0  0  0  0  0  0  0  0  0  0  0  0
   -4.8563   -2.2809   -1.0342 H   0  0  0  0  0  0  0  0  0  0  0  0
   -2.6443    1.4739    1.2547 H   0  0  0  0  0  0  0  0  0  0  0  0
   -6.9378    1.6515   -0.1854 H   0  0  0  0  0  0  0  0  0  0  0  0
   -7.4764    1.0767    1.4377 H   0  0  0  0  0  0  0  0  0  0  0  0
  1  2  1  0
  2  3  1  0
  3  4  2  0
  4  5  1  0
  5  6  2  0
  6  7  1  0
  7  8  2  0
  8  9  1  0
  9 10  2  0
 10 11  1  0
 11 12  2  0
 12 13  1  0
 13 14  1  0
  9 15  1  0
 15 16  1  0
 16 17  1  0
 17 18  2  0
 18 19  1  0
 19 20  2  0
 20 21  1  0
 21 22  2  0
 20 23  1  0
 23 24  1  0
 24 25  1  0
 12  3  1  0
 22 17  1  0
 11  6  1  0
 25 19  1  0
 22  8  1  0
  1 26  1  0
  1 27  1  0
  1 28  1  0
  4 29  1  0
  5 30  1  0
  7 31  1  0
 10 32  1  0
 14 33  1  0
 14 34  1  0
 14 35  1  0
 15 36  1  0
 15 37  1  0
 16 38  1  0
 16 39  1  0
 18 40  1  0
 21 41  1  0
 24 42  1  0
 24 43  1  0
M  CHG  1   9   1
M  END
$$$$
