
     RDKit          3D

 44 46  0  0  0  0  0  0  0  0999 V2000
   -6.9453    1.8751    0.9805 C   0  0  0  0  0  0  0  0  0  0  0  0
   -5.7593    1.1008    0.6904 N   0  0  0  0  0  0  0  0  0  0  0  0
   -5.7949   -0.1968    0.1115 C   0  0  0  0  0  0  0  0  0  0  0  0
   -6.9051   -0.6942   -0.1608 O   0  0  0  0  0  0  0  0  0  0  0  0
   -4.5623   -0.9319   -0.1590 C   0  0  0  0  0  0  0  0  0  0  0  0
   -3.3540   -0.4121    0.1278 N   0  0  0  0  0  0  0  0  0  0  0  0
   -2.2040   -1.0789   -0.1160 C   0  0  0  0  0  0  0  0  0  0  0  0
   -0.9157   -0.4921    0.2043 C   0  0  0  0  0  0  0  0  0  0  0  0
   -0.8991    0.7843    0.7731 C   0  0  0  0  0  0  0  0  0  0  0  0
    0.2568    1.4351    1.1159 C   0  0  0  0  0  0  0  0  0  0  0  0
    1.4856    0.8347    0.9051 C   0  0  0  0  0  0  0  0  0  0  0  0
    2.9818    1.6518    1.3375 Cl  0  0  0  0  0  0  0  0  0  0  0  0
    1.4801   -0.4194    0.3468 C   0  0  0  0  0  0  0  0  0  0  0  0
    3.0500   -1.1850    0.0781 S   0  0  0  0  0  6  0  0  0  0  0  0
    3.6372   -1.3630    1.4484 O   0  0  0  0  0  0  0  0  0  0  0  0
    2.7930   -2.5495   -0.5297 O   0  0  0  0  0  0  0  0  0  0  0  0
    4.0160   -0.2468   -0.9744 N   0  0  0  0  0  0  0  0  0  0  0  0
    5.1922    0.3867   -0.5610 C   0  0  0  0  0  0  0  0  0  0  0  0
    6.0079   -0.1870    0.3778 C   0  0  0  0  0  0  0  0  0  0  0  0
    7.1990    0.4335    0.7878 C   0  0  0  0  0  0  0  0  0  0  0  0
    7.5382    1.6419    0.2240 C   0  0  0  0  0  0  0  0  0  0  0  0
    6.7390    2.2509   -0.7274 C   0  0  0  0  0  0  0  0  0  0  0  0
    7.1482    3.4393   -1.2302 F   0  0  0  0  0  0  0  0  0  0  0  0
    5.5792    1.6186   -1.1078 C   0  0  0  0  0  0  0  0  0  0  0  0
    4.8031    2.2097   -2.0315 F   0  0  0  0  0  0  0  0  0  0  0  0
    0.3010   -1.0770   -0.0000 C   0  0  0  0  0  0  0  0  0  0  0  0
   -2.3174   -2.3269   -0.6766 C   0  0  0  0  0  0  0  0  0  0  0  0
   -3.5388   -2.8693   -0.9742 N   0  0  0  0  0  0  0  0  0  0  0  0
   -4.6672   -2.1935   -0.7253 C   0  0  0  0  0  0  0  0  0  0  0  0
   -5.9441   -2.7560   -1.0344 N   0  0  0  0  0  0  0  0  0  0  0  0
   -7.7198    1.5605    0.2299 H   0  0  0  0  0  0  0  0  0  0  0  0
   -7.3092    1.6818    2.0294 H   0  0  0  0  0  0  0  0  0  0  0  0
   -6.7833    2.9538    0.8716 H   0  0  0  0  0  0  0  0  0  0  0  0
   -4.8202    1.5042    0.9130 H   0  0  0  0  0  0  0  0  0  0  0  0
   -1.8555    1.2759    0.9479 H   0  0  0  0  0  0  0  0  0  0  0  0
    0.2431    2.4352    1.5603 H   0  0  0  0  0  0  0  0  0  0  0  0
    3.7067   -0.1494   -1.9628 H   0  0  0  0  0  0  0  0  0  0  0  0
    5.8060   -1.1401    0.8537 H   0  0  0  0  0  0  0  0  0  0  0  0
    7.8398   -0.0196    1.5275 H   0  0  0  0  0  0  0  0  0  0  0  0
    8.4551    2.1250    0.5360 H   0  0  0  0  0  0  0  0  0  0  0  0
    0.3421   -2.0685   -0.4394 H   0  0  0  0  0  0  0  0  0  0  0  0
   -1.4117   -2.8872   -0.8843 H   0  0  0  0  0  0  0  0  0  0  0  0
   -6.6296   -3.0257   -0.2803 H   0  0  0  0  0  0  0  0  0  0  0  0
   -6.2644   -2.9290   -2.0166 H   0  0  0  0  0  0  0  0  0  0  0  0
  1  2  1  0
  2  3  1  0
  3  4  2  0
  3  5  1  0
  5  6  2  0
  6  7  1  0
  7  8  1  0
  8  9  2  0
  9 10  1  0
 10 11  2  0
 11 12  1  0
 11 13  1  0
 13 14  1  0
 14 15  2  0
 14 16  2  0
 14 17  1  0
 17 18  1  0
 18 19  2  0
 19 20  1  0
 20 21  2  0
 21 22  1  0
 22 23  1  0
 22 24  2  0
 24 25  1  0
 13 26  2  0
  7 27  2  0
 27 28  1  0
 28 29  2  0
 29 30  1  0
 29  5  1  0
 26  8  1  0
 24 18  1  0
  1 31  1  0
  1 32  1  0
  1 33  1  0
  2 34  1  0
  9 35  1  0
 10 36  1  0
 17 37  1  0
 19 38  1  0
 20 39  1  0
 21 40  1  0
 26 41  1  0
 27 42  1  0
 30 43  1  0
 30 44  1  0
M  END
$$$$
