@<TRIPOS>MOLECULE
*****
 44 46 0 0 0
SMALL
GASTEIGER

@<TRIPOS>ATOM
      1 C          -6.9453    1.8751    0.9805 C.3     1  UNL1        0.0004
      2 N          -5.7593    1.1008    0.6904 N.am    1  UNL1       -0.3131
      3 C          -5.7949   -0.1968    0.1115 C.2     1  UNL1        0.2656
      4 O          -6.9051   -0.6942   -0.1608 O.2     1  UNL1       -0.2684
      5 C          -4.5623   -0.9319   -0.1590 C.ar    1  UNL1        0.1653
      6 N          -3.3540   -0.4121    0.1278 N.ar    1  UNL1       -0.2371
      7 C          -2.2040   -1.0789   -0.1160 C.ar    1  UNL1        0.0901
      8 C          -0.9157   -0.4921    0.2043 C.ar    1  UNL1        0.0038
      9 C          -0.8991    0.7843    0.7731 C.ar    1  UNL1       -0.0510
     10 C           0.2568    1.4351    1.1159 C.ar    1  UNL1       -0.0409
     11 C           1.4856    0.8347    0.9051 C.ar    1  UNL1        0.0676
     12 CL          2.9818    1.6518    1.3375 Cl      1  UNL1       -0.0815
     13 C           1.4801   -0.4194    0.3468 C.ar    1  UNL1        0.1273
     14 S           3.0500   -1.1850    0.0781 S.O2    1  UNL1        0.0738
     15 O           3.6372   -1.3630    1.4484 O.2     1  UNL1       -0.1499
     16 O           2.7930   -2.5495   -0.5297 O.2     1  UNL1       -0.1499
     17 N           4.0160   -0.2468   -0.9744 N.pl3   1  UNL1       -0.2133
     18 C           5.1922    0.3867   -0.5610 C.ar    1  UNL1        0.0860
     19 C           6.0079   -0.1870    0.3778 C.ar    1  UNL1       -0.0363
     20 C           7.1990    0.4335    0.7878 C.ar    1  UNL1       -0.0571
     21 C           7.5382    1.6419    0.2240 C.ar    1  UNL1       -0.0235
     22 C           6.7390    2.2509   -0.7274 C.ar    1  UNL1        0.1603
     23 F           7.1482    3.4393   -1.2302 F       1  UNL1       -0.2024
     24 C           5.5792    1.6186   -1.1078 C.ar    1  UNL1        0.1806
     25 F           4.8031    2.2097   -2.0315 F       1  UNL1       -0.2005
     26 C           0.3010   -1.0770   -0.0000 C.ar    1  UNL1       -0.0244
     27 C          -2.3174   -2.3269   -0.6766 C.ar    1  UNL1        0.0557
     28 N          -3.5388   -2.8693   -0.9742 N.ar    1  UNL1       -0.2363
     29 C          -4.6672   -2.1935   -0.7253 C.ar    1  UNL1        0.1470
     30 N          -5.9441   -2.7560   -1.0344 N.pl3   1  UNL1       -0.3413
     31 H          -7.7198    1.5605    0.2299 H       1  UNL1        0.0426
     32 H          -7.3092    1.6818    2.0294 H       1  UNL1        0.0426
     33 H          -6.7833    2.9538    0.8716 H       1  UNL1        0.0426
     34 H          -4.8202    1.5042    0.9130 H       1  UNL1        0.1487
     35 H          -1.8555    1.2759    0.9479 H       1  UNL1        0.0625
     36 H           0.2431    2.4352    1.5603 H       1  UNL1        0.0633
     37 H           3.7067   -0.1494   -1.9628 H       1  UNL1        0.1738
     38 H           5.8060   -1.1401    0.8537 H       1  UNL1        0.0637
     39 H           7.8398   -0.0196    1.5275 H       1  UNL1        0.0619
     40 H           8.4551    2.1250    0.5360 H       1  UNL1        0.0647
     41 H           0.3421   -2.0685   -0.4394 H       1  UNL1        0.0644
     42 H          -1.4117   -2.8872   -0.8843 H       1  UNL1        0.0852
     43 H          -6.6296   -3.0257   -0.2803 H       1  UNL1        0.1438
     44 H          -6.2644   -2.9290   -2.0166 H       1  UNL1        0.1438
@<TRIPOS>BOND
     1     1     2    1
     2     2     3   am
     3     3     4    2
     4     3     5    1
     5     5     6   ar
     6     6     7   ar
     7     7     8    1
     8     8     9   ar
     9     9    10   ar
    10    10    11   ar
    11    11    12    1
    12    11    13   ar
    13    13    14    1
    14    14    15    2
    15    14    16    2
    16    14    17    1
    17    17    18    1
    18    18    19   ar
    19    19    20   ar
    20    20    21   ar
    21    21    22   ar
    22    22    23    1
    23    22    24   ar
    24    24    25    1
    25    13    26   ar
    26     7    27   ar
    27    27    28   ar
    28    28    29   ar
    29    29    30    1
    30    29     5   ar
    31    26     8   ar
    32    24    18   ar
    33     1    31    1
    34     1    32    1
    35     1    33    1
    36     2    34    1
    37     9    35    1
    38    10    36    1
    39    17    37    1
    40    19    38    1
    41    20    39    1
    42    21    40    1
    43    26    41    1
    44    27    42    1
    45    30    43    1
    46    30    44    1
