
     RDKit          3D

 47 50  0  0  0  0  0  0  0  0999 V2000
   -1.2974   -1.3129    0.7757 C   0  0  0  0  0  0  0  0  0  0  0  0
   -1.8203   -0.1092    0.0086 C   0  0  2  0  0  0  0  0  0  0  0  0
   -0.6490    0.8051   -0.1883 C   0  0  0  0  0  0  0  0  0  0  0  0
    0.6232    0.4883    0.1599 C   0  0  0  0  0  0  0  0  0  0  0  0
    1.6925    1.3531   -0.0369 C   0  0  0  0  0  0  0  0  0  0  0  0
    3.0046    0.9435    0.3581 N   0  0  0  0  0  0  0  0  0  0  0  0
    3.8397    0.2495   -0.5851 C   0  0  0  0  0  0  0  0  0  0  0  0
    3.3654    0.0411   -1.7106 O   0  0  0  0  0  0  0  0  0  0  0  0
    5.1778   -0.1804   -0.2156 C   0  0  0  0  0  0  0  0  0  0  0  0
    5.9372   -0.8398   -1.1514 C   0  0  0  0  0  0  0  0  0  0  0  0
    7.2300   -1.2777   -0.8569 C   0  0  0  0  0  0  0  0  0  0  0  0
    7.7005   -1.0155    0.4126 C   0  0  0  0  0  0  0  0  0  0  0  0
    9.3222   -1.5397    0.8511 Cl  0  0  0  0  0  0  0  0  0  0  0  0
    6.9248   -0.3485    1.3503 C   0  0  0  0  0  0  0  0  0  0  0  0
    5.6819    0.0507    1.0072 N   0  0  0  0  0  0  0  0  0  0  0  0
    1.4468    2.5792   -0.6081 C   0  0  0  0  0  0  0  0  0  0  0  0
    0.1794    2.9540   -0.9805 C   0  0  0  0  0  0  0  0  0  0  0  0
   -0.8485    2.0680   -0.7677 C   0  0  0  0  0  0  0  0  0  0  0  0
   -2.1278    2.3994   -1.1204 F   0  0  0  0  0  0  0  0  0  0  0  0
   -2.7259    0.5871    0.8570 N   0  0  0  0  0  0  0  0  0  0  0  0
   -3.9711    0.4682    0.9594 C   0  0  0  0  0  0  0  0  0  0  0  0
   -4.6632    1.2899    1.8940 N   0  0  0  0  0  0  0  0  0  0  0  0
   -4.7274   -0.4841    0.1524 C   0  0  0  0  0  0  0  0  0  0  0  0
   -6.1010   -0.8928    0.4577 C   0  0  0  0  0  0  0  0  0  0  0  0
   -5.0041   -1.8763    0.7351 C   0  0  0  0  0  0  0  0  0  0  0  0
   -4.0898   -0.4896   -1.4878 S   0  0  0  0  0  6  0  0  0  0  0  0
   -4.5100    0.8076   -2.1487 O   0  0  0  0  0  0  0  0  0  0  0  0
   -4.5750   -1.6714   -2.2810 O   0  0  0  0  0  0  0  0  0  0  0  0
   -2.3267   -0.4822   -1.3364 C   0  0  1  0  0  0  0  0  0  0  0  0
   -1.7200    0.2258   -2.3763 F   0  0  0  0  0  0  0  0  0  0  0  0
   -0.5788   -1.8416    0.1318 H   0  0  0  0  0  0  0  0  0  0  0  0
   -0.7835   -1.0101    1.6989 H   0  0  0  0  0  0  0  0  0  0  0  0
   -2.1259   -2.0299    0.9724 H   0  0  0  0  0  0  0  0  0  0  0  0
    0.8336   -0.4939    0.6188 H   0  0  0  0  0  0  0  0  0  0  0  0
    3.3957    1.1209    1.3015 H   0  0  0  0  0  0  0  0  0  0  0  0
    5.5257   -1.0226   -2.1337 H   0  0  0  0  0  0  0  0  0  0  0  0
    7.8490   -1.7940   -1.5615 H   0  0  0  0  0  0  0  0  0  0  0  0
    7.3494   -0.1722    2.3297 H   0  0  0  0  0  0  0  0  0  0  0  0
    2.3091    3.2377   -0.7500 H   0  0  0  0  0  0  0  0  0  0  0  0
    0.0069    3.9137   -1.4244 H   0  0  0  0  0  0  0  0  0  0  0  0
   -4.6566    1.1150    2.9230 H   0  0  0  0  0  0  0  0  0  0  0  0
   -5.2142    2.1162    1.5695 H   0  0  0  0  0  0  0  0  0  0  0  0
   -6.5738   -0.4499    1.3506 H   0  0  0  0  0  0  0  0  0  0  0  0
   -6.7467   -1.1429   -0.4182 H   0  0  0  0  0  0  0  0  0  0  0  0
   -4.6590   -2.0390    1.7729 H   0  0  0  0  0  0  0  0  0  0  0  0
   -4.8958   -2.7474    0.0733 H   0  0  0  0  0  0  0  0  0  0  0  0
   -2.0043   -1.5503   -1.5227 H   0  0  0  0  0  0  0  0  0  0  0  0
  2  1  1  1
  2  3  1  0
  3  4  2  0
  4  5  1  0
  5  6  1  0
  6  7  1  0
  7  8  2  0
  7  9  1  0
  9 10  2  0
 10 11  1  0
 11 12  2  0
 12 13  1  0
 12 14  1  0
 14 15  2  0
  5 16  2  0
 16 17  1  0
 17 18  2  0
 18 19  1  0
  2 20  1  0
 20 21  2  0
 21 22  1  0
 21 23  1  0
 23 24  1  0
 24 25  1  0
 23 26  1  0
 26 27  2  0
 26 28  2  0
 26 29  1  0
 29 30  1  0
 29  2  1  0
 18  3  1  0
 25 23  1  0
 15  9  1  0
  1 31  1  0
  1 32  1  0
  1 33  1  0
  4 34  1  0
  6 35  1  0
 10 36  1  0
 11 37  1  0
 14 38  1  0
 16 39  1  0
 17 40  1  0
 22 41  1  0
 22 42  1  0
 24 43  1  0
 24 44  1  0
 25 45  1  0
 25 46  1  0
 29 47  1  6
M  END
$$$$
