@<TRIPOS>MOLECULE
*****
 56 58 0 0 0
SMALL
GASTEIGER

@<TRIPOS>ATOM
      1 C          -4.4135    2.2695   -3.2377 C.3     1  UNL1        0.0789
      2 O          -4.7687    1.3476   -2.2251 O.3     1  UNL1       -0.4933
      3 C          -3.8672    0.9825   -1.2571 C.ar    1  UNL1        0.1417
      4 C          -2.5852    1.4797   -1.2203 C.ar    1  UNL1       -0.0149
      5 C          -1.7350    1.0812   -0.2336 C.ar    1  UNL1       -0.0181
      6 C          -2.1513    0.1702    0.7471 C.ar    1  UNL1        0.1235
      7 N          -1.2141   -0.1793    1.7605 N.pl3   1  UNL1       -0.2975
      8 C           0.0735   -0.6718    1.3595 C.ar    1  UNL1        0.0683
      9 C           1.1753    0.1409    1.5955 C.ar    1  UNL1        0.0034
     10 C           2.4306   -0.2648    1.2361 C.ar    1  UNL1        0.1433
     11 N           3.5561    0.5698    1.4664 N.pl3   1  UNL1       -0.3231
     12 C           4.8982    0.1966    1.1020 C.3     1  UNL1        0.0413
     13 C           5.8196    1.3093    1.6247 C.3     1  UNL1       -0.0095
     14 C           6.6064    1.9774    0.5485 C.3     1  UNL1        0.0495
     15 O           5.8551    2.4345   -0.5248 O.3     1  UNL1       -0.3781
     16 C           4.8195    1.6072   -0.8615 C.3     1  UNL1        0.0645
     17 C           5.1436    0.1947   -0.3987 C.3     1  UNL1        0.0471
     18 N           4.3673   -0.7334   -1.1396 N.3     1  UNL1       -0.3239
     19 N           2.5632   -1.4667    0.6510 N.ar    1  UNL1       -0.1336
     20 N           1.5285   -2.2092    0.4406 N.ar    1  UNL1       -0.1409
     21 C           0.2459   -1.8940    0.7625 C.ar    1  UNL1        0.1685
     22 C          -0.7938   -2.8637    0.5481 C.2     1  UNL1        0.2635
     23 N          -0.4758   -4.0198   -0.2519 N.am    1  UNL1       -0.3240
     24 O          -1.9271   -2.7602    1.0043 O.2     1  UNL1       -0.2686
     25 N          -3.3879   -0.2745    0.6649 N.ar    1  UNL1       -0.2329
     26 C          -4.2480    0.0873   -0.2811 C.ar    1  UNL1        0.0874
     27 C          -5.6379   -0.4609   -0.3386 C.3     1  UNL1       -0.0007
     28 C          -5.6059   -1.7023   -1.2097 C.3     1  UNL1       -0.0571
     29 C          -6.0181   -0.8383    1.0887 C.3     1  UNL1       -0.0571
     30 H          -5.3633    2.6528   -3.6772 H       1  UNL1        0.0660
     31 H          -3.8234    3.1257   -2.8217 H       1  UNL1        0.0660
     32 H          -3.8521    1.7240   -4.0174 H       1  UNL1        0.0660
     33 H          -2.2404    2.1868   -1.9691 H       1  UNL1        0.0656
     34 H          -0.7231    1.4516   -0.1750 H       1  UNL1        0.0653
     35 H          -1.4681   -0.0762    2.7608 H       1  UNL1        0.1536
     36 H           0.9950    1.1115    2.0779 H       1  UNL1        0.0672
     37 H           3.3549    1.5052    1.9312 H       1  UNL1        0.1478
     38 H           5.1761   -0.7896    1.5496 H       1  UNL1        0.0515
     39 H           5.2551    2.0778    2.1888 H       1  UNL1        0.0306
     40 H           6.5450    0.8282    2.3164 H       1  UNL1        0.0306
     41 H           7.0150    2.9246    1.0213 H       1  UNL1        0.0560
     42 H           7.5133    1.4366    0.2173 H       1  UNL1        0.0560
     43 H           4.6045    1.6123   -1.9506 H       1  UNL1        0.0576
     44 H           3.9322    1.9403   -0.2806 H       1  UNL1        0.0576
     45 H           6.2398    0.0695   -0.5387 H       1  UNL1        0.0499
     46 H           4.7352   -1.7048   -1.2043 H       1  UNL1        0.1186
     47 H           4.0404   -0.3556   -2.0706 H       1  UNL1        0.1186
     48 H           0.5111   -4.3381   -0.3395 H       1  UNL1        0.1453
     49 H          -1.2444   -4.5138   -0.7279 H       1  UNL1        0.1453
     50 H          -6.2774    0.3112   -0.7528 H       1  UNL1        0.0360
     51 H          -4.7116   -1.7108   -1.8667 H       1  UNL1        0.0236
     52 H          -5.6085   -2.5957   -0.5309 H       1  UNL1        0.0236
     53 H          -6.4922   -1.7014   -1.8455 H       1  UNL1        0.0236
     54 H          -6.2963   -1.8964    1.1675 H       1  UNL1        0.0236
     55 H          -6.8674   -0.1670    1.3704 H       1  UNL1        0.0236
     56 H          -5.2025   -0.6182    1.8039 H       1  UNL1        0.0236
@<TRIPOS>BOND
     1     1     2    1
     2     2     3    1
     3     3     4   ar
     4     4     5   ar
     5     5     6   ar
     6     6     7    1
     7     7     8    1
     8     8     9   ar
     9     9    10   ar
    10    10    11    1
    11    11    12    1
    12    12    13    1
    13    13    14    1
    14    14    15    1
    15    15    16    1
    16    16    17    1
    17    17    18    1
    18    10    19   ar
    19    19    20   ar
    20    20    21   ar
    21    21    22    1
    22    22    23   am
    23    22    24    2
    24     6    25   ar
    25    25    26   ar
    26    26    27    1
    27    27    28    1
    28    27    29    1
    29    26     3   ar
    30    21     8   ar
    31    17    12    1
    32     1    30    1
    33     1    31    1
    34     1    32    1
    35     4    33    1
    36     5    34    1
    37     7    35    1
    38     9    36    1
    39    11    37    1
    40    12    38    1
    41    13    39    1
    42    13    40    1
    43    14    41    1
    44    14    42    1
    45    16    43    1
    46    16    44    1
    47    17    45    1
    48    18    46    1
    49    18    47    1
    50    23    48    1
    51    23    49    1
    52    27    50    1
    53    28    51    1
    54    28    52    1
    55    28    53    1
    56    29    54    1
    57    29    55    1
    58    29    56    1
