@<TRIPOS>MOLECULE
*****
 50 52 0 0 0
SMALL
GASTEIGER

@<TRIPOS>ATOM
      1 C           1.2214    1.7109    0.7162 C.3     1  UNL1       -0.0512
      2 C           0.8468    0.5366   -0.1482 C.3     1  UNL1        0.0453
      3 C           0.9387   -0.7356    0.6578 C.3     1  UNL1       -0.0512
      4 C           1.7544    0.4148   -1.3552 C.3     1  UNL1       -0.0142
      5 C           3.1469    0.2341   -0.8817 C.ar    1  UNL1       -0.0464
      6 C           3.9477    1.3305   -0.6650 C.ar    1  UNL1       -0.0580
      7 C           5.2482    1.2031   -0.2246 C.ar    1  UNL1       -0.0499
      8 C           5.7520   -0.0600    0.0023 C.ar    1  UNL1        0.0548
      9 C           7.1617   -0.2643    0.4828 C.3     1  UNL1        0.4174
     10 F           7.1784   -0.5499    1.8462 F       1  UNL1       -0.1659
     11 F           7.8774    0.9122    0.2597 F       1  UNL1       -0.1659
     12 F           7.7751   -1.2857   -0.2198 F       1  UNL1       -0.1659
     13 C           4.9612   -1.1702   -0.2104 C.ar    1  UNL1       -0.0499
     14 C           3.6631   -1.0337   -0.6504 C.ar    1  UNL1       -0.0580
     15 C          -0.5880    0.7174   -0.5689 C.2     1  UNL1        0.2191
     16 O          -0.8174    0.7877   -1.7837 O.2     1  UNL1       -0.2752
     17 N          -1.5463    0.7915    0.4447 N.am    1  UNL1       -0.3123
     18 C          -2.9503    0.9438    0.2368 C.3     1  UNL1        0.0418
     19 C          -3.6874   -0.1641   -0.4373 C.3     1  UNL1        0.1305
     20 C          -5.1607    0.2883   -0.4902 C.3     1  UNL1       -0.0096
     21 C          -5.7638    0.5378    0.8380 C.3     1  UNL1       -0.0474
     22 C          -6.2426   -0.5878   -0.0636 C.3     1  UNL1       -0.0474
     23 N          -3.2131   -0.4140   -1.7563 N.am    1  UNL1       -0.2834
     24 C          -2.6838   -1.7278   -1.8078 C.2     1  UNL1        0.3068
     25 O          -2.1116   -2.2313   -2.8363 O.2     1  UNL1       -0.2524
     26 N          -2.8946   -2.3594   -0.5616 N.am    1  UNL1       -0.2383
     27 C          -3.5594   -1.4362    0.2736 C.2     1  UNL1        0.2457
     28 O          -3.9428   -1.7587    1.4361 O.2     1  UNL1       -0.2729
     29 H           2.1994    1.5747    1.2093 H       1  UNL1        0.0240
     30 H           0.4065    1.9607    1.4087 H       1  UNL1        0.0240
     31 H           1.3528    2.6141    0.0508 H       1  UNL1        0.0240
     32 H           0.1137   -0.8082    1.3949 H       1  UNL1        0.0240
     33 H           1.9312   -0.8008    1.1635 H       1  UNL1        0.0240
     34 H           0.7876   -1.6176   -0.0317 H       1  UNL1        0.0240
     35 H           1.4527   -0.4704   -1.9483 H       1  UNL1        0.0323
     36 H           1.6551    1.3050   -2.0155 H       1  UNL1        0.0323
     37 H           3.5622    2.3245   -0.8400 H       1  UNL1        0.0620
     38 H           5.8847    2.0801   -0.0526 H       1  UNL1        0.0623
     39 H           5.3899   -2.1521   -0.0216 H       1  UNL1        0.0623
     40 H           3.0396   -1.8772   -0.8196 H       1  UNL1        0.0620
     41 H          -1.2193    0.7306    1.4773 H       1  UNL1        0.1488
     42 H          -3.1684    1.9107   -0.3168 H       1  UNL1        0.0488
     43 H          -3.4812    1.0929    1.2305 H       1  UNL1        0.0488
     44 H          -5.3304    1.0467   -1.2721 H       1  UNL1        0.0327
     45 H          -6.4482    1.4121    0.9984 H       1  UNL1        0.0269
     46 H          -5.2579    0.2121    1.7718 H       1  UNL1        0.0269
     47 H          -6.0974   -1.6323    0.2688 H       1  UNL1        0.0269
     48 H          -7.2507   -0.4115   -0.4896 H       1  UNL1        0.0269
     49 H          -3.2429    0.2285   -2.6088 H       1  UNL1        0.1513
     50 H          -2.5904   -3.3527   -0.3377 H       1  UNL1        0.1591
@<TRIPOS>BOND
     1     1     2    1
     2     2     3    1
     3     2     4    1
     4     4     5    1
     5     5     6   ar
     6     6     7   ar
     7     7     8   ar
     8     8     9    1
     9     9    10    1
    10     9    11    1
    11     9    12    1
    12     8    13   ar
    13    13    14   ar
    14     2    15    1
    15    15    16    2
    16    15    17   am
    17    17    18    1
    18    19    18    1
    19    19    20    1
    20    20    21    1
    21    21    22    1
    22    19    23    1
    23    23    24   am
    24    24    25    2
    25    24    26   am
    26    26    27   am
    27    27    28    2
    28    14     5   ar
    29    27    19    1
    30    22    20    1
    31     1    29    1
    32     1    30    1
    33     1    31    1
    34     3    32    1
    35     3    33    1
    36     3    34    1
    37     4    35    1
    38     4    36    1
    39     6    37    1
    40     7    38    1
    41    13    39    1
    42    14    40    1
    43    17    41    1
    44    18    42    1
    45    18    43    1
    46    20    44    1
    47    21    45    1
    48    21    46    1
    49    22    47    1
    50    22    48    1
    51    23    49    1
    52    26    50    1
