@<TRIPOS>MOLECULE
*****
 37 40 0 0 0
SMALL
GASTEIGER

@<TRIPOS>ATOM
      1 N           1.6434   -0.8707    0.2071 N.pl3   1  UNL1       -0.2835
      2 C           3.0475   -0.9700    0.3564 C.ar    1  UNL1        0.0336
      3 C           3.6786   -2.2036    0.5615 C.ar    1  UNL1       -0.0405
      4 C           5.0397   -2.3184    0.7083 C.ar    1  UNL1       -0.0600
      5 C           5.8596   -1.2345    0.6629 C.ar    1  UNL1       -0.0616
      6 C           5.2937    0.0075    0.4631 C.ar    1  UNL1       -0.0600
      7 C           3.9383    0.0803    0.3218 C.ar    1  UNL1       -0.0405
      8 C           0.8698    0.2960   -0.0043 C.ar    1  UNL1        0.2243
      9 N           1.3078    1.5561   -0.1078 N.ar    1  UNL1       -0.1949
     10 C           0.5014    2.6054   -0.3087 C.ar    1  UNL1        0.1625
     11 C           0.7523    3.9537   -0.4408 C.ar    1  UNL1        0.0026
     12 C          -0.4715    4.5412   -0.6290 C.ar    1  UNL1        0.0520
     13 N          -1.3775    3.5558   -0.6034 N.ar    1  UNL1       -0.1705
     14 N          -0.7974    2.3703   -0.4088 N.ar    1  UNL1       -0.1831
     15 C          -1.3344    1.1412   -0.3186 C.ar    1  UNL1        0.2254
     16 N          -2.7256    0.9586   -0.4338 N.pl3   1  UNL1       -0.2835
     17 C          -3.4779   -0.2318   -0.3692 C.ar    1  UNL1        0.0336
     18 C          -2.9598   -1.4925   -0.1718 C.ar    1  UNL1       -0.0405
     19 C          -3.6932   -2.6579   -0.1083 C.ar    1  UNL1       -0.0600
     20 C          -5.0617   -2.5731   -0.2524 C.ar    1  UNL1       -0.0616
     21 C          -5.6419   -1.3397   -0.4528 C.ar    1  UNL1       -0.0600
     22 C          -4.8496   -0.2163   -0.5056 C.ar    1  UNL1       -0.0405
     23 N          -0.4551    0.1635   -0.1188 N.ar    1  UNL1       -0.1805
     24 H           1.1389   -1.7973    0.2653 H       1  UNL1        0.1550
     25 H           3.0708   -3.0989    0.6058 H       1  UNL1        0.0636
     26 H           5.4468   -3.3191    0.8644 H       1  UNL1        0.0618
     27 H           6.9161   -1.4230    0.7884 H       1  UNL1        0.0618
     28 H           5.9448    0.8561    0.4285 H       1  UNL1        0.0618
     29 H           3.5688    1.0815    0.1693 H       1  UNL1        0.0636
     30 H           1.7172    4.4205   -0.4004 H       1  UNL1        0.0670
     31 H          -0.6610    5.5925   -0.7698 H       1  UNL1        0.0848
     32 H          -3.3066    1.8376   -0.5929 H       1  UNL1        0.1550
     33 H          -1.9173   -1.6350   -0.0530 H       1  UNL1        0.0636
     34 H          -3.2481   -3.6287    0.0482 H       1  UNL1        0.0618
     35 H          -5.6736   -3.4640   -0.2089 H       1  UNL1        0.0618
     36 H          -6.7083   -1.2713   -0.5653 H       1  UNL1        0.0618
     37 H          -5.3748    0.7277   -0.6669 H       1  UNL1        0.0636
@<TRIPOS>BOND
     1     1     2    1
     2     2     3   ar
     3     3     4   ar
     4     4     5   ar
     5     5     6   ar
     6     6     7   ar
     7     1     8    1
     8     8     9   ar
     9     9    10   ar
    10    10    11   ar
    11    11    12   ar
    12    12    13   ar
    13    13    14   ar
    14    14    15   ar
    15    15    16    1
    16    16    17    1
    17    17    18   ar
    18    18    19   ar
    19    19    20   ar
    20    20    21   ar
    21    21    22   ar
    22    15    23   ar
    23     7     2   ar
    24    23     8   ar
    25    14    10   ar
    26    22    17   ar
    27     1    24    1
    28     3    25    1
    29     4    26    1
    30     5    27    1
    31     6    28    1
    32     7    29    1
    33    11    30    1
    34    12    31    1
    35    16    32    1
    36    18    33    1
    37    19    34    1
    38    20    35    1
    39    21    36    1
    40    22    37    1
