
     RDKit          3D

 52 55  0  0  0  0  0  0  0  0999 V2000
    2.3033   -0.4374    2.2674 C   0  0  0  0  0  0  0  0  0  0  0  0
    1.7223   -0.1295    0.9364 C   0  0  0  0  0  0  0  0  0  0  0  0
    2.2822   -0.5133   -0.2605 C   0  0  0  0  0  0  0  0  0  0  0  0
    3.4159   -1.2261   -0.4970 O   0  0  0  0  0  0  0  0  0  0  0  0
    4.7029   -0.7399   -0.6323 C   0  0  0  0  0  0  0  0  0  0  0  0
    5.2378   -0.3048   -1.8134 C   0  0  0  0  0  0  0  0  0  0  0  0
    6.5234    0.1604   -1.8529 C   0  0  0  0  0  0  0  0  0  0  0  0
    7.3244    0.2119   -0.7281 C   0  0  0  0  0  0  0  0  0  0  0  0
    8.9811    0.8140   -0.7908 Cl  0  0  0  0  0  0  0  0  0  0  0  0
    6.7521   -0.2342    0.4411 C   0  0  0  0  0  0  0  0  0  0  0  0
    5.4632   -0.7117    0.5337 C   0  0  0  0  0  0  0  0  0  0  0  0
    1.4372   -0.0173   -1.2367 C   0  0  0  0  0  0  0  0  0  0  0  0
    1.5176   -0.1099   -2.6103 C   0  0  0  0  0  0  0  0  0  0  0  0
    0.5217    0.4858   -3.3530 C   0  0  0  0  0  0  0  0  0  0  0  0
   -0.5074    1.1448   -2.7139 C   0  0  0  0  0  0  0  0  0  0  0  0
   -1.4721    1.7198   -3.5068 F   0  0  0  0  0  0  0  0  0  0  0  0
   -0.5668    1.2230   -1.3735 N   0  0  0  0  0  0  0  0  0  0  0  0
    0.3869    0.6538   -0.6163 C   0  0  0  0  0  0  0  0  0  0  0  0
    0.5925    0.5658    0.7282 N   0  0  0  0  0  0  0  0  0  0  0  0
   -0.3257    1.1681    1.6806 C   0  0  0  0  0  0  0  0  0  0  0  0
   -1.4328    0.2651    2.0739 C   0  0  0  0  0  0  0  0  0  0  0  0
   -1.3908   -0.5790    3.1556 C   0  0  0  0  0  0  0  0  0  0  0  0
   -2.4648   -1.3884    3.4516 C   0  0  0  0  0  0  0  0  0  0  0  0
   -3.6059   -1.3788    2.6807 C   0  0  0  0  0  0  0  0  0  0  0  0
   -4.9498   -2.4368    3.1073 Cl  0  0  0  0  0  0  0  0  0  0  0  0
   -3.6813   -0.5328    1.5746 C   0  0  0  0  0  0  0  0  0  0  0  0
   -4.8331   -0.5693    0.8542 O   0  0  0  0  0  0  0  0  0  0  0  0
   -5.2102    0.1335   -0.2741 C   0  0  1  0  0  0  0  0  0  0  0  0
   -5.4350   -0.7866   -1.4826 C   0  0  0  0  0  0  0  0  0  0  0  0
   -6.4118    0.9899   -0.0536 C   0  0  0  0  0  0  0  0  0  0  0  0
   -6.9823    1.0284    1.0670 O   0  0  0  0  0  0  0  0  0  0  0  0
   -6.9452    1.7727   -1.0666 O   0  0  0  0  0  0  0  0  0  0  0  0
   -2.5983    0.2606    1.3046 C   0  0  0  0  0  0  0  0  0  0  0  0
    3.2512    0.1728    2.3702 H   0  0  0  0  0  0  0  0  0  0  0  0
    2.5183   -1.4943    2.4187 H   0  0  0  0  0  0  0  0  0  0  0  0
    1.6508   -0.0203    3.0780 H   0  0  0  0  0  0  0  0  0  0  0  0
    4.6452   -0.3317   -2.7038 H   0  0  0  0  0  0  0  0  0  0  0  0
    6.9859    0.5186   -2.7869 H   0  0  0  0  0  0  0  0  0  0  0  0
    7.4052   -0.1858    1.3274 H   0  0  0  0  0  0  0  0  0  0  0  0
    5.0855   -1.0490    1.4904 H   0  0  0  0  0  0  0  0  0  0  0  0
    2.3224   -0.6285   -3.1017 H   0  0  0  0  0  0  0  0  0  0  0  0
    0.5260    0.4491   -4.4516 H   0  0  0  0  0  0  0  0  0  0  0  0
   -0.7910    2.0967    1.2546 H   0  0  0  0  0  0  0  0  0  0  0  0
    0.2194    1.5288    2.5979 H   0  0  0  0  0  0  0  0  0  0  0  0
   -0.5223   -0.6186    3.7872 H   0  0  0  0  0  0  0  0  0  0  0  0
   -2.4483   -2.0706    4.3141 H   0  0  0  0  0  0  0  0  0  0  0  0
   -4.3970    0.8146   -0.5840 H   0  0  0  0  0  0  0  0  0  0  0  0
   -5.8412   -1.7659   -1.1556 H   0  0  0  0  0  0  0  0  0  0  0  0
   -6.0840   -0.2820   -2.2340 H   0  0  0  0  0  0  0  0  0  0  0  0
   -4.4567   -0.9569   -1.9773 H   0  0  0  0  0  0  0  0  0  0  0  0
   -7.7468    2.3982   -0.8921 H   0  0  0  0  0  0  0  0  0  0  0  0
   -2.6740    0.9233    0.4295 H   0  0  0  0  0  0  0  0  0  0  0  0
  1  2  1  0
  2  3  2  0
  3  4  1  0
  4  5  1  0
  5  6  2  0
  6  7  1  0
  7  8  2  0
  8  9  1  0
  8 10  1  0
 10 11  2  0
  3 12  1  0
 12 13  2  0
 13 14  1  0
 14 15  2  0
 15 16  1  0
 15 17  1  0
 17 18  2  0
 18 19  1  0
 19 20  1  0
 20 21  1  0
 21 22  2  0
 22 23  1  0
 23 24  2  0
 24 25  1  0
 24 26  1  0
 26 27  1  0
 27 28  1  0
 28 29  1  0
 28 30  1  0
 30 31  2  0
 30 32  1  0
 26 33  2  0
 19  2  1  0
 33 21  1  0
 11  5  1  0
 18 12  1  0
  1 34  1  0
  1 35  1  0
  1 36  1  0
  6 37  1  0
  7 38  1  0
 10 39  1  0
 11 40  1  0
 13 41  1  0
 14 42  1  0
 20 43  1  0
 20 44  1  0
 22 45  1  0
 23 46  1  0
 28 47  1  6
 29 48  1  0
 29 49  1  0
 29 50  1  0
 32 51  1  0
 33 52  1  0
M  END
$$$$
