@<TRIPOS>MOLECULE
*****
 52 55 0 0 0
SMALL
GASTEIGER

@<TRIPOS>ATOM
      1 C           2.3033   -0.4374    2.2674 C.3     1  UNL1       -0.0206
      2 C           1.7223   -0.1295    0.9364 C.ar    1  UNL1        0.0607
      3 C           2.2822   -0.5133   -0.2605 C.ar    1  UNL1        0.1580
      4 O           3.4159   -1.2261   -0.4970 O.3     1  UNL1       -0.4536
      5 C           4.7029   -0.7399   -0.6323 C.ar    1  UNL1        0.1286
      6 C           5.2378   -0.3048   -1.8134 C.ar    1  UNL1       -0.0180
      7 C           6.5234    0.1604   -1.8529 C.ar    1  UNL1       -0.0399
      8 C           7.3244    0.2119   -0.7281 C.ar    1  UNL1        0.0412
      9 CL          8.9811    0.8140   -0.7908 Cl      1  UNL1       -0.0835
     10 C           6.7521   -0.2342    0.4411 C.ar    1  UNL1       -0.0399
     11 C           5.4632   -0.7117    0.5337 C.ar    1  UNL1       -0.0180
     12 C           1.4372   -0.0173   -1.2367 C.ar    1  UNL1        0.0616
     13 C           1.5176   -0.1099   -2.6103 C.ar    1  UNL1       -0.0433
     14 C           0.5217    0.4858   -3.3530 C.ar    1  UNL1       -0.0065
     15 C          -0.5074    1.1448   -2.7139 C.ar    1  UNL1        0.2151
     16 F          -1.4721    1.7198   -3.5068 F       1  UNL1       -0.1838
     17 N          -0.5668    1.2230   -1.3735 N.ar    1  UNL1       -0.2010
     18 C           0.3869    0.6538   -0.6163 C.ar    1  UNL1        0.1479
     19 N           0.5925    0.5658    0.7282 N.ar    1  UNL1       -0.3213
     20 C          -0.3257    1.1681    1.6806 C.3     1  UNL1        0.0501
     21 C          -1.4328    0.2651    2.0739 C.ar    1  UNL1       -0.0242
     22 C          -1.3908   -0.5790    3.1556 C.ar    1  UNL1       -0.0553
     23 C          -2.4648   -1.3884    3.4516 C.ar    1  UNL1       -0.0395
     24 C          -3.6059   -1.3788    2.6807 C.ar    1  UNL1        0.0826
     25 CL         -4.9498   -2.4368    3.1073 Cl      1  UNL1       -0.0798
     26 C          -3.6813   -0.5328    1.5746 C.ar    1  UNL1        0.1402
     27 O          -4.8331   -0.5693    0.8542 O.3     1  UNL1       -0.4765
     28 C          -5.2102    0.1335   -0.2741 C.3     1  UNL1        0.1931
     29 C          -5.4350   -0.7866   -1.4826 C.3     1  UNL1       -0.0172
     30 C          -6.4118    0.9899   -0.0536 C.2     1  UNL1        0.3456
     31 O          -6.9823    1.0284    1.0670 O.2     1  UNL1       -0.2468
     32 O          -6.9452    1.7727   -1.0666 O.3     1  UNL1       -0.4781
     33 C          -2.5983    0.2606    1.3046 C.ar    1  UNL1       -0.0136
     34 H           3.2512    0.1728    2.3702 H       1  UNL1        0.0293
     35 H           2.5183   -1.4943    2.4187 H       1  UNL1        0.0293
     36 H           1.6508   -0.0203    3.0780 H       1  UNL1        0.0293
     37 H           4.6452   -0.3317   -2.7038 H       1  UNL1        0.0655
     38 H           6.9859    0.5186   -2.7869 H       1  UNL1        0.0633
     39 H           7.4052   -0.1858    1.3274 H       1  UNL1        0.0633
     40 H           5.0855   -1.0490    1.4904 H       1  UNL1        0.0655
     41 H           2.3224   -0.6285   -3.1017 H       1  UNL1        0.0627
     42 H           0.5260    0.4491   -4.4516 H       1  UNL1        0.0662
     43 H          -0.7910    2.0967    1.2546 H       1  UNL1        0.0542
     44 H           0.2194    1.5288    2.5979 H       1  UNL1        0.0542
     45 H          -0.5223   -0.6186    3.7872 H       1  UNL1        0.0621
     46 H          -2.4483   -2.0706    4.3141 H       1  UNL1        0.0633
     47 H          -4.3970    0.8146   -0.5840 H       1  UNL1        0.0849
     48 H          -5.8412   -1.7659   -1.1556 H       1  UNL1        0.0271
     49 H          -6.0840   -0.2820   -2.2340 H       1  UNL1        0.0271
     50 H          -4.4567   -0.9569   -1.9773 H       1  UNL1        0.0271
     51 H          -7.7468    2.3982   -0.8921 H       1  UNL1        0.2952
     52 H          -2.6740    0.9233    0.4295 H       1  UNL1        0.0658
@<TRIPOS>BOND
     1     1     2    1
     2     2     3   ar
     3     3     4    1
     4     4     5    1
     5     5     6   ar
     6     6     7   ar
     7     7     8   ar
     8     8     9    1
     9     8    10   ar
    10    10    11   ar
    11     3    12   ar
    12    12    13   ar
    13    13    14   ar
    14    14    15   ar
    15    15    16    1
    16    15    17   ar
    17    17    18   ar
    18    18    19   ar
    19    19    20    1
    20    20    21    1
    21    21    22   ar
    22    22    23   ar
    23    23    24   ar
    24    24    25    1
    25    24    26   ar
    26    26    27    1
    27    27    28    1
    28    28    29    1
    29    28    30    1
    30    30    31    2
    31    30    32    1
    32    26    33   ar
    33    19     2   ar
    34    33    21   ar
    35    11     5   ar
    36    18    12   ar
    37     1    34    1
    38     1    35    1
    39     1    36    1
    40     6    37    1
    41     7    38    1
    42    10    39    1
    43    11    40    1
    44    13    41    1
    45    14    42    1
    46    20    43    1
    47    20    44    1
    48    22    45    1
    49    23    46    1
    50    28    47    1
    51    29    48    1
    52    29    49    1
    53    29    50    1
    54    32    51    1
    55    33    52    1
