
     RDKit          3D

 83 88  0  0  0  0  0  0  0  0999 V2000
   13.1225   -0.0089   -3.1403 O   0  0  0  0  0  0  0  0  0  0  0  0
   12.2238   -0.2482   -2.2683 C   0  0  0  0  0  0  0  0  0  0  0  0
   12.6307   -0.7474   -1.0529 C   0  0  0  0  0  0  0  0  0  0  0  0
   11.6986   -1.0219   -0.0781 C   0  0  0  0  0  0  0  0  0  0  0  0
   10.3739   -0.7821   -0.3620 C   0  0  0  0  0  0  0  0  0  0  0  0
    9.3753   -1.0361    0.5737 C   0  0  0  0  0  0  0  0  0  0  0  0
    8.0459   -0.7858    0.2606 C   0  0  0  0  0  0  0  0  0  0  0  0
    7.6887   -0.2884   -0.9588 C   0  0  0  0  0  0  0  0  0  0  0  0
    6.3877   -0.0302   -1.2795 O   0  0  0  0  0  0  0  0  0  0  0  0
    5.3605   -0.2323   -0.2741 C   0  0  0  0  0  0  0  0  0  0  0  0
    5.5145    0.7502    0.8198 C   0  0  0  0  0  0  0  0  0  0  0  0
    4.7004    0.7060    2.0331 C   0  0  0  0  0  0  0  0  0  0  0  0
    3.2423    0.9008    2.0103 C   0  0  0  0  0  0  0  0  0  0  0  0
    2.4727   -0.0829    1.2439 C   0  0  0  0  0  0  0  0  0  0  0  0
    1.0223    0.0876    1.3659 N   0  0  0  0  0  0  0  0  0  0  0  0
    0.5317    1.2575    0.7407 C   0  0  0  0  0  0  0  0  0  0  0  0
   -0.0691    1.0895   -0.6113 C   0  0  0  0  0  0  0  0  0  0  0  0
   -0.8970   -0.0358   -0.7921 N   0  0  0  0  0  0  0  0  0  0  0  0
   -2.1430    0.2084   -1.4404 C   0  0  0  0  0  0  0  0  0  0  0  0
   -3.0927    1.0387   -0.5891 C   0  0  0  0  0  0  0  0  0  0  0  0
   -4.4058    1.2783   -1.2206 C   0  0  0  0  0  0  0  0  0  0  0  0
   -5.2637    0.1751   -1.4668 N   0  0  0  0  0  0  0  0  0  0  0  0
   -6.2413   -0.3473   -0.5699 C   0  0  0  0  0  0  0  0  0  0  0  0
   -7.5168    0.1905   -0.6059 C   0  0  0  0  0  0  0  0  0  0  0  0
   -8.4876   -0.2581    0.2138 C   0  0  0  0  0  0  0  0  0  0  0  0
   -8.2436   -1.2381    1.0865 N   0  0  0  0  0  0  0  0  0  0  0  0
   -7.0219   -1.7824    1.1489 C   0  0  0  0  0  0  0  0  0  0  0  0
   -6.7614   -2.7971    2.0401 C   0  0  0  0  0  0  0  0  0  0  0  0
   -5.5471   -3.4176    2.1709 C   0  0  0  0  0  0  0  0  0  0  0  0
   -4.5386   -2.9787    1.3443 C   0  0  0  0  0  0  0  0  0  0  0  0
   -4.7721   -1.9522    0.4311 C   0  0  0  0  0  0  0  0  0  0  0  0
   -5.9837   -1.3457    0.3145 C   0  0  0  0  0  0  0  0  0  0  0  0
   -9.8831    0.2776    0.2242 C   0  0  0  0  0  0  0  0  0  0  0  0
  -10.0545    1.5337   -0.5472 C   0  0  0  0  0  0  0  0  0  0  0  0
   -8.7572    2.2418   -0.8503 C   0  0  0  0  0  0  0  0  0  0  0  0
   -7.8345    1.2868   -1.5673 C   0  0  0  0  0  0  0  0  0  0  0  0
   -1.0107   -0.8027    0.4160 C   0  0  0  0  0  0  0  0  0  0  0  0
    0.4305   -1.1324    0.8406 C   0  0  0  0  0  0  0  0  0  0  0  0
    8.6964   -0.0325   -1.9044 C   0  0  0  0  0  0  0  0  0  0  0  0
   10.0283   -0.2830   -1.5936 C   0  0  0  0  0  0  0  0  0  0  0  0
   10.9585   -0.0307   -2.5096 O   0  0  0  0  0  0  0  0  0  0  0  0
   13.6656   -0.9432   -0.8097 H   0  0  0  0  0  0  0  0  0  0  0  0
   11.9459   -1.4150    0.9006 H   0  0  0  0  0  0  0  0  0  0  0  0
    9.6523   -1.4231    1.5266 H   0  0  0  0  0  0  0  0  0  0  0  0
    7.3101   -1.0324    1.0034 H   0  0  0  0  0  0  0  0  0  0  0  0
    5.4849   -1.2770    0.1302 H   0  0  0  0  0  0  0  0  0  0  0  0
    4.4474   -0.2156   -0.8612 H   0  0  0  0  0  0  0  0  0  0  0  0
    6.5840    1.0354    1.0505 H   0  0  0  0  0  0  0  0  0  0  0  0
    5.1898    1.7836    0.3262 H   0  0  0  0  0  0  0  0  0  0  0  0
    5.1883    1.4951    2.7398 H   0  0  0  0  0  0  0  0  0  0  0  0
    4.9553   -0.2527    2.6307 H   0  0  0  0  0  0  0  0  0  0  0  0
    3.0218    1.9295    1.5871 H   0  0  0  0  0  0  0  0  0  0  0  0
    2.9145    0.9715    3.0931 H   0  0  0  0  0  0  0  0  0  0  0  0
    2.7489   -1.1308    1.4260 H   0  0  0  0  0  0  0  0  0  0  0  0
    2.6879    0.1134    0.1445 H   0  0  0  0  0  0  0  0  0  0  0  0
   -0.3128    1.6381    1.3986 H   0  0  0  0  0  0  0  0  0  0  0  0
    1.2369    2.1306    0.7273 H   0  0  0  0  0  0  0  0  0  0  0  0
    0.8032    1.0507   -1.3364 H   0  0  0  0  0  0  0  0  0  0  0  0
   -0.5818    2.0536   -0.9196 H   0  0  0  0  0  0  0  0  0  0  0  0
   -1.8959    0.8292   -2.3482 H   0  0  0  0  0  0  0  0  0  0  0  0
   -2.5823   -0.7397   -1.7724 H   0  0  0  0  0  0  0  0  0  0  0  0
   -3.2529    0.5715    0.4056 H   0  0  0  0  0  0  0  0  0  0  0  0
   -2.5451    1.9801   -0.3801 H   0  0  0  0  0  0  0  0  0  0  0  0
   -4.2229    1.7682   -2.2309 H   0  0  0  0  0  0  0  0  0  0  0  0
   -4.9103    2.0924   -0.6215 H   0  0  0  0  0  0  0  0  0  0  0  0
   -5.2003   -0.3306   -2.3857 H   0  0  0  0  0  0  0  0  0  0  0  0
   -7.5602   -3.1334    2.6833 H   0  0  0  0  0  0  0  0  0  0  0  0
   -5.4011   -4.2212    2.9015 H   0  0  0  0  0  0  0  0  0  0  0  0
   -3.5588   -3.4302    1.4012 H   0  0  0  0  0  0  0  0  0  0  0  0
   -3.9854   -1.6258   -0.2123 H   0  0  0  0  0  0  0  0  0  0  0  0
  -10.1566    0.4072    1.3015 H   0  0  0  0  0  0  0  0  0  0  0  0
  -10.5415   -0.5333   -0.1621 H   0  0  0  0  0  0  0  0  0  0  0  0
  -10.6201    1.3998   -1.5086 H   0  0  0  0  0  0  0  0  0  0  0  0
  -10.6721    2.2476    0.0559 H   0  0  0  0  0  0  0  0  0  0  0  0
   -8.9988    3.1266   -1.4620 H   0  0  0  0  0  0  0  0  0  0  0  0
   -8.3300    2.6027    0.1111 H   0  0  0  0  0  0  0  0  0  0  0  0
   -8.4043    0.8535   -2.4193 H   0  0  0  0  0  0  0  0  0  0  0  0
   -6.9182    1.7850   -1.9394 H   0  0  0  0  0  0  0  0  0  0  0  0
   -1.5523   -1.7598    0.2744 H   0  0  0  0  0  0  0  0  0  0  0  0
   -1.4244   -0.1964    1.2714 H   0  0  0  0  0  0  0  0  0  0  0  0
    0.4108   -1.8955    1.6123 H   0  0  0  0  0  0  0  0  0  0  0  0
    0.9487   -1.5016   -0.0621 H   0  0  0  0  0  0  0  0  0  0  0  0
    8.4519    0.3557   -2.8676 H   0  0  0  0  0  0  0  0  0  0  0  0
  1  2  2  0
  2  3  1  0
  3  4  2  0
  4  5  1  0
  5  6  2  0
  6  7  1  0
  7  8  2  0
  8  9  1  0
  9 10  1  0
 10 11  1  0
 11 12  1  0
 12 13  1  0
 13 14  1  0
 14 15  1  0
 15 16  1  0
 16 17  1  0
 17 18  1  0
 18 19  1  0
 19 20  1  0
 20 21  1  0
 21 22  1  0
 22 23  1  0
 23 24  2  0
 24 25  1  0
 25 26  2  0
 26 27  1  0
 27 28  2  0
 28 29  1  0
 29 30  2  0
 30 31  1  0
 31 32  2  0
 25 33  1  0
 33 34  1  0
 34 35  1  0
 35 36  1  0
 18 37  1  0
 37 38  1  0
  8 39  1  0
 39 40  2  0
 40 41  1  0
 41  2  1  0
 40  5  1  0
 38 15  1  0
 32 23  1  0
 36 24  1  0
 32 27  1  0
  3 42  1  0
  4 43  1  0
  6 44  1  0
  7 45  1  0
 10 46  1  0
 10 47  1  0
 11 48  1  0
 11 49  1  0
 12 50  1  0
 12 51  1  0
 13 52  1  0
 13 53  1  0
 14 54  1  0
 14 55  1  0
 16 56  1  0
 16 57  1  0
 17 58  1  0
 17 59  1  0
 19 60  1  0
 19 61  1  0
 20 62  1  0
 20 63  1  0
 21 64  1  0
 21 65  1  0
 22 66  1  0
 28 67  1  0
 29 68  1  0
 30 69  1  0
 31 70  1  0
 33 71  1  0
 33 72  1  0
 34 73  1  0
 34 74  1  0
 35 75  1  0
 35 76  1  0
 36 77  1  0
 36 78  1  0
 37 79  1  0
 37 80  1  0
 38 81  1  0
 38 82  1  0
 39 83  1  0
M  END
$$$$
