@<TRIPOS>MOLECULE
*****
 83 88 0 0 0
SMALL
GASTEIGER

@<TRIPOS>ATOM
      1 O          13.1225   -0.0089   -3.1403 O.2     1  UNL1       -0.2452
      2 C          12.2238   -0.2482   -2.2683 C.ar    1  UNL1        0.3372
      3 C          12.6307   -0.7474   -1.0529 C.ar    1  UNL1        0.0236
      4 C          11.6986   -1.0219   -0.0781 C.ar    1  UNL1       -0.0443
      5 C          10.3739   -0.7821   -0.3620 C.ar    1  UNL1        0.0178
      6 C           9.3753   -1.0361    0.5737 C.ar    1  UNL1       -0.0476
      7 C           8.0459   -0.7858    0.2606 C.ar    1  UNL1       -0.0192
      8 C           7.6887   -0.2884   -0.9588 C.ar    1  UNL1        0.1240
      9 O           6.3877   -0.0302   -1.2795 O.3     1  UNL1       -0.4918
     10 C           5.3605   -0.2323   -0.2741 C.3     1  UNL1        0.0896
     11 C           5.5145    0.7502    0.8198 C.3     1  UNL1       -0.0186
     12 C           4.7004    0.7060    2.0331 C.3     1  UNL1       -0.0488
     13 C           3.2423    0.9008    2.0103 C.3     1  UNL1       -0.0401
     14 C           2.4727   -0.0829    1.2439 C.3     1  UNL1       -0.0010
     15 N           1.0223    0.0876    1.3659 N.3     1  UNL1       -0.2999
     16 C           0.5317    1.2575    0.7407 C.3     1  UNL1        0.0117
     17 C          -0.0691    1.0895   -0.6113 C.3     1  UNL1        0.0117
     18 N          -0.8970   -0.0358   -0.7921 N.3     1  UNL1       -0.2999
     19 C          -2.1430    0.2084   -1.4404 C.3     1  UNL1        0.0004
     20 C          -3.0927    1.0387   -0.5891 C.3     1  UNL1       -0.0246
     21 C          -4.4058    1.2783   -1.2206 C.3     1  UNL1        0.0103
     22 N          -5.2637    0.1751   -1.4668 N.pl3   1  UNL1       -0.3430
     23 C          -6.2413   -0.3473   -0.5699 C.ar    1  UNL1        0.0413
     24 C          -7.5168    0.1905   -0.6059 C.ar    1  UNL1       -0.0047
     25 C          -8.4876   -0.2581    0.2138 C.ar    1  UNL1        0.0469
     26 N          -8.2436   -1.2381    1.0865 N.ar    1  UNL1       -0.2512
     27 C          -7.0219   -1.7824    1.1489 C.ar    1  UNL1        0.0731
     28 C          -6.7614   -2.7971    2.0401 C.ar    1  UNL1       -0.0357
     29 C          -5.5471   -3.4176    2.1709 C.ar    1  UNL1       -0.0597
     30 C          -4.5386   -2.9787    1.3443 C.ar    1  UNL1       -0.0610
     31 C          -4.7721   -1.9522    0.4311 C.ar    1  UNL1       -0.0508
     32 C          -5.9837   -1.3457    0.3145 C.ar    1  UNL1        0.0215
     33 C          -9.8831    0.2776    0.2242 C.3     1  UNL1       -0.0101
     34 C         -10.0545    1.5337   -0.5472 C.3     1  UNL1       -0.0473
     35 C          -8.7572    2.2418   -0.8503 C.3     1  UNL1       -0.0486
     36 C          -7.8345    1.2868   -1.5673 C.3     1  UNL1       -0.0242
     37 C          -1.0107   -0.8027    0.4160 C.3     1  UNL1        0.0117
     38 C           0.4305   -1.1324    0.8406 C.3     1  UNL1        0.0117
     39 C           8.6964   -0.0325   -1.9044 C.ar    1  UNL1        0.0231
     40 C          10.0283   -0.2830   -1.5936 C.ar    1  UNL1        0.1425
     41 O          10.9585   -0.0307   -2.5096 O.2     1  UNL1       -0.4220
     42 H          13.6656   -0.9432   -0.8097 H       1  UNL1        0.0689
     43 H          11.9459   -1.4150    0.9006 H       1  UNL1        0.0627
     44 H           9.6523   -1.4231    1.5266 H       1  UNL1        0.0626
     45 H           7.3101   -1.0324    1.0034 H       1  UNL1        0.0654
     46 H           5.4849   -1.2770    0.1302 H       1  UNL1        0.0696
     47 H           4.4474   -0.2156   -0.8612 H       1  UNL1        0.0696
     48 H           6.5840    1.0354    1.0505 H       1  UNL1        0.0298
     49 H           5.1898    1.7836    0.3262 H       1  UNL1        0.0298
     50 H           5.1883    1.4951    2.7398 H       1  UNL1        0.0267
     51 H           4.9553   -0.2527    2.6307 H       1  UNL1        0.0267
     52 H           3.0218    1.9295    1.5871 H       1  UNL1        0.0278
     53 H           2.9145    0.9715    3.0931 H       1  UNL1        0.0278
     54 H           2.7489   -1.1308    1.4260 H       1  UNL1        0.0426
     55 H           2.6879    0.1134    0.1445 H       1  UNL1        0.0426
     56 H          -0.3128    1.6381    1.3986 H       1  UNL1        0.0439
     57 H           1.2369    2.1306    0.7273 H       1  UNL1        0.0439
     58 H           0.8032    1.0507   -1.3364 H       1  UNL1        0.0439
     59 H          -0.5818    2.0536   -0.9196 H       1  UNL1        0.0439
     60 H          -1.8959    0.8292   -2.3482 H       1  UNL1        0.0427
     61 H          -2.5823   -0.7397   -1.7724 H       1  UNL1        0.0427
     62 H          -3.2529    0.5715    0.4056 H       1  UNL1        0.0293
     63 H          -2.5451    1.9801   -0.3801 H       1  UNL1        0.0293
     64 H          -4.2229    1.7682   -2.2309 H       1  UNL1        0.0461
     65 H          -4.9103    2.0924   -0.6215 H       1  UNL1        0.0461
     66 H          -5.2003   -0.3306   -2.3857 H       1  UNL1        0.1461
     67 H          -7.5602   -3.1334    2.6833 H       1  UNL1        0.0639
     68 H          -5.4011   -4.2212    2.9015 H       1  UNL1        0.0618
     69 H          -3.5588   -3.4302    1.4012 H       1  UNL1        0.0618
     70 H          -3.9854   -1.6258   -0.2123 H       1  UNL1        0.0625
     71 H         -10.1566    0.4072    1.3015 H       1  UNL1        0.0328
     72 H         -10.5415   -0.5333   -0.1621 H       1  UNL1        0.0328
     73 H         -10.6201    1.3998   -1.5086 H       1  UNL1        0.0269
     74 H         -10.6721    2.2476    0.0559 H       1  UNL1        0.0269
     75 H          -8.9988    3.1266   -1.4620 H       1  UNL1        0.0269
     76 H          -8.3300    2.6027    0.1111 H       1  UNL1        0.0269
     77 H          -8.4043    0.8535   -2.4193 H       1  UNL1        0.0314
     78 H          -6.9182    1.7850   -1.9394 H       1  UNL1        0.0314
     79 H          -1.5523   -1.7598    0.2744 H       1  UNL1        0.0439
     80 H          -1.4244   -0.1964    1.2714 H       1  UNL1        0.0439
     81 H           0.4108   -1.8955    1.6123 H       1  UNL1        0.0439
     82 H           0.9487   -1.5016   -0.0621 H       1  UNL1        0.0439
     83 H           8.4519    0.3557   -2.8676 H       1  UNL1        0.0691
@<TRIPOS>BOND
     1     1     2    2
     2     2     3   ar
     3     3     4   ar
     4     4     5   ar
     5     5     6   ar
     6     6     7   ar
     7     7     8   ar
     8     8     9    1
     9     9    10    1
    10    10    11    1
    11    11    12    1
    12    12    13    1
    13    13    14    1
    14    14    15    1
    15    15    16    1
    16    16    17    1
    17    17    18    1
    18    18    19    1
    19    19    20    1
    20    20    21    1
    21    21    22    1
    22    22    23    1
    23    23    24   ar
    24    24    25   ar
    25    25    26   ar
    26    26    27   ar
    27    27    28   ar
    28    28    29   ar
    29    29    30   ar
    30    30    31   ar
    31    31    32   ar
    32    25    33    1
    33    33    34    1
    34    34    35    1
    35    35    36    1
    36    18    37    1
    37    37    38    1
    38     8    39   ar
    39    39    40   ar
    40    40    41   ar
    41    41     2   ar
    42    40     5   ar
    43    38    15    1
    44    32    23   ar
    45    36    24    1
    46    32    27   ar
    47     3    42    1
    48     4    43    1
    49     6    44    1
    50     7    45    1
    51    10    46    1
    52    10    47    1
    53    11    48    1
    54    11    49    1
    55    12    50    1
    56    12    51    1
    57    13    52    1
    58    13    53    1
    59    14    54    1
    60    14    55    1
    61    16    56    1
    62    16    57    1
    63    17    58    1
    64    17    59    1
    65    19    60    1
    66    19    61    1
    67    20    62    1
    68    20    63    1
    69    21    64    1
    70    21    65    1
    71    22    66    1
    72    28    67    1
    73    29    68    1
    74    30    69    1
    75    31    70    1
    76    33    71    1
    77    33    72    1
    78    34    73    1
    79    34    74    1
    80    35    75    1
    81    35    76    1
    82    36    77    1
    83    36    78    1
    84    37    79    1
    85    37    80    1
    86    38    81    1
    87    38    82    1
    88    39    83    1
