@<TRIPOS>MOLECULE
*****
 47 50 0 0 0
SMALL
GASTEIGER

@<TRIPOS>ATOM
      1 C           4.9340    1.0155    2.1481 C.3     1  UNL1        0.0122
      2 C           4.6085    0.5294    0.7587 C.2     1  UNL1        0.2102
      3 O           5.1107    1.1638   -0.1857 O.2     1  UNL1       -0.2761
      4 N           3.7697   -0.5953    0.5870 N.am    1  UNL1       -0.3099
      5 C           3.4197   -1.1089   -0.7117 C.3     1  UNL1        0.0555
      6 C           2.6933   -0.1470   -1.5700 C.ar    1  UNL1        0.0802
      7 C           3.2298    0.7110   -2.4934 C.ar    1  UNL1        0.0529
      8 N           2.1838    1.4072   -3.0365 N.ar    1  UNL1       -0.2343
      9 C           1.0327    0.9943   -2.4675 C.ar    1  UNL1        0.1544
     10 C          -0.2971    1.3745   -2.6607 C.ar    1  UNL1       -0.0153
     11 C          -1.2373    0.7271   -1.8911 C.ar    1  UNL1       -0.0290
     12 C          -0.8974   -0.2616   -0.9601 C.ar    1  UNL1        0.1103
     13 C          -1.9636   -0.8685   -0.2061 C.ar    1  UNL1        0.0968
     14 C          -2.8031   -0.2704    0.7153 C.ar    1  UNL1        0.0982
     15 C          -2.7687    1.1150    1.1262 C.ar    1  UNL1        0.0027
     16 C          -3.5074    2.0133    0.4096 C.ar    1  UNL1       -0.0498
     17 C          -3.4948    3.3319    0.7686 C.ar    1  UNL1       -0.0258
     18 C          -2.7268    3.7531    1.8656 C.ar    1  UNL1        0.1234
     19 F          -2.6911    5.0325    2.2440 F       1  UNL1       -0.2055
     20 C          -1.9918    2.8177    2.5678 C.ar    1  UNL1       -0.0258
     21 C          -2.0113    1.4914    2.1983 C.ar    1  UNL1       -0.0498
     22 N          -3.6890   -1.1564    1.1934 N.ar    1  UNL1       -0.2351
     23 C          -3.4272   -2.3138    0.5899 C.ar    1  UNL1        0.0973
     24 N          -2.3746   -2.1584   -0.2699 N.ar    1  UNL1       -0.3229
     25 C          -1.8815   -3.2695   -1.0250 C.3     1  UNL1        0.0852
     26 C          -0.9066   -4.0559   -0.1902 C.3     1  UNL1        0.2569
     27 F          -1.5339   -4.5415    0.9688 F       1  UNL1       -0.2073
     28 F           0.1814   -3.3623    0.2417 F       1  UNL1       -0.2073
     29 N           0.4063   -0.5548   -0.8494 N.ar    1  UNL1       -0.1632
     30 N           1.3468    0.0407   -1.5680 N.ar    1  UNL1       -0.2151
     31 H           4.0082    0.8854    2.7785 H       1  UNL1        0.0322
     32 H           5.7520    0.3632    2.5109 H       1  UNL1        0.0322
     33 H           5.1980    2.0803    2.1632 H       1  UNL1        0.0322
     34 H           3.3959   -1.0631    1.4347 H       1  UNL1        0.1491
     35 H           4.3720   -1.4217   -1.2209 H       1  UNL1        0.0527
     36 H           2.8280   -2.0528   -0.5972 H       1  UNL1        0.0527
     37 H           4.2723    0.8112   -2.7439 H       1  UNL1        0.0849
     38 H          -0.5286    2.1325   -3.3775 H       1  UNL1        0.0655
     39 H          -2.2742    0.9740   -1.9938 H       1  UNL1        0.0641
     40 H          -4.0894    1.6910   -0.4219 H       1  UNL1        0.0625
     41 H          -4.0652    4.0851    0.2313 H       1  UNL1        0.0646
     42 H          -1.3796    3.0990    3.4273 H       1  UNL1        0.0646
     43 H          -1.4308    0.7393    2.7484 H       1  UNL1        0.0625
     44 H          -3.9976   -3.2267    0.7862 H       1  UNL1        0.1029
     45 H          -1.4522   -2.9788   -2.0056 H       1  UNL1        0.0548
     46 H          -2.7164   -3.9852   -1.2741 H       1  UNL1        0.0548
     47 H          -0.6060   -4.9867   -0.7434 H       1  UNL1        0.1037
@<TRIPOS>BOND
     1     1     2    1
     2     2     3    2
     3     2     4   am
     4     4     5    1
     5     5     6    1
     6     6     7   ar
     7     7     8   ar
     8     8     9   ar
     9     9    10   ar
    10    10    11   ar
    11    11    12   ar
    12    12    13    1
    13    13    14   ar
    14    14    15    1
    15    15    16   ar
    16    16    17   ar
    17    17    18   ar
    18    18    19    1
    19    18    20   ar
    20    20    21   ar
    21    14    22   ar
    22    22    23   ar
    23    23    24   ar
    24    24    25    1
    25    25    26    1
    26    26    27    1
    27    26    28    1
    28    12    29   ar
    29    29    30   ar
    30    30     6   ar
    31    30     9   ar
    32    24    13   ar
    33    21    15   ar
    34     1    31    1
    35     1    32    1
    36     1    33    1
    37     4    34    1
    38     5    35    1
    39     5    36    1
    40     7    37    1
    41    10    38    1
    42    11    39    1
    43    16    40    1
    44    17    41    1
    45    20    42    1
    46    21    43    1
    47    23    44    1
    48    25    45    1
    49    25    46    1
    50    26    47    1
