
     RDKit          3D

 47 50  0  0  0  0  0  0  0  0999 V2000
    4.9340    1.0155    2.1481 C   0  0  0  0  0  0  0  0  0  0  0  0
    4.6085    0.5294    0.7587 C   0  0  0  0  0  0  0  0  0  0  0  0
    5.1107    1.1638   -0.1857 O   0  0  0  0  0  0  0  0  0  0  0  0
    3.7697   -0.5953    0.5870 N   0  0  0  0  0  0  0  0  0  0  0  0
    3.4197   -1.1089   -0.7117 C   0  0  0  0  0  0  0  0  0  0  0  0
    2.6933   -0.1470   -1.5700 C   0  0  0  0  0  0  0  0  0  0  0  0
    3.2298    0.7110   -2.4934 C   0  0  0  0  0  0  0  0  0  0  0  0
    2.1838    1.4072   -3.0365 N   0  0  0  0  0  0  0  0  0  0  0  0
    1.0327    0.9943   -2.4675 C   0  0  0  0  0  0  0  0  0  0  0  0
   -0.2971    1.3745   -2.6607 C   0  0  0  0  0  0  0  0  0  0  0  0
   -1.2373    0.7271   -1.8911 C   0  0  0  0  0  0  0  0  0  0  0  0
   -0.8974   -0.2616   -0.9601 C   0  0  0  0  0  0  0  0  0  0  0  0
   -1.9636   -0.8685   -0.2061 C   0  0  0  0  0  0  0  0  0  0  0  0
   -2.8031   -0.2704    0.7153 C   0  0  0  0  0  0  0  0  0  0  0  0
   -2.7687    1.1150    1.1262 C   0  0  0  0  0  0  0  0  0  0  0  0
   -3.5074    2.0133    0.4096 C   0  0  0  0  0  0  0  0  0  0  0  0
   -3.4948    3.3319    0.7686 C   0  0  0  0  0  0  0  0  0  0  0  0
   -2.7268    3.7531    1.8656 C   0  0  0  0  0  0  0  0  0  0  0  0
   -2.6911    5.0325    2.2440 F   0  0  0  0  0  0  0  0  0  0  0  0
   -1.9918    2.8177    2.5678 C   0  0  0  0  0  0  0  0  0  0  0  0
   -2.0113    1.4914    2.1983 C   0  0  0  0  0  0  0  0  0  0  0  0
   -3.6890   -1.1564    1.1934 N   0  0  0  0  0  0  0  0  0  0  0  0
   -3.4272   -2.3138    0.5899 C   0  0  0  0  0  0  0  0  0  0  0  0
   -2.3746   -2.1584   -0.2699 N   0  0  0  0  0  0  0  0  0  0  0  0
   -1.8815   -3.2695   -1.0250 C   0  0  0  0  0  0  0  0  0  0  0  0
   -0.9066   -4.0559   -0.1902 C   0  0  0  0  0  0  0  0  0  0  0  0
   -1.5339   -4.5415    0.9688 F   0  0  0  0  0  0  0  0  0  0  0  0
    0.1814   -3.3623    0.2417 F   0  0  0  0  0  0  0  0  0  0  0  0
    0.4063   -0.5548   -0.8494 N   0  0  0  0  0  0  0  0  0  0  0  0
    1.3468    0.0407   -1.5680 N   0  0  0  0  0  0  0  0  0  0  0  0
    4.0082    0.8854    2.7785 H   0  0  0  0  0  0  0  0  0  0  0  0
    5.7520    0.3632    2.5109 H   0  0  0  0  0  0  0  0  0  0  0  0
    5.1980    2.0803    2.1632 H   0  0  0  0  0  0  0  0  0  0  0  0
    3.3959   -1.0631    1.4347 H   0  0  0  0  0  0  0  0  0  0  0  0
    4.3720   -1.4217   -1.2209 H   0  0  0  0  0  0  0  0  0  0  0  0
    2.8280   -2.0528   -0.5972 H   0  0  0  0  0  0  0  0  0  0  0  0
    4.2723    0.8112   -2.7439 H   0  0  0  0  0  0  0  0  0  0  0  0
   -0.5286    2.1325   -3.3775 H   0  0  0  0  0  0  0  0  0  0  0  0
   -2.2742    0.9740   -1.9938 H   0  0  0  0  0  0  0  0  0  0  0  0
   -4.0894    1.6910   -0.4219 H   0  0  0  0  0  0  0  0  0  0  0  0
   -4.0652    4.0851    0.2313 H   0  0  0  0  0  0  0  0  0  0  0  0
   -1.3796    3.0990    3.4273 H   0  0  0  0  0  0  0  0  0  0  0  0
   -1.4308    0.7393    2.7484 H   0  0  0  0  0  0  0  0  0  0  0  0
   -3.9976   -3.2267    0.7862 H   0  0  0  0  0  0  0  0  0  0  0  0
   -1.4522   -2.9788   -2.0056 H   0  0  0  0  0  0  0  0  0  0  0  0
   -2.7164   -3.9852   -1.2741 H   0  0  0  0  0  0  0  0  0  0  0  0
   -0.6060   -4.9867   -0.7434 H   0  0  0  0  0  0  0  0  0  0  0  0
  1  2  1  0
  2  3  2  0
  2  4  1  0
  4  5  1  0
  5  6  1  0
  6  7  2  0
  7  8  1  0
  8  9  2  0
  9 10  1  0
 10 11  2  0
 11 12  1  0
 12 13  1  0
 13 14  2  0
 14 15  1  0
 15 16  2  0
 16 17  1  0
 17 18  2  0
 18 19  1  0
 18 20  1  0
 20 21  2  0
 14 22  1  0
 22 23  2  0
 23 24  1  0
 24 25  1  0
 25 26  1  0
 26 27  1  0
 26 28  1  0
 12 29  2  0
 29 30  1  0
 30  6  1  0
 30  9  1  0
 24 13  1  0
 21 15  1  0
  1 31  1  0
  1 32  1  0
  1 33  1  0
  4 34  1  0
  5 35  1  0
  5 36  1  0
  7 37  1  0
 10 38  1  0
 11 39  1  0
 16 40  1  0
 17 41  1  0
 20 42  1  0
 21 43  1  0
 23 44  1  0
 25 45  1  0
 25 46  1  0
 26 47  1  0
M  END
$$$$
