@<TRIPOS>MOLECULE
*****
 36 38 0 0 0
SMALL
GASTEIGER

@<TRIPOS>ATOM
      1 N           0.4380    3.8067    1.3565 N.pl3   1  UNL1       -0.3380
      2 C           0.0209    2.6727    0.6047 C.2     1  UNL1        0.1476
      3 N           0.4288    1.5144    0.7404 N.2     1  UNL1       -0.2495
      4 C           0.1606    0.2693    0.1207 C.3     1  UNL1        0.1185
      5 C           1.4687   -0.4007   -0.1149 C.ar    1  UNL1        0.0178
      6 C           2.6711    0.2059    0.2440 C.ar    1  UNL1       -0.0507
      7 C           3.8910   -0.3606    0.0457 C.ar    1  UNL1       -0.0259
      8 C           3.9799   -1.5986   -0.5384 C.ar    1  UNL1        0.1261
      9 F           5.1766   -2.2082   -0.7587 F       1  UNL1       -0.2054
     10 C           2.8383   -2.2348   -0.9077 C.ar    1  UNL1        0.0091
     11 C           1.6041   -1.6458   -0.6993 C.ar    1  UNL1        0.1317
     12 F           0.5297   -2.3254   -1.0785 F       1  UNL1       -0.2050
     13 C          -0.5040   -0.5383    1.2524 C.3     1  UNL1        0.0778
     14 O          -1.1110   -1.6694    0.8157 O.3     1  UNL1       -0.3713
     15 C          -2.2813   -1.3792    0.1209 C.3     1  UNL1        0.0872
     16 C          -3.4566   -1.4564    1.0637 C.3     1  UNL1        0.1162
     17 F          -3.4925   -2.7443    1.5633 F       1  UNL1       -0.2464
     18 C          -2.2071   -0.0557   -0.5676 C.3     1  UNL1       -0.0180
     19 C          -0.7752    0.2721   -1.0214 C.3     1  UNL1        0.0025
     20 C          -0.8907    1.5672   -1.8003 C.3     1  UNL1        0.0064
     21 S          -1.2175    2.9678   -0.6613 S.3     1  UNL1       -0.0907
     22 H           0.9239    4.5741    0.8234 H       1  UNL1        0.1442
     23 H           0.3059    3.9361    2.3622 H       1  UNL1        0.1442
     24 H           2.6257    1.1863    0.7080 H       1  UNL1        0.0623
     25 H           4.8248    0.1157    0.3269 H       1  UNL1        0.0646
     26 H           2.9089   -3.2221   -1.3734 H       1  UNL1        0.0675
     27 H          -1.2814    0.1306    1.7167 H       1  UNL1        0.0587
     28 H           0.2572   -0.6992    2.0230 H       1  UNL1        0.0587
     29 H          -2.4121   -2.2121   -0.6198 H       1  UNL1        0.0622
     30 H          -4.3977   -1.2194    0.5333 H       1  UNL1        0.0641
     31 H          -3.3248   -0.7020    1.8460 H       1  UNL1        0.0641
     32 H          -2.7965   -0.1496   -1.5247 H       1  UNL1        0.0295
     33 H          -2.6510    0.7738   -0.0120 H       1  UNL1        0.0295
     34 H          -0.5517   -0.4818   -1.8048 H       1  UNL1        0.0337
     35 H          -1.7560    1.4895   -2.4607 H       1  UNL1        0.0384
     36 H           0.0530    1.8213   -2.3240 H       1  UNL1        0.0384
@<TRIPOS>BOND
     1     1     2    1
     2     2     3    2
     3     3     4    1
     4     4     5    1
     5     5     6   ar
     6     6     7   ar
     7     7     8   ar
     8     8     9    1
     9     8    10   ar
    10    10    11   ar
    11    11    12    1
    12     4    13    1
    13    13    14    1
    14    14    15    1
    15    15    16    1
    16    16    17    1
    17    15    18    1
    18    18    19    1
    19    19    20    1
    20    20    21    1
    21    21     2    1
    22    19     4    1
    23    11     5   ar
    24     1    22    1
    25     1    23    1
    26     6    24    1
    27     7    25    1
    28    10    26    1
    29    13    27    1
    30    13    28    1
    31    15    29    1
    32    16    30    1
    33    16    31    1
    34    18    32    1
    35    18    33    1
    36    19    34    1
    37    20    35    1
    38    20    36    1
