
     RDKit          3D

 36 38  0  0  0  0  0  0  0  0999 V2000
    0.4380    3.8067    1.3565 N   0  0  0  0  0  0  0  0  0  0  0  0
    0.0209    2.6727    0.6047 C   0  0  0  0  0  0  0  0  0  0  0  0
    0.4288    1.5144    0.7404 N   0  0  0  0  0  0  0  0  0  0  0  0
    0.1606    0.2693    0.1207 C   0  0  1  0  0  0  0  0  0  0  0  0
    1.4687   -0.4007   -0.1149 C   0  0  0  0  0  0  0  0  0  0  0  0
    2.6711    0.2059    0.2440 C   0  0  0  0  0  0  0  0  0  0  0  0
    3.8910   -0.3606    0.0457 C   0  0  0  0  0  0  0  0  0  0  0  0
    3.9799   -1.5986   -0.5384 C   0  0  0  0  0  0  0  0  0  0  0  0
    5.1766   -2.2082   -0.7587 F   0  0  0  0  0  0  0  0  0  0  0  0
    2.8383   -2.2348   -0.9077 C   0  0  0  0  0  0  0  0  0  0  0  0
    1.6041   -1.6458   -0.6993 C   0  0  0  0  0  0  0  0  0  0  0  0
    0.5297   -2.3254   -1.0785 F   0  0  0  0  0  0  0  0  0  0  0  0
   -0.5040   -0.5383    1.2524 C   0  0  0  0  0  0  0  0  0  0  0  0
   -1.1110   -1.6694    0.8157 O   0  0  0  0  0  0  0  0  0  0  0  0
   -2.2813   -1.3792    0.1209 C   0  0  1  0  0  0  0  0  0  0  0  0
   -3.4566   -1.4564    1.0637 C   0  0  0  0  0  0  0  0  0  0  0  0
   -3.4925   -2.7443    1.5633 F   0  0  0  0  0  0  0  0  0  0  0  0
   -2.2071   -0.0557   -0.5676 C   0  0  0  0  0  0  0  0  0  0  0  0
   -0.7752    0.2721   -1.0214 C   0  0  1  0  0  0  0  0  0  0  0  0
   -0.8907    1.5672   -1.8003 C   0  0  0  0  0  0  0  0  0  0  0  0
   -1.2175    2.9678   -0.6613 S   0  0  0  0  0  0  0  0  0  0  0  0
    0.9239    4.5741    0.8234 H   0  0  0  0  0  0  0  0  0  0  0  0
    0.3059    3.9361    2.3622 H   0  0  0  0  0  0  0  0  0  0  0  0
    2.6257    1.1863    0.7080 H   0  0  0  0  0  0  0  0  0  0  0  0
    4.8248    0.1157    0.3269 H   0  0  0  0  0  0  0  0  0  0  0  0
    2.9089   -3.2221   -1.3734 H   0  0  0  0  0  0  0  0  0  0  0  0
   -1.2814    0.1306    1.7167 H   0  0  0  0  0  0  0  0  0  0  0  0
    0.2572   -0.6992    2.0230 H   0  0  0  0  0  0  0  0  0  0  0  0
   -2.4121   -2.2121   -0.6198 H   0  0  0  0  0  0  0  0  0  0  0  0
   -4.3977   -1.2194    0.5333 H   0  0  0  0  0  0  0  0  0  0  0  0
   -3.3248   -0.7020    1.8460 H   0  0  0  0  0  0  0  0  0  0  0  0
   -2.7965   -0.1496   -1.5247 H   0  0  0  0  0  0  0  0  0  0  0  0
   -2.6510    0.7738   -0.0120 H   0  0  0  0  0  0  0  0  0  0  0  0
   -0.5517   -0.4818   -1.8048 H   0  0  0  0  0  0  0  0  0  0  0  0
   -1.7560    1.4895   -2.4607 H   0  0  0  0  0  0  0  0  0  0  0  0
    0.0530    1.8213   -2.3240 H   0  0  0  0  0  0  0  0  0  0  0  0
  1  2  1  0
  2  3  2  0
  3  4  1  0
  4  5  1  6
  5  6  2  0
  6  7  1  0
  7  8  2  0
  8  9  1  0
  8 10  1  0
 10 11  2  0
 11 12  1  0
  4 13  1  0
 13 14  1  0
 14 15  1  0
 15 16  1  0
 16 17  1  0
 15 18  1  0
 18 19  1  0
 19 20  1  0
 20 21  1  0
 21  2  1  0
 19  4  1  0
 11  5  1  0
  1 22  1  0
  1 23  1  0
  6 24  1  0
  7 25  1  0
 10 26  1  0
 13 27  1  0
 13 28  1  0
 15 29  1  6
 16 30  1  0
 16 31  1  0
 18 32  1  0
 18 33  1  0
 19 34  1  6
 20 35  1  0
 20 36  1  0
M  END
$$$$
