@<TRIPOS>MOLECULE
*****
 30 31 0 0 0
SMALL
GASTEIGER

@<TRIPOS>ATOM
      1 N           5.0576    0.2096    0.2975 N.3     1  UNL1       -0.2035
      2 S           4.0208    0.9015   -0.9087 S.O2    1  UNL1        0.0562
      3 O           4.3030    2.3964   -0.8735 O.2     1  UNL1       -0.1533
      4 O           4.4112    0.3833   -2.2453 O.2     1  UNL1       -0.1533
      5 C           2.3471    0.5812   -0.5167 C.ar    1  UNL1        0.1115
      6 C           1.7081    1.5125    0.2738 C.ar    1  UNL1       -0.0332
      7 C           0.3866    1.3255    0.6236 C.ar    1  UNL1       -0.0318
      8 C          -0.2499    0.1921    0.1575 C.ar    1  UNL1        0.1142
      9 N          -1.6077   -0.0729    0.4711 N.am    1  UNL1       -0.2658
     10 C          -2.3143   -0.7694    1.5300 C.3     1  UNL1        0.0204
     11 C          -3.7548   -0.3905    1.4038 C.3     1  UNL1       -0.0285
     12 C          -3.9419    0.2201    0.0490 C.3     1  UNL1        0.0259
     13 C          -2.5717    0.4572   -0.4545 C.2     1  UNL1        0.2200
     14 O          -2.4729    1.0610   -1.5683 O.2     1  UNL1       -0.2753
     15 C           0.4059   -0.7285   -0.6323 C.ar    1  UNL1        0.2961
     16 C           1.7310   -0.5722   -1.0019 C.ar    1  UNL1        0.0438
     17 N          -0.2394   -1.8987   -1.1174 N.pl3   1  UNL1        0.0816
     18 O           0.5412   -3.0287   -1.2898 O.co2   1  UNL1       -0.5760
     19 O          -1.4105   -2.1792   -1.4466 O.2     1  UNL1        0.0415
     20 H           6.0427    0.4001    0.0506 H       1  UNL1        0.1442
     21 H           4.8103   -0.7998    0.3692 H       1  UNL1        0.1442
     22 H           2.1740    2.3972    0.6492 H       1  UNL1        0.0638
     23 H          -0.1966    1.9949    1.2356 H       1  UNL1        0.0639
     24 H          -2.1633   -1.8624    1.4864 H       1  UNL1        0.0469
     25 H          -1.9259   -0.3718    2.5055 H       1  UNL1        0.0469
     26 H          -4.0417    0.3633    2.1754 H       1  UNL1        0.0285
     27 H          -4.4304   -1.2599    1.5469 H       1  UNL1        0.0285
     28 H          -4.4867   -0.4311   -0.6674 H       1  UNL1        0.0359
     29 H          -4.4396    1.2185    0.1261 H       1  UNL1        0.0359
     30 H           2.3079   -1.2494   -1.6171 H       1  UNL1        0.0706
@<TRIPOS>UNITY_ATOM_ATTR
17 1
charge 1
18 1
charge -1
@<TRIPOS>BOND
     1     1     2    1
     2     2     3    2
     3     2     4    2
     4     2     5    1
     5     5     6   ar
     6     6     7   ar
     7     7     8   ar
     8     8     9    1
     9     9    10    1
    10    10    11    1
    11    11    12    1
    12    12    13    1
    13    13    14    2
    14     8    15   ar
    15    15    16   ar
    16    15    17    1
    17    17    18    1
    18    17    19    2
    19    16     5   ar
    20    13     9   am
    21     1    20    1
    22     1    21    1
    23     6    22    1
    24     7    23    1
    25    10    24    1
    26    10    25    1
    27    11    26    1
    28    11    27    1
    29    12    28    1
    30    12    29    1
    31    16    30    1
