
     RDKit          3D

 30 31  0  0  0  0  0  0  0  0999 V2000
    5.0576    0.2096    0.2975 N   0  0  0  0  0  0  0  0  0  0  0  0
    4.0208    0.9015   -0.9087 S   0  0  0  0  0  0  0  0  0  0  0  0
    4.3030    2.3964   -0.8735 O   0  0  0  0  0  0  0  0  0  0  0  0
    4.4112    0.3833   -2.2453 O   0  0  0  0  0  0  0  0  0  0  0  0
    2.3471    0.5812   -0.5167 C   0  0  0  0  0  0  0  0  0  0  0  0
    1.7081    1.5125    0.2738 C   0  0  0  0  0  0  0  0  0  0  0  0
    0.3866    1.3255    0.6236 C   0  0  0  0  0  0  0  0  0  0  0  0
   -0.2499    0.1921    0.1575 C   0  0  0  0  0  0  0  0  0  0  0  0
   -1.6077   -0.0729    0.4711 N   0  0  0  0  0  0  0  0  0  0  0  0
   -2.3143   -0.7694    1.5300 C   0  0  0  0  0  0  0  0  0  0  0  0
   -3.7548   -0.3905    1.4038 C   0  0  0  0  0  0  0  0  0  0  0  0
   -3.9419    0.2201    0.0490 C   0  0  0  0  0  0  0  0  0  0  0  0
   -2.5717    0.4572   -0.4545 C   0  0  0  0  0  0  0  0  0  0  0  0
   -2.4729    1.0610   -1.5683 O   0  0  0  0  0  0  0  0  0  0  0  0
    0.4059   -0.7285   -0.6323 C   0  0  0  0  0  0  0  0  0  0  0  0
    1.7310   -0.5722   -1.0019 C   0  0  0  0  0  0  0  0  0  0  0  0
   -0.2394   -1.8987   -1.1174 N   0  0  0  0  0  4  0  0  0  0  0  0
    0.5412   -3.0287   -1.2898 O   0  0  0  0  0  1  0  0  0  0  0  0
   -1.4105   -2.1792   -1.4466 O   0  0  0  0  0  0  0  0  0  0  0  0
    6.0427    0.4001    0.0506 H   0  0  0  0  0  0  0  0  0  0  0  0
    4.8103   -0.7998    0.3692 H   0  0  0  0  0  0  0  0  0  0  0  0
    2.1740    2.3972    0.6492 H   0  0  0  0  0  0  0  0  0  0  0  0
   -0.1966    1.9949    1.2356 H   0  0  0  0  0  0  0  0  0  0  0  0
   -2.1633   -1.8624    1.4864 H   0  0  0  0  0  0  0  0  0  0  0  0
   -1.9259   -0.3718    2.5055 H   0  0  0  0  0  0  0  0  0  0  0  0
   -4.0417    0.3633    2.1754 H   0  0  0  0  0  0  0  0  0  0  0  0
   -4.4304   -1.2599    1.5469 H   0  0  0  0  0  0  0  0  0  0  0  0
   -4.4867   -0.4311   -0.6674 H   0  0  0  0  0  0  0  0  0  0  0  0
   -4.4396    1.2185    0.1261 H   0  0  0  0  0  0  0  0  0  0  0  0
    2.3079   -1.2494   -1.6171 H   0  0  0  0  0  0  0  0  0  0  0  0
  1  2  1  0
  2  3  2  0
  2  4  2  0
  2  5  1  0
  5  6  2  0
  6  7  1  0
  7  8  2  0
  8  9  1  0
  9 10  1  0
 10 11  1  0
 11 12  1  0
 12 13  1  0
 13 14  2  0
  8 15  1  0
 15 16  2  0
 15 17  1  0
 17 18  1  0
 17 19  2  0
 16  5  1  0
 13  9  1  0
  1 20  1  0
  1 21  1  0
  6 22  1  0
  7 23  1  0
 10 24  1  0
 10 25  1  0
 11 26  1  0
 11 27  1  0
 12 28  1  0
 12 29  1  0
 16 30  1  0
M  CHG  2  17   1  18  -1
M  END
$$$$
