@<TRIPOS>MOLECULE
*****
 25 26 0 0 0
SMALL
GASTEIGER

@<TRIPOS>ATOM
      1 CL          4.7996   -0.8089    2.5782 Cl      1  UNL1       -0.0620
      2 C           3.4961   -0.4544    1.4553 C.ar    1  UNL1        0.1292
      3 N           2.9839    0.7743    1.3323 N.ar    1  UNL1       -0.2432
      4 C           1.9756    1.0917    0.4763 C.ar    1  UNL1        0.0339
      5 C           1.4451    0.0711   -0.3208 C.ar    1  UNL1       -0.0120
      6 C           0.3323    0.3828   -1.2770 C.3     1  UNL1        0.0405
      7 N          -0.9644    0.1984   -0.6039 N.pl3   1  UNL1       -0.3041
      8 C          -1.4359   -1.0303   -0.0290 C.3     1  UNL1        0.0237
      9 C          -2.8090   -1.3196   -0.6535 C.3     1  UNL1        0.0167
     10 S          -3.5351    0.3507   -0.3916 S.3     1  UNL1       -0.0881
     11 C          -1.9491    1.2287   -0.4248 C.2     1  UNL1        0.1685
     12 N          -1.6987    2.5108   -0.3149 N.2     1  UNL1       -0.1506
     13 C          -2.8268    3.3321   -0.1458 C.1     1  UNL1        0.2074
     14 N          -3.7571    4.0309    0.0060 N.1     1  UNL1       -0.1694
     15 C           1.9767   -1.1959   -0.1906 C.ar    1  UNL1       -0.0528
     16 C           3.0002   -1.5054    0.6820 C.ar    1  UNL1       -0.0245
     17 H           1.6078    2.0970    0.4238 H       1  UNL1        0.0833
     18 H           0.4266    1.4047   -1.6722 H       1  UNL1        0.0514
     19 H           0.4359   -0.3092   -2.1444 H       1  UNL1        0.0514
     20 H          -1.6563   -0.9046    1.0519 H       1  UNL1        0.0472
     21 H          -0.7282   -1.8308   -0.2195 H       1  UNL1        0.0472
     22 H          -3.3663   -2.0239   -0.0410 H       1  UNL1        0.0396
     23 H          -2.7465   -1.5696   -1.7143 H       1  UNL1        0.0396
     24 H           1.5974   -2.0044   -0.7837 H       1  UNL1        0.0622
     25 H           3.3962   -2.5162    0.7594 H       1  UNL1        0.0648
@<TRIPOS>BOND
     1     1     2    1
     2     2     3   ar
     3     3     4   ar
     4     4     5   ar
     5     5     6    1
     6     6     7    1
     7     7     8    1
     8     8     9    1
     9     9    10    1
    10    10    11    1
    11    11    12    2
    12    12    13    1
    13    13    14    3
    14     5    15   ar
    15    15    16   ar
    16    16     2   ar
    17    11     7    1
    18     4    17    1
    19     6    18    1
    20     6    19    1
    21     8    20    1
    22     8    21    1
    23     9    22    1
    24     9    23    1
    25    15    24    1
    26    16    25    1
