@<TRIPOS>MOLECULE
*****
 26 27 0 0 0
SMALL
GASTEIGER

@<TRIPOS>ATOM
      1 N          -4.1811    0.8274    0.6100 N.3     1  UNL1       -0.2035
      2 S          -3.3370   -0.6785    0.6564 S.O2    1  UNL1        0.0560
      3 O          -3.2454   -1.1078    2.0979 O.2     1  UNL1       -0.1533
      4 O          -4.0887   -1.6684   -0.1838 O.2     1  UNL1       -0.1533
      5 C          -1.7051   -0.4386    0.0849 C.ar    1  UNL1        0.1053
      6 C          -0.6962   -0.1100    0.9623 C.ar    1  UNL1       -0.0307
      7 C           0.6079    0.0893    0.5575 C.ar    1  UNL1       -0.0285
      8 C           0.9225   -0.0444   -0.7809 C.ar    1  UNL1       -0.0417
      9 C           2.2489    0.1216   -1.4438 C.3     1  UNL1       -0.0148
     10 C           3.2703    0.3610   -0.3643 C.3     1  UNL1        0.0002
     11 N           2.8875   -0.2353    0.8751 N.3     1  UNL1       -0.3117
     12 C           1.7313    0.4461    1.4729 C.3     1  UNL1        0.0216
     13 C          -0.1118   -0.3772   -1.6533 C.ar    1  UNL1       -0.0564
     14 C          -1.4350   -0.5828   -1.2654 C.ar    1  UNL1       -0.0351
     15 H          -5.1638    0.7367    0.8871 H       1  UNL1        0.1442
     16 H          -4.0655    1.3352   -0.3019 H       1  UNL1        0.1442
     17 H          -0.9035    0.0030    2.0150 H       1  UNL1        0.0640
     18 H           2.4777   -0.7503   -2.0712 H       1  UNL1        0.0326
     19 H           2.2069    1.0343   -2.1048 H       1  UNL1        0.0326
     20 H           3.4690    1.4561   -0.2243 H       1  UNL1        0.0427
     21 H           4.2120   -0.1091   -0.6902 H       1  UNL1        0.0427
     22 H           3.6272   -0.4593    1.5383 H       1  UNL1        0.1223
     23 H           1.8985    1.5298    1.5677 H       1  UNL1        0.0474
     24 H           1.5278   -0.0400    2.4412 H       1  UNL1        0.0474
     25 H           0.0471   -0.5035   -2.7309 H       1  UNL1        0.0621
     26 H          -2.2014   -0.8353   -1.9515 H       1  UNL1        0.0637
@<TRIPOS>BOND
     1     1     2    1
     2     2     3    2
     3     2     4    2
     4     2     5    1
     5     5     6   ar
     6     6     7   ar
     7     7     8   ar
     8     8     9    1
     9     9    10    1
    10    10    11    1
    11    11    12    1
    12     8    13   ar
    13    13    14   ar
    14    14     5   ar
    15    12     7    1
    16     1    15    1
    17     1    16    1
    18     6    17    1
    19     9    18    1
    20     9    19    1
    21    10    20    1
    22    10    21    1
    23    11    22    1
    24    12    23    1
    25    12    24    1
    26    13    25    1
    27    14    26    1
