
     RDKit          3D

 26 27  0  0  0  0  0  0  0  0999 V2000
   -4.1811    0.8274    0.6100 N   0  0  0  0  0  0  0  0  0  0  0  0
   -3.3370   -0.6785    0.6564 S   0  0  0  0  0  0  0  0  0  0  0  0
   -3.2454   -1.1078    2.0979 O   0  0  0  0  0  0  0  0  0  0  0  0
   -4.0887   -1.6684   -0.1838 O   0  0  0  0  0  0  0  0  0  0  0  0
   -1.7051   -0.4386    0.0849 C   0  0  0  0  0  0  0  0  0  0  0  0
   -0.6962   -0.1100    0.9623 C   0  0  0  0  0  0  0  0  0  0  0  0
    0.6079    0.0893    0.5575 C   0  0  0  0  0  0  0  0  0  0  0  0
    0.9225   -0.0444   -0.7809 C   0  0  0  0  0  0  0  0  0  0  0  0
    2.2489    0.1216   -1.4438 C   0  0  0  0  0  0  0  0  0  0  0  0
    3.2703    0.3610   -0.3643 C   0  0  0  0  0  0  0  0  0  0  0  0
    2.8875   -0.2353    0.8751 N   0  0  0  0  0  0  0  0  0  0  0  0
    1.7313    0.4461    1.4729 C   0  0  0  0  0  0  0  0  0  0  0  0
   -0.1118   -0.3772   -1.6533 C   0  0  0  0  0  0  0  0  0  0  0  0
   -1.4350   -0.5828   -1.2654 C   0  0  0  0  0  0  0  0  0  0  0  0
   -5.1638    0.7367    0.8871 H   0  0  0  0  0  0  0  0  0  0  0  0
   -4.0655    1.3352   -0.3019 H   0  0  0  0  0  0  0  0  0  0  0  0
   -0.9035    0.0030    2.0150 H   0  0  0  0  0  0  0  0  0  0  0  0
    2.4777   -0.7503   -2.0712 H   0  0  0  0  0  0  0  0  0  0  0  0
    2.2069    1.0343   -2.1048 H   0  0  0  0  0  0  0  0  0  0  0  0
    3.4690    1.4561   -0.2243 H   0  0  0  0  0  0  0  0  0  0  0  0
    4.2120   -0.1091   -0.6902 H   0  0  0  0  0  0  0  0  0  0  0  0
    3.6272   -0.4593    1.5383 H   0  0  0  0  0  0  0  0  0  0  0  0
    1.8985    1.5298    1.5677 H   0  0  0  0  0  0  0  0  0  0  0  0
    1.5278   -0.0400    2.4412 H   0  0  0  0  0  0  0  0  0  0  0  0
    0.0471   -0.5035   -2.7309 H   0  0  0  0  0  0  0  0  0  0  0  0
   -2.2014   -0.8353   -1.9515 H   0  0  0  0  0  0  0  0  0  0  0  0
  1  2  1  0
  2  3  2  0
  2  4  2  0
  2  5  1  0
  5  6  2  0
  6  7  1  0
  7  8  2  0
  8  9  1  0
  9 10  1  0
 10 11  1  0
 11 12  1  0
  8 13  1  0
 13 14  2  0
 14  5  1  0
 12  7  1  0
  1 15  1  0
  1 16  1  0
  6 17  1  0
  9 18  1  0
  9 19  1  0
 10 20  1  0
 10 21  1  0
 11 22  1  0
 12 23  1  0
 12 24  1  0
 13 25  1  0
 14 26  1  0
M  END
$$$$
