@<TRIPOS>MOLECULE
*****
 37 39 0 0 0
SMALL
GASTEIGER

@<TRIPOS>ATOM
      1 C          -6.1567   -2.4613   -0.0025 C.3     1  UNL1       -0.0159
      2 C          -5.1937   -1.3198   -0.0532 C.ar    1  UNL1        0.0761
      3 N          -5.3641   -0.1348   -0.2692 N.ar    1  UNL1       -0.2488
      4 C          -4.4055    0.7652   -0.2802 C.ar    1  UNL1        0.0549
      5 C          -4.7278    2.2034   -0.5319 C.3     1  UNL1       -0.0212
      6 C          -3.0945    0.3644   -0.0325 C.ar    1  UNL1        0.0603
      7 S          -3.3501   -1.4079    0.2196 S.2     1  UNL1       -0.0706
      8 C          -1.8168    0.9658    0.0666 C.ar    1  UNL1        0.0844
      9 C          -1.4434    2.2567   -0.2022 C.ar    1  UNL1       -0.0168
     10 C          -0.2104    2.8489   -0.0613 C.ar    1  UNL1        0.0332
     11 N           0.7299    1.9985    0.4087 N.ar    1  UNL1       -0.2226
     12 C           0.4207    0.7095    0.6903 C.ar    1  UNL1        0.2200
     13 N           1.5934    0.0720    1.1826 N.pl3   1  UNL1       -0.2836
     14 C           2.8228   -0.3253    0.5974 C.ar    1  UNL1        0.0336
     15 C           3.1077   -0.1217   -0.7308 C.ar    1  UNL1       -0.0399
     16 C           4.3483   -0.5068   -1.2491 C.ar    1  UNL1       -0.0484
     17 C           5.3135   -1.0998   -0.4367 C.ar    1  UNL1        0.0549
     18 C           4.9439   -1.2662    0.8818 C.ar    1  UNL1       -0.0484
     19 C           3.7381   -0.9076    1.4482 C.ar    1  UNL1       -0.0399
     20 C           6.6475   -1.5145   -0.9336 C.3     1  UNL1        0.4174
     21 F           6.8420   -0.8585   -2.1612 F       1  UNL1       -0.1659
     22 F           7.6580   -1.0772   -0.0905 F       1  UNL1       -0.1659
     23 F           6.7235   -2.8685   -1.0357 F       1  UNL1       -0.1659
     24 N          -0.7933    0.2075    0.5295 N.ar    1  UNL1       -0.2137
     25 H          -6.9332   -2.1987    0.7213 H       1  UNL1        0.0298
     26 H          -5.6567   -3.3873    0.3435 H       1  UNL1        0.0298
     27 H          -6.5236   -2.6043   -1.0430 H       1  UNL1        0.0298
     28 H          -5.8435    2.4092   -0.4469 H       1  UNL1        0.0293
     29 H          -4.3279    2.5059   -1.4934 H       1  UNL1        0.0293
     30 H          -4.3165    2.8752    0.2639 H       1  UNL1        0.0293
     31 H          -2.2103    2.9085   -0.5889 H       1  UNL1        0.0654
     32 H          -0.0517    3.8731   -0.3070 H       1  UNL1        0.0831
     33 H           1.3611   -0.0788    2.1852 H       1  UNL1        0.1550
     34 H           2.3521    0.3379   -1.3387 H       1  UNL1        0.0636
     35 H           4.5690   -0.3487   -2.2880 H       1  UNL1        0.0624
     36 H           5.7009   -1.7326    1.5100 H       1  UNL1        0.0624
     37 H           3.5473   -1.0810    2.4874 H       1  UNL1        0.0636
@<TRIPOS>BOND
     1     1     2    1
     2     2     3   ar
     3     3     4   ar
     4     4     5    1
     5     4     6   ar
     6     6     7   ar
     7     6     8    1
     8     8     9   ar
     9     9    10   ar
    10    10    11   ar
    11    11    12   ar
    12    12    13    1
    13    13    14    1
    14    14    15   ar
    15    15    16   ar
    16    16    17   ar
    17    17    18   ar
    18    18    19   ar
    19    17    20    1
    20    20    21    1
    21    20    22    1
    22    20    23    1
    23    12    24   ar
    24     7     2   ar
    25    24     8   ar
    26    19    14   ar
    27     1    25    1
    28     1    26    1
    29     1    27    1
    30     5    28    1
    31     5    29    1
    32     5    30    1
    33     9    31    1
    34    10    32    1
    35    13    33    1
    36    15    34    1
    37    16    35    1
    38    18    36    1
    39    19    37    1
