@<TRIPOS>MOLECULE
*****
 34 36 0 0 0
SMALL
GASTEIGER

@<TRIPOS>ATOM
      1 C           6.0436   -0.7525    0.1145 C.3     1  UNL1        0.0790
      2 O           5.2531    0.3698   -0.1285 O.3     1  UNL1       -0.4915
      3 C           3.8685    0.3837   -0.1435 C.ar    1  UNL1        0.1613
      4 C           3.1221   -0.7468    0.0879 C.ar    1  UNL1       -0.0156
      5 C           1.7682   -0.6851    0.0632 C.ar    1  UNL1       -0.0474
      6 C           1.1191    0.5181   -0.1957 C.ar    1  UNL1        0.0211
      7 C          -0.3427    0.4992   -0.2044 C.ar    1  UNL1        0.1393
      8 C          -1.0309    1.6583   -0.4542 C.ar    1  UNL1        0.0288
      9 C          -2.4293    1.5766   -0.4492 C.ar    1  UNL1        0.1966
     10 O          -3.0857    2.6225   -0.6750 O.2     1  UNL1       -0.2869
     11 C          -3.0790    0.3868   -0.2045 C.ar    1  UNL1        0.1055
     12 C          -4.4540    0.2747   -0.1929 C.ar    1  UNL1        0.1347
     13 O          -5.1880    1.4262   -0.4415 O.3     1  UNL1       -0.5058
     14 C          -5.0342   -0.9531    0.0604 C.ar    1  UNL1        0.0223
     15 C          -4.2802   -2.0823    0.3045 C.ar    1  UNL1        0.1239
     16 O          -4.8576   -3.3205    0.5600 O.3     1  UNL1       -0.5065
     17 C          -2.9062   -1.9557    0.2898 C.ar    1  UNL1        0.0231
     18 C          -2.3015   -0.7250    0.0362 C.ar    1  UNL1        0.1462
     19 O          -0.9992   -0.6192    0.0252 O.2     1  UNL1       -0.4544
     20 C           1.8494    1.6485   -0.4272 C.ar    1  UNL1       -0.0059
     21 C           3.2338    1.5778   -0.4003 C.ar    1  UNL1        0.1591
     22 O           3.9676    2.7497   -0.6405 O.3     1  UNL1       -0.5033
     23 H           6.1475   -1.3526   -0.8216 H       1  UNL1        0.0660
     24 H           7.0602   -0.4022    0.4219 H       1  UNL1        0.0660
     25 H           5.6171   -1.3849    0.9460 H       1  UNL1        0.0660
     26 H           3.6631   -1.6770    0.2884 H       1  UNL1        0.0655
     27 H           1.1791   -1.5584    0.2418 H       1  UNL1        0.0626
     28 H          -0.5913    2.6228   -0.6534 H       1  UNL1        0.0693
     29 H          -5.4522    1.5851   -1.4141 H       1  UNL1        0.2922
     30 H          -6.1159   -1.0298    0.0671 H       1  UNL1        0.0691
     31 H          -4.3368   -4.0327    1.0577 H       1  UNL1        0.2921
     32 H          -2.3296   -2.8517    0.4834 H       1  UNL1        0.0691
     33 H           1.3856    2.5976   -0.6309 H       1  UNL1        0.0662
     34 H           3.5362    3.6320   -0.4015 H       1  UNL1        0.2923
@<TRIPOS>BOND
     1     1     2    1
     2     2     3    1
     3     3     4   ar
     4     4     5   ar
     5     5     6   ar
     6     6     7    1
     7     7     8   ar
     8     8     9   ar
     9     9    10    2
    10     9    11   ar
    11    11    12   ar
    12    12    13    1
    13    12    14   ar
    14    14    15   ar
    15    15    16    1
    16    15    17   ar
    17    17    18   ar
    18    18    19   ar
    19     6    20   ar
    20    20    21   ar
    21    21    22    1
    22    21     3   ar
    23    19     7   ar
    24    18    11   ar
    25     1    23    1
    26     1    24    1
    27     1    25    1
    28     4    26    1
    29     5    27    1
    30     8    28    1
    31    13    29    1
    32    14    30    1
    33    16    31    1
    34    17    32    1
    35    20    33    1
    36    22    34    1
