
     RDKit          3D

 34 36  0  0  0  0  0  0  0  0999 V2000
    6.0436   -0.7525    0.1145 C   0  0  0  0  0  0  0  0  0  0  0  0
    5.2531    0.3698   -0.1285 O   0  0  0  0  0  0  0  0  0  0  0  0
    3.8685    0.3837   -0.1435 C   0  0  0  0  0  0  0  0  0  0  0  0
    3.1221   -0.7468    0.0879 C   0  0  0  0  0  0  0  0  0  0  0  0
    1.7682   -0.6851    0.0632 C   0  0  0  0  0  0  0  0  0  0  0  0
    1.1191    0.5181   -0.1957 C   0  0  0  0  0  0  0  0  0  0  0  0
   -0.3427    0.4992   -0.2044 C   0  0  0  0  0  0  0  0  0  0  0  0
   -1.0309    1.6583   -0.4542 C   0  0  0  0  0  0  0  0  0  0  0  0
   -2.4293    1.5766   -0.4492 C   0  0  0  0  0  0  0  0  0  0  0  0
   -3.0857    2.6225   -0.6750 O   0  0  0  0  0  0  0  0  0  0  0  0
   -3.0790    0.3868   -0.2045 C   0  0  0  0  0  0  0  0  0  0  0  0
   -4.4540    0.2747   -0.1929 C   0  0  0  0  0  0  0  0  0  0  0  0
   -5.1880    1.4262   -0.4415 O   0  0  0  0  0  0  0  0  0  0  0  0
   -5.0342   -0.9531    0.0604 C   0  0  0  0  0  0  0  0  0  0  0  0
   -4.2802   -2.0823    0.3045 C   0  0  0  0  0  0  0  0  0  0  0  0
   -4.8576   -3.3205    0.5600 O   0  0  0  0  0  0  0  0  0  0  0  0
   -2.9062   -1.9557    0.2898 C   0  0  0  0  0  0  0  0  0  0  0  0
   -2.3015   -0.7250    0.0362 C   0  0  0  0  0  0  0  0  0  0  0  0
   -0.9992   -0.6192    0.0252 O   0  0  0  0  0  0  0  0  0  0  0  0
    1.8494    1.6485   -0.4272 C   0  0  0  0  0  0  0  0  0  0  0  0
    3.2338    1.5778   -0.4003 C   0  0  0  0  0  0  0  0  0  0  0  0
    3.9676    2.7497   -0.6405 O   0  0  0  0  0  0  0  0  0  0  0  0
    6.1475   -1.3526   -0.8216 H   0  0  0  0  0  0  0  0  0  0  0  0
    7.0602   -0.4022    0.4219 H   0  0  0  0  0  0  0  0  0  0  0  0
    5.6171   -1.3849    0.9460 H   0  0  0  0  0  0  0  0  0  0  0  0
    3.6631   -1.6770    0.2884 H   0  0  0  0  0  0  0  0  0  0  0  0
    1.1791   -1.5584    0.2418 H   0  0  0  0  0  0  0  0  0  0  0  0
   -0.5913    2.6228   -0.6534 H   0  0  0  0  0  0  0  0  0  0  0  0
   -5.4522    1.5851   -1.4141 H   0  0  0  0  0  0  0  0  0  0  0  0
   -6.1159   -1.0298    0.0671 H   0  0  0  0  0  0  0  0  0  0  0  0
   -4.3368   -4.0327    1.0577 H   0  0  0  0  0  0  0  0  0  0  0  0
   -2.3296   -2.8517    0.4834 H   0  0  0  0  0  0  0  0  0  0  0  0
    1.3856    2.5976   -0.6309 H   0  0  0  0  0  0  0  0  0  0  0  0
    3.5362    3.6320   -0.4015 H   0  0  0  0  0  0  0  0  0  0  0  0
  1  2  1  0
  2  3  1  0
  3  4  2  0
  4  5  1  0
  5  6  2  0
  6  7  1  0
  7  8  2  0
  8  9  1  0
  9 10  2  0
  9 11  1  0
 11 12  2  0
 12 13  1  0
 12 14  1  0
 14 15  2  0
 15 16  1  0
 15 17  1  0
 17 18  2  0
 18 19  1  0
  6 20  1  0
 20 21  2  0
 21 22  1  0
 21  3  1  0
 19  7  1  0
 18 11  1  0
  1 23  1  0
  1 24  1  0
  1 25  1  0
  4 26  1  0
  5 27  1  0
  8 28  1  0
 13 29  1  0
 14 30  1  0
 16 31  1  0
 17 32  1  0
 20 33  1  0
 22 34  1  0
M  END
$$$$
