
     RDKit          3D

 41 41  0  0  0  0  0  0  0  0999 V2000
   -5.5512    2.4349    0.2796 C   0  0  0  0  0  0  0  0  0  0  0  0
   -4.5330    2.5346   -0.5641 C   0  0  0  0  0  0  0  0  0  0  0  0
   -3.5448    1.4493   -0.7545 C   0  0  0  0  0  0  0  0  0  0  0  0
   -3.8360    0.2634    0.1432 C   0  0  0  0  0  0  0  0  0  0  0  0
   -2.7820   -0.7609   -0.1417 C   0  0  0  0  0  0  0  0  0  0  0  0
   -2.5715   -1.1589   -1.3283 O   0  0  0  0  0  0  0  0  0  0  0  0
   -1.9909   -1.3210    0.8468 O   0  0  0  0  0  0  0  0  0  0  0  0
   -1.0203   -2.2726    0.5693 C   0  0  2  0  0  0  0  0  0  0  0  0
   -1.2235   -3.5887    1.2536 C   0  0  0  0  0  0  0  0  0  0  0  0
    0.3816   -1.8059    0.8446 C   0  0  2  0  0  0  0  0  0  0  0  0
    0.8196   -0.5712    0.0395 C   0  0  0  0  0  0  0  0  0  0  0  0
    2.0848   -1.2590   -0.0957 N   0  0  0  0  0  0  0  0  0  0  0  0
    3.4685   -1.0272   -0.2503 C   0  0  0  0  0  0  0  0  0  0  0  0
    4.2982   -2.0093   -0.3095 O   0  0  0  0  0  0  0  0  0  0  0  0
    4.1273    0.2921   -0.3648 C   0  0  0  0  0  0  0  0  0  0  0  0
    3.2857    1.4363    0.0845 C   0  0  0  0  0  0  0  0  0  0  0  0
    4.0787    2.6940   -0.0460 C   0  0  0  0  0  0  0  0  0  0  0  0
    5.3186    2.7410   -0.4938 C   0  0  0  0  0  0  0  0  0  0  0  0
    1.3456   -2.4817   -0.0306 C   0  0  0  0  0  0  0  0  0  0  0  0
    1.5524   -3.6013   -0.5593 O   0  0  0  0  0  0  0  0  0  0  0  0
   -6.2469    3.2581    0.3834 H   0  0  0  0  0  0  0  0  0  0  0  0
   -5.6520    1.5085    0.8435 H   0  0  0  0  0  0  0  0  0  0  0  0
   -4.4167    3.4394   -1.1366 H   0  0  0  0  0  0  0  0  0  0  0  0
   -3.4333    1.0955   -1.7838 H   0  0  0  0  0  0  0  0  0  0  0  0
   -2.5381    1.8475   -0.4274 H   0  0  0  0  0  0  0  0  0  0  0  0
   -3.8987    0.4965    1.2040 H   0  0  0  0  0  0  0  0  0  0  0  0
   -4.7932   -0.1843   -0.2205 H   0  0  0  0  0  0  0  0  0  0  0  0
   -1.0513   -2.4730   -0.5448 H   0  0  0  0  0  0  0  0  0  0  0  0
   -0.3603   -4.2470    0.9873 H   0  0  0  0  0  0  0  0  0  0  0  0
   -1.1793   -3.4997    2.3708 H   0  0  0  0  0  0  0  0  0  0  0  0
   -2.1116   -4.1444    0.9104 H   0  0  0  0  0  0  0  0  0  0  0  0
    0.6571   -1.6770    1.9004 H   0  0  0  0  0  0  0  0  0  0  0  0
    0.8152    0.3469    0.6675 H   0  0  0  0  0  0  0  0  0  0  0  0
    0.3283   -0.4594   -0.9385 H   0  0  0  0  0  0  0  0  0  0  0  0
    4.4544    0.3840   -1.4256 H   0  0  0  0  0  0  0  0  0  0  0  0
    5.0176    0.2641    0.3137 H   0  0  0  0  0  0  0  0  0  0  0  0
    2.3823    1.5626   -0.5742 H   0  0  0  0  0  0  0  0  0  0  0  0
    3.0368    1.3176    1.1512 H   0  0  0  0  0  0  0  0  0  0  0  0
    3.5746    3.6041    0.2558 H   0  0  0  0  0  0  0  0  0  0  0  0
    5.8337    3.7001   -0.5600 H   0  0  0  0  0  0  0  0  0  0  0  0
    5.8738    1.8719   -0.8086 H   0  0  0  0  0  0  0  0  0  0  0  0
  1  2  2  3
  2  3  1  0
  3  4  1  0
  4  5  1  0
  5  6  2  0
  5  7  1  0
  7  8  1  0
  8  9  1  0
  8 10  1  0
 10 11  1  0
 11 12  1  0
 12 13  1  0
 13 14  2  0
 13 15  1  0
 15 16  1  0
 16 17  1  0
 17 18  2  3
 12 19  1  0
 19 20  2  0
 19 10  1  0
  1 21  1  0
  1 22  1  0
  2 23  1  0
  3 24  1  0
  3 25  1  0
  4 26  1  0
  4 27  1  0
  8 28  1  6
  9 29  1  0
  9 30  1  0
  9 31  1  0
 10 32  1  1
 11 33  1  0
 11 34  1  0
 15 35  1  0
 15 36  1  0
 16 37  1  0
 16 38  1  0
 17 39  1  0
 18 40  1  0
 18 41  1  0
M  END
$$$$
