@<TRIPOS>MOLECULE
*****
 41 41 0 0 0
SMALL
GASTEIGER

@<TRIPOS>ATOM
      1 C          -5.5512    2.4349    0.2796 C.2     1  UNL1       -0.1026
      2 C          -4.5330    2.5346   -0.5641 C.2     1  UNL1       -0.0906
      3 C          -3.5448    1.4493   -0.7545 C.3     1  UNL1       -0.0249
      4 C          -3.8360    0.2634    0.1432 C.3     1  UNL1        0.0483
      5 C          -2.7820   -0.7609   -0.1417 C.2     1  UNL1        0.3076
      6 O          -2.5715   -1.1589   -1.3283 O.2     1  UNL1       -0.2508
      7 O          -1.9909   -1.3210    0.8468 O.3     1  UNL1       -0.4608
      8 C          -1.0203   -2.2726    0.5693 C.3     1  UNL1        0.1128
      9 C          -1.2235   -3.5887    1.2536 C.3     1  UNL1       -0.0269
     10 C           0.3816   -1.8059    0.8446 C.3     1  UNL1        0.0889
     11 C           0.8196   -0.5712    0.0395 C.3     1  UNL1        0.0369
     12 N           2.0848   -1.2590   -0.0957 N.am    1  UNL1       -0.2409
     13 C           3.4685   -1.0272   -0.2503 C.2     1  UNL1        0.2221
     14 O           4.2982   -2.0093   -0.3095 O.2     1  UNL1       -0.2752
     15 C           4.1273    0.2921   -0.3648 C.3     1  UNL1        0.0280
     16 C           3.2857    1.4363    0.0845 C.3     1  UNL1       -0.0267
     17 C           4.0787    2.6940   -0.0460 C.2     1  UNL1       -0.0907
     18 C           5.3186    2.7410   -0.4938 C.2     1  UNL1       -0.1026
     19 C           1.3456   -2.4817   -0.0306 C.2     1  UNL1        0.2300
     20 O           1.5524   -3.6013   -0.5593 O.2     1  UNL1       -0.2747
     21 H          -6.2469    3.2581    0.3834 H       1  UNL1        0.0532
     22 H          -5.6520    1.5085    0.8435 H       1  UNL1        0.0532
     23 H          -4.4167    3.4394   -1.1366 H       1  UNL1        0.0566
     24 H          -3.4333    1.0955   -1.7838 H       1  UNL1        0.0312
     25 H          -2.5381    1.8475   -0.4274 H       1  UNL1        0.0312
     26 H          -3.8987    0.4965    1.2040 H       1  UNL1        0.0380
     27 H          -4.7932   -0.1843   -0.2205 H       1  UNL1        0.0380
     28 H          -1.0513   -2.4730   -0.5448 H       1  UNL1        0.0739
     29 H          -0.3603   -4.2470    0.9873 H       1  UNL1        0.0265
     30 H          -1.1793   -3.4997    2.3708 H       1  UNL1        0.0265
     31 H          -2.1116   -4.1444    0.9104 H       1  UNL1        0.0265
     32 H           0.6571   -1.6770    1.9004 H       1  UNL1        0.0446
     33 H           0.8152    0.3469    0.6675 H       1  UNL1        0.0478
     34 H           0.3283   -0.4594   -0.9385 H       1  UNL1        0.0478
     35 H           4.4544    0.3840   -1.4256 H       1  UNL1        0.0361
     36 H           5.0176    0.2641    0.3137 H       1  UNL1        0.0361
     37 H           2.3823    1.5626   -0.5742 H       1  UNL1        0.0312
     38 H           3.0368    1.3176    1.1512 H       1  UNL1        0.0312
     39 H           3.5746    3.6041    0.2558 H       1  UNL1        0.0566
     40 H           5.8337    3.7001   -0.5600 H       1  UNL1        0.0532
     41 H           5.8738    1.8719   -0.8086 H       1  UNL1        0.0532
@<TRIPOS>BOND
     1     1     2    2
     2     2     3    1
     3     3     4    1
     4     4     5    1
     5     5     6    2
     6     5     7    1
     7     7     8    1
     8     8     9    1
     9     8    10    1
    10    10    11    1
    11    11    12    1
    12    12    13   am
    13    13    14    2
    14    13    15    1
    15    15    16    1
    16    16    17    1
    17    17    18    2
    18    12    19   am
    19    19    20    2
    20    19    10    1
    21     1    21    1
    22     1    22    1
    23     2    23    1
    24     3    24    1
    25     3    25    1
    26     4    26    1
    27     4    27    1
    28     8    28    1
    29     9    29    1
    30     9    30    1
    31     9    31    1
    32    10    32    1
    33    11    33    1
    34    11    34    1
    35    15    35    1
    36    15    36    1
    37    16    37    1
    38    16    38    1
    39    17    39    1
    40    18    40    1
    41    18    41    1
