@<TRIPOS>MOLECULE
*****
 34 34 0 0 0
SMALL
GASTEIGER

@<TRIPOS>ATOM
      1 C           5.5251   -1.7542    0.9240 C.3     1  UNL1       -0.0025
      2 C           4.9164   -1.2441   -0.3046 C.1     1  UNL1       -0.1022
      3 C           4.4259   -0.8125   -1.3416 C.1     1  UNL1       -0.0617
      4 C           3.8403   -0.2732   -2.5716 C.3     1  UNL1        0.1499
      5 O           2.9898    0.7872   -2.2482 O.3     1  UNL1       -0.4795
      6 C           1.8819    0.7215   -1.4450 C.ar    1  UNL1        0.1220
      7 C           1.2124    1.9169   -1.2855 C.ar    1  UNL1       -0.0181
      8 C           0.0829    2.0275   -0.5136 C.ar    1  UNL1       -0.0334
      9 C          -0.3957    0.9083    0.1211 C.ar    1  UNL1        0.0884
     10 C           0.2606   -0.2966   -0.0265 C.ar    1  UNL1       -0.0334
     11 C           1.4076   -0.4235   -0.8066 C.ar    1  UNL1       -0.0181
     12 S          -1.8536    1.0138    1.1273 S.O2    1  UNL1       -0.0030
     13 O          -1.8856    2.3937    1.7007 O.2     1  UNL1       -0.1694
     14 O          -1.7798   -0.0316    2.2152 O.2     1  UNL1       -0.1694
     15 C          -3.2453    0.6946    0.1038 C.3     1  UNL1        0.0716
     16 C          -4.5556    0.7656    0.8290 C.3     1  UNL1       -0.0244
     17 C          -4.7004   -0.2121    1.9631 C.3     1  UNL1       -0.0078
     18 S          -4.5323   -1.9273    1.3632 S.3     1  UNL1       -0.1782
     19 H           5.4816   -0.9268    1.6871 H       1  UNL1        0.0362
     20 H           5.0126   -2.6678    1.2900 H       1  UNL1        0.0362
     21 H           6.6117   -1.9987    0.7659 H       1  UNL1        0.0362
     22 H           3.2926   -1.0654   -3.1334 H       1  UNL1        0.0837
     23 H           4.6202    0.1069   -3.2598 H       1  UNL1        0.0837
     24 H           1.5388    2.8518   -1.7637 H       1  UNL1        0.0655
     25 H          -0.4573    2.9664   -0.3782 H       1  UNL1        0.0638
     26 H          -0.0960   -1.2049    0.4660 H       1  UNL1        0.0638
     27 H           1.9532   -1.3283   -0.9549 H       1  UNL1        0.0655
     28 H          -3.2978    1.4075   -0.7559 H       1  UNL1        0.0504
     29 H          -3.1647   -0.3436   -0.2953 H       1  UNL1        0.0504
     30 H          -5.3455    0.5505    0.0578 H       1  UNL1        0.0289
     31 H          -4.7626    1.7907    1.1993 H       1  UNL1        0.0289
     32 H          -5.7628   -0.1706    2.3612 H       1  UNL1        0.0374
     33 H          -4.0015   -0.0468    2.7792 H       1  UNL1        0.0374
     34 H          -5.2169   -2.0150    0.1303 H       1  UNL1        0.1016
@<TRIPOS>BOND
     1     1     2    1
     2     2     3    3
     3     3     4    1
     4     4     5    1
     5     5     6    1
     6     6     7   ar
     7     7     8   ar
     8     8     9   ar
     9     9    10   ar
    10    10    11   ar
    11     9    12    1
    12    12    13    2
    13    12    14    2
    14    12    15    1
    15    15    16    1
    16    16    17    1
    17    17    18    1
    18    11     6   ar
    19     1    19    1
    20     1    20    1
    21     1    21    1
    22     4    22    1
    23     4    23    1
    24     7    24    1
    25     8    25    1
    26    10    26    1
    27    11    27    1
    28    15    28    1
    29    15    29    1
    30    16    30    1
    31    16    31    1
    32    17    32    1
    33    17    33    1
    34    18    34    1
