
     RDKit          3D

 34 34  0  0  0  0  0  0  0  0999 V2000
    5.5251   -1.7542    0.9240 C   0  0  0  0  0  0  0  0  0  0  0  0
    4.9164   -1.2441   -0.3046 C   0  0  0  0  0  0  0  0  0  0  0  0
    4.4259   -0.8125   -1.3416 C   0  0  0  0  0  0  0  0  0  0  0  0
    3.8403   -0.2732   -2.5716 C   0  0  0  0  0  0  0  0  0  0  0  0
    2.9898    0.7872   -2.2482 O   0  0  0  0  0  0  0  0  0  0  0  0
    1.8819    0.7215   -1.4450 C   0  0  0  0  0  0  0  0  0  0  0  0
    1.2124    1.9169   -1.2855 C   0  0  0  0  0  0  0  0  0  0  0  0
    0.0829    2.0275   -0.5136 C   0  0  0  0  0  0  0  0  0  0  0  0
   -0.3957    0.9083    0.1211 C   0  0  0  0  0  0  0  0  0  0  0  0
    0.2606   -0.2966   -0.0265 C   0  0  0  0  0  0  0  0  0  0  0  0
    1.4076   -0.4235   -0.8066 C   0  0  0  0  0  0  0  0  0  0  0  0
   -1.8536    1.0138    1.1273 S   0  0  0  0  0  0  0  0  0  0  0  0
   -1.8856    2.3937    1.7007 O   0  0  0  0  0  0  0  0  0  0  0  0
   -1.7798   -0.0316    2.2152 O   0  0  0  0  0  0  0  0  0  0  0  0
   -3.2453    0.6946    0.1038 C   0  0  0  0  0  0  0  0  0  0  0  0
   -4.5556    0.7656    0.8290 C   0  0  0  0  0  0  0  0  0  0  0  0
   -4.7004   -0.2121    1.9631 C   0  0  0  0  0  0  0  0  0  0  0  0
   -4.5323   -1.9273    1.3632 S   0  0  0  0  0  0  0  0  0  0  0  0
    5.4816   -0.9268    1.6871 H   0  0  0  0  0  0  0  0  0  0  0  0
    5.0126   -2.6678    1.2900 H   0  0  0  0  0  0  0  0  0  0  0  0
    6.6117   -1.9987    0.7659 H   0  0  0  0  0  0  0  0  0  0  0  0
    3.2926   -1.0654   -3.1334 H   0  0  0  0  0  0  0  0  0  0  0  0
    4.6202    0.1069   -3.2598 H   0  0  0  0  0  0  0  0  0  0  0  0
    1.5388    2.8518   -1.7637 H   0  0  0  0  0  0  0  0  0  0  0  0
   -0.4573    2.9664   -0.3782 H   0  0  0  0  0  0  0  0  0  0  0  0
   -0.0960   -1.2049    0.4660 H   0  0  0  0  0  0  0  0  0  0  0  0
    1.9532   -1.3283   -0.9549 H   0  0  0  0  0  0  0  0  0  0  0  0
   -3.2978    1.4075   -0.7559 H   0  0  0  0  0  0  0  0  0  0  0  0
   -3.1647   -0.3436   -0.2953 H   0  0  0  0  0  0  0  0  0  0  0  0
   -5.3455    0.5505    0.0578 H   0  0  0  0  0  0  0  0  0  0  0  0
   -4.7626    1.7907    1.1993 H   0  0  0  0  0  0  0  0  0  0  0  0
   -5.7628   -0.1706    2.3612 H   0  0  0  0  0  0  0  0  0  0  0  0
   -4.0015   -0.0468    2.7792 H   0  0  0  0  0  0  0  0  0  0  0  0
   -5.2169   -2.0150    0.1303 H   0  0  0  0  0  0  0  0  0  0  0  0
  1  2  1  0
  2  3  3  0
  3  4  1  0
  4  5  1  0
  5  6  1  0
  6  7  2  0
  7  8  1  0
  8  9  2  0
  9 10  1  0
 10 11  2  0
  9 12  1  0
 12 13  2  0
 12 14  2  0
 12 15  1  0
 15 16  1  0
 16 17  1  0
 17 18  1  0
 11  6  1  0
  1 19  1  0
  1 20  1  0
  1 21  1  0
  4 22  1  0
  4 23  1  0
  7 24  1  0
  8 25  1  0
 10 26  1  0
 11 27  1  0
 15 28  1  0
 15 29  1  0
 16 30  1  0
 16 31  1  0
 17 32  1  0
 17 33  1  0
 18 34  1  0
M  END
$$$$
