@<TRIPOS>MOLECULE
*****
 51 55 0 0 0
SMALL
GASTEIGER

@<TRIPOS>ATOM
      1 C          -7.1211   -2.9407    0.1489 C.3     1  UNL1       -0.0223
      2 C          -6.4654   -1.6069    0.0913 C.ar    1  UNL1        0.0390
      3 C          -7.2268   -0.4836    0.4328 C.ar    1  UNL1       -0.0406
      4 C          -6.6043    0.7376    0.3595 C.ar    1  UNL1       -0.0580
      5 C          -5.2828    0.8229   -0.0383 C.ar    1  UNL1       -0.0326
      6 C          -4.5531   -0.2916   -0.3691 C.ar    1  UNL1        0.1083
      7 C          -3.1506   -0.2523   -0.8352 C.ar    1  UNL1        0.1827
      8 N          -2.6159   -1.1722   -1.6984 N.ar    1  UNL1       -0.1275
      9 N          -1.3828   -0.8289   -1.9500 N.ar    1  UNL1       -0.1320
     10 C          -1.1155    0.2804   -1.2744 C.ar    1  UNL1        0.1542
     11 N          -2.1993    0.6483   -0.5777 N.ar    1  UNL1       -0.3067
     12 C          -2.1804    1.8153    0.2854 C.3     1  UNL1        0.0423
     13 C          -0.8504    2.1783    0.8278 C.3     1  UNL1        0.0338
     14 N           0.2864    1.4431    0.1864 N.am    1  UNL1       -0.2860
     15 C           1.3390    1.1581    1.0249 C.2     1  UNL1        0.2472
     16 O           1.1398    1.6090    2.2656 O.2     1  UNL1       -0.2700
     17 C           2.6087    0.4924    0.8764 C.ar    1  UNL1        0.0370
     18 C           2.9520   -0.2197   -0.2335 C.ar    1  UNL1       -0.0490
     19 C           4.2128   -0.7974   -0.2994 C.ar    1  UNL1       -0.0528
     20 C           5.1594   -0.7112    0.6872 C.ar    1  UNL1       -0.0113
     21 C           6.4826   -1.3124    0.5063 C.ar    1  UNL1        0.0193
     22 C           7.0649   -1.6866   -0.7013 C.ar    1  UNL1       -0.0469
     23 C           8.2980   -2.1583   -0.6880 C.ar    1  UNL1       -0.0541
     24 C           8.9518   -2.2600    0.4992 C.ar    1  UNL1       -0.0237
     25 S           7.7115   -1.6383    1.6599 S.2     1  UNL1       -0.0967
     26 C           4.8186   -0.0005    1.8099 C.ar    1  UNL1       -0.0528
     27 C           3.5759    0.5890    1.9021 C.ar    1  UNL1       -0.0490
     28 C           0.0901    1.1841   -1.1841 C.3     1  UNL1        0.0834
     29 C          -0.2844    2.4893   -1.9428 C.3     1  UNL1       -0.0393
     30 N          -5.1825   -1.4715   -0.2890 N.ar    1  UNL1       -0.2488
     31 H          -7.1936   -3.3999   -0.8803 H       1  UNL1        0.0292
     32 H          -6.5684   -3.6046    0.8535 H       1  UNL1        0.0292
     33 H          -8.1374   -2.8546    0.5538 H       1  UNL1        0.0292
     34 H          -8.2572   -0.6383    0.7206 H       1  UNL1        0.0635
     35 H          -7.1626    1.6231    0.6073 H       1  UNL1        0.0619
     36 H          -4.8536    1.7924   -0.0881 H       1  UNL1        0.0640
     37 H          -2.8712    1.6026    1.1561 H       1  UNL1        0.0508
     38 H          -2.6303    2.7082   -0.2033 H       1  UNL1        0.0508
     39 H          -0.8239    1.9957    1.9453 H       1  UNL1        0.0482
     40 H          -0.5660    3.2465    0.7380 H       1  UNL1        0.0482
     41 H           2.2902   -0.3999   -1.0599 H       1  UNL1        0.0625
     42 H           4.4572   -1.3540   -1.1891 H       1  UNL1        0.0624
     43 H           6.4435   -1.5633   -1.6160 H       1  UNL1        0.0629
     44 H           8.8238   -2.4578   -1.6454 H       1  UNL1        0.0623
     45 H           9.9991   -2.6281    0.7970 H       1  UNL1        0.0693
     46 H           5.5354    0.0950    2.6108 H       1  UNL1        0.0624
     47 H           3.2963    1.1657    2.7826 H       1  UNL1        0.0625
     48 H           0.8882    0.7807   -1.7910 H       1  UNL1        0.0579
     49 H          -1.1418    2.2124   -2.5800 H       1  UNL1        0.0252
     50 H          -0.5714    3.2883   -1.2740 H       1  UNL1        0.0252
     51 H           0.5675    2.7742   -2.5890 H       1  UNL1        0.0252
@<TRIPOS>BOND
     1     1     2    1
     2     2     3   ar
     3     3     4   ar
     4     4     5   ar
     5     5     6   ar
     6     6     7    1
     7     7     8   ar
     8     8     9   ar
     9     9    10   ar
    10    10    11   ar
    11    11    12    1
    12    12    13    1
    13    13    14    1
    14    14    15   am
    15    15    16    2
    16    15    17    1
    17    17    18   ar
    18    18    19   ar
    19    19    20   ar
    20    20    21    1
    21    21    22   ar
    22    22    23   ar
    23    23    24   ar
    24    24    25   ar
    25    20    26   ar
    26    26    27   ar
    27    14    28    1
    28    28    29    1
    29     6    30   ar
    30    30     2   ar
    31    11     7   ar
    32    27    17   ar
    33    28    10    1
    34    25    21   ar
    35     1    31    1
    36     1    32    1
    37     1    33    1
    38     3    34    1
    39     4    35    1
    40     5    36    1
    41    12    37    1
    42    12    38    1
    43    13    39    1
    44    13    40    1
    45    18    41    1
    46    19    42    1
    47    22    43    1
    48    23    44    1
    49    24    45    1
    50    26    46    1
    51    27    47    1
    52    28    48    1
    53    29    49    1
    54    29    50    1
    55    29    51    1
