
     RDKit          3D

 51 55  0  0  0  0  0  0  0  0999 V2000
   -7.1211   -2.9407    0.1489 C   0  0  0  0  0  0  0  0  0  0  0  0
   -6.4654   -1.6069    0.0913 C   0  0  0  0  0  0  0  0  0  0  0  0
   -7.2268   -0.4836    0.4328 C   0  0  0  0  0  0  0  0  0  0  0  0
   -6.6043    0.7376    0.3595 C   0  0  0  0  0  0  0  0  0  0  0  0
   -5.2828    0.8229   -0.0383 C   0  0  0  0  0  0  0  0  0  0  0  0
   -4.5531   -0.2916   -0.3691 C   0  0  0  0  0  0  0  0  0  0  0  0
   -3.1506   -0.2523   -0.8352 C   0  0  0  0  0  0  0  0  0  0  0  0
   -2.6159   -1.1722   -1.6984 N   0  0  0  0  0  0  0  0  0  0  0  0
   -1.3828   -0.8289   -1.9500 N   0  0  0  0  0  0  0  0  0  0  0  0
   -1.1155    0.2804   -1.2744 C   0  0  0  0  0  0  0  0  0  0  0  0
   -2.1993    0.6483   -0.5777 N   0  0  0  0  0  0  0  0  0  0  0  0
   -2.1804    1.8153    0.2854 C   0  0  0  0  0  0  0  0  0  0  0  0
   -0.8504    2.1783    0.8278 C   0  0  0  0  0  0  0  0  0  0  0  0
    0.2864    1.4431    0.1864 N   0  0  0  0  0  0  0  0  0  0  0  0
    1.3390    1.1581    1.0249 C   0  0  0  0  0  0  0  0  0  0  0  0
    1.1398    1.6090    2.2656 O   0  0  0  0  0  0  0  0  0  0  0  0
    2.6087    0.4924    0.8764 C   0  0  0  0  0  0  0  0  0  0  0  0
    2.9520   -0.2197   -0.2335 C   0  0  0  0  0  0  0  0  0  0  0  0
    4.2128   -0.7974   -0.2994 C   0  0  0  0  0  0  0  0  0  0  0  0
    5.1594   -0.7112    0.6872 C   0  0  0  0  0  0  0  0  0  0  0  0
    6.4826   -1.3124    0.5063 C   0  0  0  0  0  0  0  0  0  0  0  0
    7.0649   -1.6866   -0.7013 C   0  0  0  0  0  0  0  0  0  0  0  0
    8.2980   -2.1583   -0.6880 C   0  0  0  0  0  0  0  0  0  0  0  0
    8.9518   -2.2600    0.4992 C   0  0  0  0  0  0  0  0  0  0  0  0
    7.7115   -1.6383    1.6599 S   0  0  0  0  0  0  0  0  0  0  0  0
    4.8186   -0.0005    1.8099 C   0  0  0  0  0  0  0  0  0  0  0  0
    3.5759    0.5890    1.9021 C   0  0  0  0  0  0  0  0  0  0  0  0
    0.0901    1.1841   -1.1841 C   0  0  2  0  0  0  0  0  0  0  0  0
   -0.2844    2.4893   -1.9428 C   0  0  0  0  0  0  0  0  0  0  0  0
   -5.1825   -1.4715   -0.2890 N   0  0  0  0  0  0  0  0  0  0  0  0
   -7.1936   -3.3999   -0.8803 H   0  0  0  0  0  0  0  0  0  0  0  0
   -6.5684   -3.6046    0.8535 H   0  0  0  0  0  0  0  0  0  0  0  0
   -8.1374   -2.8546    0.5538 H   0  0  0  0  0  0  0  0  0  0  0  0
   -8.2572   -0.6383    0.7206 H   0  0  0  0  0  0  0  0  0  0  0  0
   -7.1626    1.6231    0.6073 H   0  0  0  0  0  0  0  0  0  0  0  0
   -4.8536    1.7924   -0.0881 H   0  0  0  0  0  0  0  0  0  0  0  0
   -2.8712    1.6026    1.1561 H   0  0  0  0  0  0  0  0  0  0  0  0
   -2.6303    2.7082   -0.2033 H   0  0  0  0  0  0  0  0  0  0  0  0
   -0.8239    1.9957    1.9453 H   0  0  0  0  0  0  0  0  0  0  0  0
   -0.5660    3.2465    0.7380 H   0  0  0  0  0  0  0  0  0  0  0  0
    2.2902   -0.3999   -1.0599 H   0  0  0  0  0  0  0  0  0  0  0  0
    4.4572   -1.3540   -1.1891 H   0  0  0  0  0  0  0  0  0  0  0  0
    6.4435   -1.5633   -1.6160 H   0  0  0  0  0  0  0  0  0  0  0  0
    8.8238   -2.4578   -1.6454 H   0  0  0  0  0  0  0  0  0  0  0  0
    9.9991   -2.6281    0.7970 H   0  0  0  0  0  0  0  0  0  0  0  0
    5.5354    0.0950    2.6108 H   0  0  0  0  0  0  0  0  0  0  0  0
    3.2963    1.1657    2.7826 H   0  0  0  0  0  0  0  0  0  0  0  0
    0.8882    0.7807   -1.7910 H   0  0  0  0  0  0  0  0  0  0  0  0
   -1.1418    2.2124   -2.5800 H   0  0  0  0  0  0  0  0  0  0  0  0
   -0.5714    3.2883   -1.2740 H   0  0  0  0  0  0  0  0  0  0  0  0
    0.5675    2.7742   -2.5890 H   0  0  0  0  0  0  0  0  0  0  0  0
  1  2  1  0
  2  3  2  0
  3  4  1  0
  4  5  2  0
  5  6  1  0
  6  7  1  0
  7  8  2  0
  8  9  1  0
  9 10  2  0
 10 11  1  0
 11 12  1  0
 12 13  1  0
 13 14  1  0
 14 15  1  0
 15 16  2  0
 15 17  1  0
 17 18  2  0
 18 19  1  0
 19 20  2  0
 20 21  1  0
 21 22  2  0
 22 23  1  0
 23 24  2  0
 24 25  1  0
 20 26  1  0
 26 27  2  0
 14 28  1  0
 28 29  1  0
  6 30  2  0
 30  2  1  0
 11  7  1  0
 27 17  1  0
 28 10  1  0
 25 21  1  0
  1 31  1  0
  1 32  1  0
  1 33  1  0
  3 34  1  0
  4 35  1  0
  5 36  1  0
 12 37  1  0
 12 38  1  0
 13 39  1  0
 13 40  1  0
 18 41  1  0
 19 42  1  0
 22 43  1  0
 23 44  1  0
 24 45  1  0
 26 46  1  0
 27 47  1  0
 28 48  1  6
 29 49  1  0
 29 50  1  0
 29 51  1  0
M  END
$$$$
