@<TRIPOS>MOLECULE
*****
 27 27 0 0 0
SMALL
GASTEIGER

@<TRIPOS>ATOM
      1 C          -2.7356    0.3927    1.2772 C.3     1  UNL1       -0.0155
      2 N          -1.5381    0.7310    0.4920 N.3     1  UNL1       -0.3138
      3 C          -1.2361   -0.4527   -0.2665 C.3     1  UNL1        0.0347
      4 C          -2.4181   -0.7767   -1.1536 C.3     1  UNL1       -0.0470
      5 C          -0.0033   -0.3441   -1.1214 C.3     1  UNL1        0.0952
      6 O          -0.1980    0.7035   -2.0216 O.3     1  UNL1       -0.3856
      7 C           1.2375   -0.1994   -0.3469 C.ar    1  UNL1       -0.0177
      8 C           2.1048   -1.2758   -0.1484 C.ar    1  UNL1       -0.0561
      9 C           3.2777   -1.1038    0.5940 C.ar    1  UNL1       -0.0614
     10 C           3.5648    0.1260    1.1216 C.ar    1  UNL1       -0.0617
     11 C           2.7068    1.2003    0.9279 C.ar    1  UNL1       -0.0614
     12 C           1.5419    1.0317    0.1912 C.ar    1  UNL1       -0.0561
     13 H          -2.7995    0.9728    2.2087 H       1  UNL1        0.0388
     14 H          -3.6431    0.5086    0.6598 H       1  UNL1        0.0388
     15 H          -2.6653   -0.6875    1.5575 H       1  UNL1        0.0388
     16 H          -1.8325    1.5266   -0.1089 H       1  UNL1        0.1220
     17 H          -1.1272   -1.3107    0.4285 H       1  UNL1        0.0486
     18 H          -3.1035   -1.4915   -0.6854 H       1  UNL1        0.0246
     19 H          -2.9231    0.1681   -1.4732 H       1  UNL1        0.0246
     20 H          -2.0398   -1.2158   -2.1225 H       1  UNL1        0.0246
     21 H          -0.0036   -1.2698   -1.7616 H       1  UNL1        0.0659
     22 H          -0.3803    1.5544   -1.5422 H       1  UNL1        0.2103
     23 H           1.8561   -2.2559   -0.5805 H       1  UNL1        0.0621
     24 H           3.8987   -1.9926    0.7018 H       1  UNL1        0.0618
     25 H           4.5001    0.1762    1.6883 H       1  UNL1        0.0618
     26 H           3.0127    2.1517    1.3855 H       1  UNL1        0.0618
     27 H           0.9459    1.9218    0.0986 H       1  UNL1        0.0621
@<TRIPOS>BOND
     1     1     2    1
     2     2     3    1
     3     3     4    1
     4     3     5    1
     5     5     6    1
     6     5     7    1
     7     7     8   ar
     8     8     9   ar
     9     9    10   ar
    10    10    11   ar
    11    11    12   ar
    12    12     7   ar
    13     1    13    1
    14     1    14    1
    15     1    15    1
    16     2    16    1
    17     3    17    1
    18     4    18    1
    19     4    19    1
    20     4    20    1
    21     5    21    1
    22     6    22    1
    23     8    23    1
    24     9    24    1
    25    10    25    1
    26    11    26    1
    27    12    27    1
