@<TRIPOS>MOLECULE
*****
 41 44 0 0 0
SMALL
GASTEIGER

@<TRIPOS>ATOM
      1 O           5.7096    0.5309   -0.5711 O.2     1  UNL1       -0.2681
      2 C           4.8250    0.2078   -1.4127 C.2     1  UNL1        0.2665
      3 N           5.0696    0.3166   -2.8062 N.am    1  UNL1       -0.1935
      4 O           6.3042    0.7856   -3.1477 O.3     1  UNL1       -0.2949
      5 C           3.5472   -0.2792   -0.9236 C.ar    1  UNL1        0.0387
      6 C           3.3491   -0.3703    0.4529 C.ar    1  UNL1       -0.0493
      7 C           2.1516   -0.8267    0.9097 C.ar    1  UNL1       -0.0562
      8 C           1.1011   -1.2126    0.1121 C.ar    1  UNL1       -0.0277
      9 C          -0.1650   -1.6920    0.6400 C.3     1  UNL1        0.0486
     10 N          -1.1876   -0.6735    0.8073 N.ar    1  UNL1       -0.3376
     11 C          -2.0602   -0.3258   -0.1722 C.ar    1  UNL1        0.0465
     12 C          -2.8541    0.6558    0.3866 C.ar    1  UNL1        0.1166
     13 C          -2.4411    0.8717    1.6784 C.ar    1  UNL1        0.0250
     14 C          -2.8570    1.7115    2.6873 C.ar    1  UNL1       -0.0507
     15 C          -2.2275    1.6983    3.9207 C.ar    1  UNL1       -0.0610
     16 C          -1.1751    0.8338    4.1337 C.ar    1  UNL1       -0.0598
     17 C          -0.7337   -0.0217    3.1415 C.ar    1  UNL1       -0.0375
     18 C          -1.3926    0.0236    1.9190 C.ar    1  UNL1        0.0514
     19 S          -4.0044    1.1307   -0.8459 S.O2    1  UNL1       -0.0005
     20 O          -3.4447    2.2858   -1.5769 O.2     1  UNL1       -0.1693
     21 O          -5.3693    1.3200   -0.3270 O.2     1  UNL1       -0.1693
     22 C          -3.8595   -0.3951   -1.8015 C.3     1  UNL1        0.0763
     23 C          -2.3902   -0.6509   -1.5544 C.3     1  UNL1        0.0094
     24 C           1.3262   -1.1115   -1.2570 C.ar    1  UNL1       -0.0562
     25 C           2.5168   -0.6569   -1.7845 C.ar    1  UNL1       -0.0493
     26 H           4.3809    0.0660   -3.5396 H       1  UNL1        0.1825
     27 H           6.5025    1.5285   -2.5465 H       1  UNL1        0.2414
     28 H           4.1642   -0.0710    1.0928 H       1  UNL1        0.0625
     29 H           2.0302   -0.8886    2.0037 H       1  UNL1        0.0621
     30 H          -0.5643   -2.4777   -0.0430 H       1  UNL1        0.0541
     31 H          -0.0011   -2.1974    1.6204 H       1  UNL1        0.0541
     32 H          -3.6880    2.3962    2.5239 H       1  UNL1        0.0625
     33 H          -2.5978    2.3811    4.6763 H       1  UNL1        0.0618
     34 H          -0.6936    0.8371    5.1066 H       1  UNL1        0.0618
     35 H           0.0923   -0.6890    3.3467 H       1  UNL1        0.0638
     36 H          -4.0640   -0.2315   -2.8553 H       1  UNL1        0.0508
     37 H          -4.5034   -1.1477   -1.3072 H       1  UNL1        0.0508
     38 H          -2.1498   -1.7056   -1.7751 H       1  UNL1        0.0344
     39 H          -1.8377    0.0369   -2.2590 H       1  UNL1        0.0344
     40 H           0.5460   -1.3972   -1.9344 H       1  UNL1        0.0621
     41 H           2.6449   -0.5960   -2.8485 H       1  UNL1        0.0625
@<TRIPOS>BOND
     1     1     2    2
     2     2     3   am
     3     3     4    1
     4     2     5    1
     5     5     6   ar
     6     6     7   ar
     7     7     8   ar
     8     8     9    1
     9     9    10    1
    10    10    11   ar
    11    11    12   ar
    12    12    13   ar
    13    13    14   ar
    14    14    15   ar
    15    15    16   ar
    16    16    17   ar
    17    17    18   ar
    18    12    19    1
    19    19    20    2
    20    19    21    2
    21    19    22    1
    22    22    23    1
    23     8    24   ar
    24    24    25   ar
    25    25     5   ar
    26    18    10   ar
    27    23    11    1
    28    18    13   ar
    29     3    26    1
    30     4    27    1
    31     6    28    1
    32     7    29    1
    33     9    30    1
    34     9    31    1
    35    14    32    1
    36    15    33    1
    37    16    34    1
    38    17    35    1
    39    22    36    1
    40    22    37    1
    41    23    38    1
    42    23    39    1
    43    24    40    1
    44    25    41    1
