@<TRIPOS>MOLECULE
*****
 39 42 0 0 0
SMALL
GASTEIGER

@<TRIPOS>ATOM
      1 O          -5.0222   -1.7212    0.7075 O.2     1  UNL1       -0.2753
      2 C          -3.8027   -1.3367    0.7403 C.2     1  UNL1        0.2210
      3 C          -2.8662   -1.2839   -0.4046 C.3     1  UNL1        0.0508
      4 C          -1.7148   -0.4399    0.1097 C.3     1  UNL1        0.1572
      5 C          -1.8841   -0.4091    1.5956 C.2     1  UNL1        0.2392
      6 O          -1.0403   -0.0212    2.4373 O.2     1  UNL1       -0.2739
      7 N          -3.1731   -0.8953    1.9295 N.am    1  UNL1       -0.2552
      8 C          -0.4121   -1.0686   -0.1784 C.2     1  UNL1        0.2423
      9 O          -0.2203   -2.2326    0.3348 O.2     1  UNL1       -0.2736
     10 N           0.6192   -0.4886   -0.9654 N.am    1  UNL1       -0.2325
     11 C           1.8212   -1.2176   -1.1685 C.3     1  UNL1        0.0504
     12 C           2.8734   -1.0041   -0.1924 C.ar    1  UNL1        0.0056
     13 C           2.7051   -0.1459    0.8599 C.ar    1  UNL1       -0.0533
     14 C           3.7259    0.0293    1.7636 C.ar    1  UNL1       -0.0473
     15 C           4.9249   -0.6386    1.6416 C.ar    1  UNL1        0.0206
     16 BR          6.3317   -0.3681    2.9263 Br      1  UNL1       -0.0502
     17 C           5.1073   -1.5054    0.5867 C.ar    1  UNL1       -0.0122
     18 C           4.0638   -1.6715   -0.3194 C.ar    1  UNL1        0.1291
     19 F           4.3178   -2.5471   -1.3395 F       1  UNL1       -0.2051
     20 C           0.3344    0.8012   -1.4850 C.2     1  UNL1        0.2535
     21 O           1.2452    1.3238   -2.1850 O.2     1  UNL1       -0.2695
     22 C          -0.9251    1.4854   -1.2321 C.ar    1  UNL1        0.0421
     23 C          -1.0916    2.7660   -1.7967 C.ar    1  UNL1       -0.0466
     24 C          -2.2876    3.4040   -1.5444 C.ar    1  UNL1       -0.0257
     25 C          -3.2773    2.8249   -0.7785 C.ar    1  UNL1        0.1237
     26 F          -4.4307    3.5121   -0.5713 F       1  UNL1       -0.2055
     27 C          -3.0999    1.5868   -0.2406 C.ar    1  UNL1       -0.0211
     28 C          -1.9007    0.9066   -0.4734 C.ar    1  UNL1       -0.0084
     29 H          -2.5300   -2.2871   -0.7284 H       1  UNL1        0.0377
     30 H          -3.3655   -0.8250   -1.2823 H       1  UNL1        0.0377
     31 H          -3.6111   -0.9319    2.8953 H       1  UNL1        0.1575
     32 H           2.1545   -1.0216   -2.2300 H       1  UNL1        0.0520
     33 H           1.5792   -2.3212   -1.1721 H       1  UNL1        0.0520
     34 H           1.7793    0.4171    1.0182 H       1  UNL1        0.0622
     35 H           3.6152    0.7166    2.6223 H       1  UNL1        0.0629
     36 H           6.0482   -2.0441    0.4712 H       1  UNL1        0.0657
     37 H          -0.3011    3.1763   -2.3822 H       1  UNL1        0.0626
     38 H          -2.4341    4.3861   -1.9684 H       1  UNL1        0.0646
     39 H          -3.8558    1.0898    0.3726 H       1  UNL1        0.0649
@<TRIPOS>BOND
     1     1     2    2
     2     2     3    1
     3     4     3    1
     4     4     5    1
     5     5     6    2
     6     5     7   am
     7     4     8    1
     8     8     9    2
     9     8    10   am
    10    10    11    1
    11    11    12    1
    12    12    13   ar
    13    13    14   ar
    14    14    15   ar
    15    15    16    1
    16    15    17   ar
    17    17    18   ar
    18    18    19    1
    19    10    20   am
    20    20    21    2
    21    20    22    1
    22    22    23   ar
    23    23    24   ar
    24    24    25   ar
    25    25    26    1
    26    25    27   ar
    27    27    28   ar
    28     7     2   am
    29    18    12   ar
    30    28    22   ar
    31    28     4    1
    32     3    29    1
    33     3    30    1
    34     7    31    1
    35    11    32    1
    36    11    33    1
    37    13    34    1
    38    14    35    1
    39    17    36    1
    40    23    37    1
    41    24    38    1
    42    27    39    1
