
     RDKit          3D

 72 77  0  0  0  0  0  0  0  0999 V2000
   10.8920   -1.0418    2.4268 C   0  0  0  0  0  0  0  0  0  0  0  0
   10.9730    0.2005    1.7548 O   0  0  0  0  0  0  0  0  0  0  0  0
    9.9368    0.7050    0.9902 C   0  0  0  0  0  0  0  0  0  0  0  0
    8.7283    0.0275    0.8210 C   0  0  0  0  0  0  0  0  0  0  0  0
    7.7154    0.5458    0.0591 C   0  0  0  0  0  0  0  0  0  0  0  0
    6.4801   -0.1754   -0.0978 C   0  0  0  0  0  0  0  0  0  0  0  0
    6.5103   -1.5621   -0.0881 C   0  0  0  0  0  0  0  0  0  0  0  0
    5.3185   -2.2521   -0.2403 C   0  0  0  0  0  0  0  0  0  0  0  0
    4.1041   -1.6233   -0.4011 C   0  0  0  0  0  0  0  0  0  0  0  0
    4.0966   -0.2437   -0.4078 C   0  0  0  0  0  0  0  0  0  0  0  0
    5.2600    0.4906   -0.2593 C   0  0  0  0  0  0  0  0  0  0  0  0
    2.9380    0.5664   -0.5629 N   0  0  0  0  0  0  0  0  0  0  0  0
    1.6426    0.2264   -1.1079 C   0  0  0  0  0  0  0  0  0  0  0  0
    0.9510    1.3360   -1.5360 C   0  0  0  0  0  0  0  0  0  0  0  0
   -0.3047    1.2311   -2.0888 C   0  0  0  0  0  0  0  0  0  0  0  0
   -0.8847   -0.0051   -2.2181 C   0  0  0  0  0  0  0  0  0  0  0  0
   -2.2085   -0.1750   -2.7975 C   0  0  0  0  0  0  0  0  0  0  0  0
   -3.3163   -0.0963   -1.8493 C   0  0  0  0  0  0  0  0  0  0  0  0
   -3.0366    0.1084   -0.6273 O   0  0  0  0  0  0  0  0  0  0  0  0
   -4.6832   -0.2304   -2.1862 N   0  0  0  0  0  0  0  0  0  0  0  0
   -5.7543   -0.1507   -1.2534 C   0  0  0  0  0  0  0  0  0  0  0  0
   -6.2295   -1.2644   -0.6011 C   0  0  0  0  0  0  0  0  0  0  0  0
   -7.2799   -1.1805    0.3117 C   0  0  0  0  0  0  0  0  0  0  0  0
   -7.8990    0.0060    0.6136 C   0  0  0  0  0  0  0  0  0  0  0  0
   -8.9667    0.1689    1.5277 N   0  0  0  0  0  0  0  0  0  0  0  0
   -9.5274   -0.9011    2.3027 C   0  0  0  0  0  0  0  0  0  0  0  0
  -11.0087   -1.0755    2.0247 C   0  0  0  0  0  0  0  0  0  0  0  0
  -11.5876    0.1778    1.9530 O   0  0  0  0  0  0  0  0  0  0  0  0
  -10.8552    1.1945    2.5229 C   0  0  0  0  0  0  0  0  0  0  0  0
   -9.5837    1.4876    1.7413 C   0  0  0  0  0  0  0  0  0  0  0  0
   -7.4086    1.1391   -0.0563 C   0  0  0  0  0  0  0  0  0  0  0  0
   -6.3718    1.0477   -0.9556 C   0  0  0  0  0  0  0  0  0  0  0  0
   -0.1886   -1.1091   -1.7885 C   0  0  0  0  0  0  0  0  0  0  0  0
    1.0715   -1.0225   -1.2319 C   0  0  0  0  0  0  0  0  0  0  0  0
    1.6158   -2.2805   -0.8547 N   0  0  0  0  0  0  0  0  0  0  0  0
    2.9760   -2.5463   -0.5444 C   0  0  0  0  0  0  0  0  0  0  0  0
    3.2544   -3.7500   -0.3660 O   0  0  0  0  0  0  0  0  0  0  0  0
    7.8960    1.7586   -0.5501 C   0  0  0  0  0  0  0  0  0  0  0  0
    9.0954    2.4705   -0.4047 C   0  0  0  0  0  0  0  0  0  0  0  0
   10.0726    1.9098    0.3649 C   0  0  0  0  0  0  0  0  0  0  0  0
   11.2966    2.6226    0.5211 N   0  0  0  0  0  0  0  0  0  0  0  0
   11.8959   -1.2852    2.8274 H   0  0  0  0  0  0  0  0  0  0  0  0
   10.5799   -1.8392    1.7121 H   0  0  0  0  0  0  0  0  0  0  0  0
   10.1713   -1.0343    3.2501 H   0  0  0  0  0  0  0  0  0  0  0  0
    8.6370   -0.9192    1.3195 H   0  0  0  0  0  0  0  0  0  0  0  0
    7.4104   -2.1410    0.0314 H   0  0  0  0  0  0  0  0  0  0  0  0
    5.2857   -3.3482   -0.2401 H   0  0  0  0  0  0  0  0  0  0  0  0
    5.2010    1.5601   -0.2711 H   0  0  0  0  0  0  0  0  0  0  0  0
    3.0390    1.5573   -0.2338 H   0  0  0  0  0  0  0  0  0  0  0  0
    1.4274    2.3272   -1.4269 H   0  0  0  0  0  0  0  0  0  0  0  0
   -0.8079    2.1477   -2.4119 H   0  0  0  0  0  0  0  0  0  0  0  0
   -2.2679   -1.1876   -3.2948 H   0  0  0  0  0  0  0  0  0  0  0  0
   -2.3667    0.5822   -3.6023 H   0  0  0  0  0  0  0  0  0  0  0  0
   -4.8907   -0.3996   -3.2017 H   0  0  0  0  0  0  0  0  0  0  0  0
   -5.7563   -2.2211   -0.8213 H   0  0  0  0  0  0  0  0  0  0  0  0
   -7.6086   -2.0897    0.7903 H   0  0  0  0  0  0  0  0  0  0  0  0
   -9.0235   -1.8657    2.1259 H   0  0  0  0  0  0  0  0  0  0  0  0
   -9.4189   -0.7216    3.4041 H   0  0  0  0  0  0  0  0  0  0  0  0
  -11.1795   -1.5684    1.0417 H   0  0  0  0  0  0  0  0  0  0  0  0
  -11.4841   -1.7270    2.7808 H   0  0  0  0  0  0  0  0  0  0  0  0
  -10.6448    0.9576    3.5777 H   0  0  0  0  0  0  0  0  0  0  0  0
  -11.4937    2.1015    2.5199 H   0  0  0  0  0  0  0  0  0  0  0  0
   -8.8997    2.0353    2.4190 H   0  0  0  0  0  0  0  0  0  0  0  0
   -9.8119    2.0042    0.8074 H   0  0  0  0  0  0  0  0  0  0  0  0
   -7.8820    2.0859    0.1666 H   0  0  0  0  0  0  0  0  0  0  0  0
   -6.0079    1.9450   -1.4645 H   0  0  0  0  0  0  0  0  0  0  0  0
   -0.5920   -2.1185   -1.8627 H   0  0  0  0  0  0  0  0  0  0  0  0
    0.9153   -3.0390   -0.8180 H   0  0  0  0  0  0  0  0  0  0  0  0
    7.1323    2.2313   -1.1713 H   0  0  0  0  0  0  0  0  0  0  0  0
    9.2190    3.4228   -0.8915 H   0  0  0  0  0  0  0  0  0  0  0  0
   11.2943    3.6642    0.5360 H   0  0  0  0  0  0  0  0  0  0  0  0
   12.1978    2.1481    0.6215 H   0  0  0  0  0  0  0  0  0  0  0  0
  1  2  1  0
  2  3  1  0
  3  4  2  0
  4  5  1  0
  5  6  1  0
  6  7  2  0
  7  8  1  0
  8  9  2  0
  9 10  1  0
 10 11  2  0
 10 12  1  0
 12 13  1  0
 13 14  2  0
 14 15  1  0
 15 16  2  0
 16 17  1  0
 17 18  1  0
 18 19  2  0
 18 20  1  0
 20 21  1  0
 21 22  2  0
 22 23  1  0
 23 24  2  0
 24 25  1  0
 25 26  1  0
 26 27  1  0
 27 28  1  0
 28 29  1  0
 29 30  1  0
 24 31  1  0
 31 32  2  0
 16 33  1  0
 33 34  2  0
 34 35  1  0
 35 36  1  0
 36 37  2  0
  5 38  2  0
 38 39  1  0
 39 40  2  0
 40 41  1  0
 40  3  1  0
 11  6  1  0
 34 13  1  0
 36  9  1  0
 32 21  1  0
 30 25  1  0
  1 42  1  0
  1 43  1  0
  1 44  1  0
  4 45  1  0
  7 46  1  0
  8 47  1  0
 11 48  1  0
 12 49  1  0
 14 50  1  0
 15 51  1  0
 17 52  1  0
 17 53  1  0
 20 54  1  0
 22 55  1  0
 23 56  1  0
 26 57  1  0
 26 58  1  0
 27 59  1  0
 27 60  1  0
 29 61  1  0
 29 62  1  0
 30 63  1  0
 30 64  1  0
 31 65  1  0
 32 66  1  0
 33 67  1  0
 35 68  1  0
 38 69  1  0
 39 70  1  0
 41 71  1  0
 41 72  1  0
M  END
$$$$
