@<TRIPOS>MOLECULE
*****
 72 77 0 0 0
SMALL
GASTEIGER

@<TRIPOS>ATOM
      1 C          10.8920   -1.0418    2.4268 C.3     1  UNL1        0.0789
      2 O          10.9730    0.2005    1.7548 O.3     1  UNL1       -0.4933
      3 C           9.9368    0.7050    0.9902 C.ar    1  UNL1        0.1412
      4 C           8.7283    0.0275    0.8210 C.ar    1  UNL1       -0.0104
      5 C           7.7154    0.5458    0.0591 C.ar    1  UNL1       -0.0143
      6 C           6.4801   -0.1754   -0.0978 C.ar    1  UNL1       -0.0160
      7 C           6.5103   -1.5621   -0.0881 C.ar    1  UNL1       -0.0532
      8 C           5.3185   -2.2521   -0.2403 C.ar    1  UNL1       -0.0473
      9 C           4.1041   -1.6233   -0.4011 C.ar    1  UNL1        0.0581
     10 C           4.0966   -0.2437   -0.4078 C.ar    1  UNL1        0.0442
     11 C           5.2600    0.4906   -0.2593 C.ar    1  UNL1       -0.0321
     12 N           2.9380    0.5664   -0.5629 N.pl3   1  UNL1       -0.3124
     13 C           1.6426    0.2264   -1.1079 C.ar    1  UNL1        0.0529
     14 C           0.9510    1.3360   -1.5360 C.ar    1  UNL1       -0.0385
     15 C          -0.3047    1.2311   -2.0888 C.ar    1  UNL1       -0.0562
     16 C          -0.8847   -0.0051   -2.2181 C.ar    1  UNL1       -0.0367
     17 C          -2.2085   -0.1750   -2.7975 C.3     1  UNL1        0.0495
     18 C          -3.3163   -0.0963   -1.8493 C.2     1  UNL1        0.2215
     19 O          -3.0366    0.1084   -0.6273 O.2     1  UNL1       -0.2751
     20 N          -4.6832   -0.2304   -2.1862 N.am    1  UNL1       -0.2852
     21 C          -5.7543   -0.1507   -1.2534 C.ar    1  UNL1        0.0335
     22 C          -6.2295   -1.2644   -0.6011 C.ar    1  UNL1       -0.0387
     23 C          -7.2799   -1.1805    0.3117 C.ar    1  UNL1       -0.0389
     24 C          -7.8990    0.0060    0.6136 C.ar    1  UNL1        0.0299
     25 N          -8.9667    0.1689    1.5277 N.pl3   1  UNL1       -0.3255
     26 C          -9.5274   -0.9011    2.3027 C.3     1  UNL1        0.0357
     27 C         -11.0087   -1.0755    2.0247 C.3     1  UNL1        0.0634
     28 O         -11.5876    0.1778    1.9530 O.3     1  UNL1       -0.3767
     29 C         -10.8552    1.1945    2.5229 C.3     1  UNL1        0.0634
     30 C          -9.5837    1.4876    1.7413 C.3     1  UNL1        0.0357
     31 C          -7.4086    1.1391   -0.0563 C.ar    1  UNL1       -0.0389
     32 C          -6.3718    1.0477   -0.9556 C.ar    1  UNL1       -0.0387
     33 C          -0.1886   -1.1091   -1.7885 C.ar    1  UNL1       -0.0350
     34 C           1.0715   -1.0225   -1.2319 C.ar    1  UNL1        0.0553
     35 N           1.6158   -2.2805   -0.8547 N.am    1  UNL1       -0.2799
     36 C           2.9760   -2.5463   -0.5444 C.2     1  UNL1        0.2501
     37 O           3.2544   -3.7500   -0.3660 O.2     1  UNL1       -0.2698
     38 C           7.8960    1.7586   -0.5501 C.ar    1  UNL1       -0.0521
     39 C           9.0954    2.4705   -0.4047 C.ar    1  UNL1       -0.0369
     40 C          10.0726    1.9098    0.3649 C.ar    1  UNL1        0.0669
     41 N          11.2966    2.6226    0.5211 N.pl3   1  UNL1       -0.3551
     42 H          11.8959   -1.2852    2.8274 H       1  UNL1        0.0660
     43 H          10.5799   -1.8392    1.7121 H       1  UNL1        0.0660
     44 H          10.1713   -1.0343    3.2501 H       1  UNL1        0.0660
     45 H           8.6370   -0.9192    1.3195 H       1  UNL1        0.0661
     46 H           7.4104   -2.1410    0.0314 H       1  UNL1        0.0624
     47 H           5.2857   -3.3482   -0.2401 H       1  UNL1        0.0626
     48 H           5.2010    1.5601   -0.2711 H       1  UNL1        0.0642
     49 H           3.0390    1.5573   -0.2338 H       1  UNL1        0.1522
     50 H           1.4274    2.3272   -1.4269 H       1  UNL1        0.0637
     51 H          -0.8079    2.1477   -2.4119 H       1  UNL1        0.0621
     52 H          -2.2679   -1.1876   -3.2948 H       1  UNL1        0.0407
     53 H          -2.3667    0.5822   -3.6023 H       1  UNL1        0.0407
     54 H          -4.8907   -0.3996   -3.2017 H       1  UNL1        0.1548
     55 H          -5.7563   -2.2211   -0.8213 H       1  UNL1        0.0637
     56 H          -7.6086   -2.0897    0.7903 H       1  UNL1        0.0637
     57 H          -9.0235   -1.8657    2.1259 H       1  UNL1        0.0486
     58 H          -9.4189   -0.7216    3.4041 H       1  UNL1        0.0486
     59 H         -11.1795   -1.5684    1.0417 H       1  UNL1        0.0575
     60 H         -11.4841   -1.7270    2.7808 H       1  UNL1        0.0575
     61 H         -10.6448    0.9576    3.5777 H       1  UNL1        0.0575
     62 H         -11.4937    2.1015    2.5199 H       1  UNL1        0.0575
     63 H          -8.8997    2.0353    2.4190 H       1  UNL1        0.0486
     64 H          -9.8119    2.0042    0.8074 H       1  UNL1        0.0486
     65 H          -7.8820    2.0859    0.1666 H       1  UNL1        0.0637
     66 H          -6.0079    1.9450   -1.4645 H       1  UNL1        0.0637
     67 H          -0.5920   -2.1185   -1.8627 H       1  UNL1        0.0639
     68 H           0.9153   -3.0390   -0.8180 H       1  UNL1        0.1552
     69 H           7.1323    2.2313   -1.1713 H       1  UNL1        0.0624
     70 H           9.2190    3.4228   -0.8915 H       1  UNL1        0.0637
     71 H          11.2943    3.6642    0.5360 H       1  UNL1        0.1424
     72 H          12.1978    2.1481    0.6215 H       1  UNL1        0.1424
@<TRIPOS>BOND
     1     1     2    1
     2     2     3    1
     3     3     4   ar
     4     4     5   ar
     5     5     6    1
     6     6     7   ar
     7     7     8   ar
     8     8     9   ar
     9     9    10   ar
    10    10    11   ar
    11    10    12    1
    12    12    13    1
    13    13    14   ar
    14    14    15   ar
    15    15    16   ar
    16    16    17    1
    17    17    18    1
    18    18    19    2
    19    18    20   am
    20    20    21    1
    21    21    22   ar
    22    22    23   ar
    23    23    24   ar
    24    24    25    1
    25    25    26    1
    26    26    27    1
    27    27    28    1
    28    28    29    1
    29    29    30    1
    30    24    31   ar
    31    31    32   ar
    32    16    33   ar
    33    33    34   ar
    34    34    35    1
    35    35    36   am
    36    36    37    2
    37     5    38   ar
    38    38    39   ar
    39    39    40   ar
    40    40    41    1
    41    40     3   ar
    42    11     6   ar
    43    34    13   ar
    44    36     9    1
    45    32    21   ar
    46    30    25    1
    47     1    42    1
    48     1    43    1
    49     1    44    1
    50     4    45    1
    51     7    46    1
    52     8    47    1
    53    11    48    1
    54    12    49    1
    55    14    50    1
    56    15    51    1
    57    17    52    1
    58    17    53    1
    59    20    54    1
    60    22    55    1
    61    23    56    1
    62    26    57    1
    63    26    58    1
    64    27    59    1
    65    27    60    1
    66    29    61    1
    67    29    62    1
    68    30    63    1
    69    30    64    1
    70    31    65    1
    71    32    66    1
    72    33    67    1
    73    35    68    1
    74    38    69    1
    75    39    70    1
    76    41    71    1
    77    41    72    1
