
     RDKit          3D

 64 68  0  0  0  0  0  0  0  0999 V2000
    3.9731    3.1529    1.3803 C   0  0  0  0  0  0  0  0  0  0  0  0
    4.2397    1.8821    0.8228 O   0  0  0  0  0  0  0  0  0  0  0  0
    3.1472    1.1301    0.3899 C   0  0  0  0  0  0  0  0  0  0  0  0
    1.8472    1.5888    0.4921 C   0  0  0  0  0  0  0  0  0  0  0  0
    0.7711    0.8607    0.0715 C   0  0  0  0  0  0  0  0  0  0  0  0
   -0.5899    1.3312    0.1739 C   0  0  0  0  0  0  0  0  0  0  0  0
   -0.8629    2.5573    0.7105 C   0  0  0  0  0  0  0  0  0  0  0  0
   -2.1813    3.0029    0.8051 C   0  0  0  0  0  0  0  0  0  0  0  0
   -2.7224    4.1407    1.2793 N   0  0  0  0  0  0  0  0  0  0  0  0
   -4.0450    4.0939    1.1490 N   0  0  0  0  0  0  0  0  0  0  0  0
   -4.9547    5.1371    1.5498 C   0  0  0  0  0  0  0  0  0  0  0  0
   -4.3860    2.9207    0.5860 C   0  0  0  0  0  0  0  0  0  0  0  0
   -3.2017    2.2119    0.3604 C   0  0  0  0  0  0  0  0  0  0  0  0
   -2.8996    0.9929   -0.1706 C   0  0  0  0  0  0  0  0  0  0  0  0
   -3.9604    0.2084   -0.6156 O   0  0  0  0  0  0  0  0  0  0  0  0
   -3.7583   -1.0530   -1.1742 C   0  0  2  0  0  0  0  0  0  0  0  0
   -4.2554   -1.1569   -2.6041 C   0  0  0  0  0  0  0  0  0  0  0  0
   -4.4202   -2.1554   -0.3779 C   0  0  1  0  0  0  0  0  0  0  0  0
   -3.9021   -2.2286    1.0316 C   0  0  0  0  0  0  0  0  0  0  0  0
   -4.9952   -2.9142    1.7327 N   0  0  0  0  0  0  0  0  0  0  0  0
   -6.2028   -2.7596    0.9964 C   0  0  0  0  0  0  0  0  0  0  0  0
   -7.3269   -3.2565    1.2470 O   0  0  0  0  0  0  0  0  0  0  0  0
   -5.8958   -1.8781   -0.1612 C   0  0  0  0  0  0  0  0  0  0  0  0
   -1.6343    0.5726   -0.2580 N   0  0  0  0  0  0  0  0  0  0  0  0
    0.9831   -0.3895   -0.4811 C   0  0  0  0  0  0  0  0  0  0  0  0
    2.2479   -0.8712   -0.5967 C   0  0  0  0  0  0  0  0  0  0  0  0
    3.3287   -0.1343   -0.1717 C   0  0  0  0  0  0  0  0  0  0  0  0
    4.6378   -0.5672   -0.2614 O   0  0  0  0  0  0  0  0  0  0  0  0
    5.0800   -1.7896   -0.7823 C   0  0  0  0  0  0  0  0  0  0  0  0
    5.8672   -2.5367    0.2770 C   0  0  0  0  0  0  0  0  0  0  0  0
    7.1391   -3.0339   -0.3521 C   0  0  0  0  0  0  0  0  0  0  0  0
    8.0089   -1.9924   -0.6725 O   0  0  0  0  0  0  0  0  0  0  0  0
    7.3387   -0.9305   -1.2457 C   0  0  0  0  0  0  0  0  0  0  0  0
    6.0826   -1.4379   -1.8915 C   0  0  0  0  0  0  0  0  0  0  0  0
    3.4020    3.8038    0.6635 H   0  0  0  0  0  0  0  0  0  0  0  0
    3.3648    3.0913    2.3035 H   0  0  0  0  0  0  0  0  0  0  0  0
    4.8996    3.7044    1.6169 H   0  0  0  0  0  0  0  0  0  0  0  0
    1.7401    2.5893    0.9395 H   0  0  0  0  0  0  0  0  0  0  0  0
   -0.0939    3.2414    1.0858 H   0  0  0  0  0  0  0  0  0  0  0  0
   -5.8403    5.1634    0.8770 H   0  0  0  0  0  0  0  0  0  0  0  0
   -5.2666    5.0097    2.5973 H   0  0  0  0  0  0  0  0  0  0  0  0
   -4.4789    6.1557    1.4477 H   0  0  0  0  0  0  0  0  0  0  0  0
   -5.3546    2.5283    0.3273 H   0  0  0  0  0  0  0  0  0  0  0  0
   -2.6716   -1.2875   -1.1917 H   0  0  0  0  0  0  0  0  0  0  0  0
   -3.5542   -0.6575   -3.3085 H   0  0  0  0  0  0  0  0  0  0  0  0
   -4.2903   -2.2381   -2.8572 H   0  0  0  0  0  0  0  0  0  0  0  0
   -5.2606   -0.6932   -2.7193 H   0  0  0  0  0  0  0  0  0  0  0  0
   -4.3392   -3.1139   -0.8899 H   0  0  0  0  0  0  0  0  0  0  0  0
   -3.8083   -1.2343    1.4722 H   0  0  0  0  0  0  0  0  0  0  0  0
   -2.9848   -2.8449    1.1030 H   0  0  0  0  0  0  0  0  0  0  0  0
   -4.9222   -3.4405    2.6338 H   0  0  0  0  0  0  0  0  0  0  0  0
   -6.5080   -2.1245   -1.0553 H   0  0  0  0  0  0  0  0  0  0  0  0
   -6.0740   -0.8198    0.1403 H   0  0  0  0  0  0  0  0  0  0  0  0
    0.1595   -1.0039   -0.8291 H   0  0  0  0  0  0  0  0  0  0  0  0
    2.3887   -1.8489   -1.0309 H   0  0  0  0  0  0  0  0  0  0  0  0
    4.2989   -2.4536   -1.1484 H   0  0  0  0  0  0  0  0  0  0  0  0
    5.3004   -3.4398    0.6151 H   0  0  0  0  0  0  0  0  0  0  0  0
    6.0435   -1.9346    1.1826 H   0  0  0  0  0  0  0  0  0  0  0  0
    7.6927   -3.7189    0.3401 H   0  0  0  0  0  0  0  0  0  0  0  0
    6.8769   -3.6483   -1.2313 H   0  0  0  0  0  0  0  0  0  0  0  0
    7.0272   -0.1805   -0.4725 H   0  0  0  0  0  0  0  0  0  0  0  0
    7.9404   -0.4160   -2.0436 H   0  0  0  0  0  0  0  0  0  0  0  0
    5.5789   -0.6229   -2.4755 H   0  0  0  0  0  0  0  0  0  0  0  0
    6.2366   -2.2645   -2.5865 H   0  0  0  0  0  0  0  0  0  0  0  0
  1  2  1  0
  2  3  1  0
  3  4  2  0
  4  5  1  0
  5  6  1  0
  6  7  2  0
  7  8  1  0
  8  9  2  0
  9 10  1  0
 10 11  1  0
 10 12  1  0
 12 13  2  0
 13 14  1  0
 14 15  1  0
 15 16  1  0
 16 17  1  0
 16 18  1  0
 18 19  1  0
 19 20  1  0
 20 21  1  0
 21 22  2  0
 21 23  1  0
 14 24  2  0
  5 25  2  0
 25 26  1  0
 26 27  2  0
 27 28  1  0
 28 29  1  0
 29 30  1  0
 30 31  1  0
 31 32  1  0
 32 33  1  0
 33 34  1  0
 27  3  1  0
 34 29  1  0
 24  6  1  0
 13  8  1  0
 23 18  1  0
  1 35  1  0
  1 36  1  0
  1 37  1  0
  4 38  1  0
  7 39  1  0
 11 40  1  0
 11 41  1  0
 11 42  1  0
 12 43  1  0
 16 44  1  6
 17 45  1  0
 17 46  1  0
 17 47  1  0
 18 48  1  6
 19 49  1  0
 19 50  1  0
 20 51  1  0
 23 52  1  0
 23 53  1  0
 25 54  1  0
 26 55  1  0
 29 56  1  0
 30 57  1  0
 30 58  1  0
 31 59  1  0
 31 60  1  0
 33 61  1  0
 33 62  1  0
 34 63  1  0
 34 64  1  0
M  END
$$$$
