@<TRIPOS>MOLECULE
*****
 64 68 0 0 0
SMALL
GASTEIGER

@<TRIPOS>ATOM
      1 C           3.9731    3.1529    1.3803 C.3     1  UNL1        0.0790
      2 O           4.2397    1.8821    0.8228 O.3     1  UNL1       -0.4914
      3 C           3.1472    1.1301    0.3899 C.ar    1  UNL1        0.1621
      4 C           1.8472    1.5888    0.4921 C.ar    1  UNL1       -0.0071
      5 C           0.7711    0.8607    0.0715 C.ar    1  UNL1        0.0042
      6 C          -0.5899    1.3312    0.1739 C.ar    1  UNL1        0.0770
      7 C          -0.8629    2.5573    0.7105 C.ar    1  UNL1       -0.0077
      8 C          -2.1813    3.0029    0.8051 C.ar    1  UNL1        0.0999
      9 N          -2.7224    4.1407    1.2793 N.ar    1  UNL1       -0.1712
     10 N          -4.0450    4.0939    1.1490 N.ar    1  UNL1       -0.2732
     11 C          -4.9547    5.1371    1.5498 C.3     1  UNL1        0.0302
     12 C          -4.3860    2.9207    0.5860 C.ar    1  UNL1        0.0380
     13 C          -3.2017    2.2119    0.3604 C.ar    1  UNL1        0.0812
     14 C          -2.8996    0.9929   -0.1706 C.ar    1  UNL1        0.2265
     15 O          -3.9604    0.2084   -0.6156 O.3     1  UNL1       -0.4725
     16 C          -3.7583   -1.0530   -1.1742 C.3     1  UNL1        0.1037
     17 C          -4.2554   -1.1569   -2.6041 C.3     1  UNL1       -0.0274
     18 C          -4.4202   -2.1554   -0.3779 C.3     1  UNL1        0.0196
     19 C          -3.9021   -2.2286    1.0316 C.3     1  UNL1        0.0182
     20 N          -4.9952   -2.9142    1.7327 N.am    1  UNL1       -0.3149
     21 C          -6.2028   -2.7596    0.9964 C.2     1  UNL1        0.2135
     22 O          -7.3269   -3.2565    1.2470 O.2     1  UNL1       -0.2758
     23 C          -5.8958   -1.8781   -0.1612 C.3     1  UNL1        0.0315
     24 N          -1.6343    0.5726   -0.2580 N.ar    1  UNL1       -0.2122
     25 C           0.9831   -0.3895   -0.4811 C.ar    1  UNL1       -0.0489
     26 C           2.2479   -0.8712   -0.5967 C.ar    1  UNL1       -0.0157
     27 C           3.3287   -0.1343   -0.1717 C.ar    1  UNL1        0.1623
     28 O           4.6378   -0.5672   -0.2614 O.3     1  UNL1       -0.4850
     29 C           5.0800   -1.7896   -0.7823 C.3     1  UNL1        0.1045
     30 C           5.8672   -2.5367    0.2770 C.3     1  UNL1        0.0078
     31 C           7.1391   -3.0339   -0.3521 C.3     1  UNL1        0.0510
     32 O           8.0089   -1.9924   -0.6725 O.3     1  UNL1       -0.3795
     33 C           7.3387   -0.9305   -1.2457 C.3     1  UNL1        0.0510
     34 C           6.0826   -1.4379   -1.8915 C.3     1  UNL1        0.0078
     35 H           3.4020    3.8038    0.6635 H       1  UNL1        0.0660
     36 H           3.3648    3.0913    2.3035 H       1  UNL1        0.0660
     37 H           4.8996    3.7044    1.6169 H       1  UNL1        0.0660
     38 H           1.7401    2.5893    0.9395 H       1  UNL1        0.0662
     39 H          -0.0939    3.2414    1.0858 H       1  UNL1        0.0661
     40 H          -5.8403    5.1634    0.8770 H       1  UNL1        0.0473
     41 H          -5.2666    5.0097    2.5973 H       1  UNL1        0.0473
     42 H          -4.4789    6.1557    1.4477 H       1  UNL1        0.0473
     43 H          -5.3546    2.5283    0.3273 H       1  UNL1        0.0834
     44 H          -2.6716   -1.2875   -1.1917 H       1  UNL1        0.0734
     45 H          -3.5542   -0.6575   -3.3085 H       1  UNL1        0.0265
     46 H          -4.2903   -2.2381   -2.8572 H       1  UNL1        0.0265
     47 H          -5.2606   -0.6932   -2.7193 H       1  UNL1        0.0265
     48 H          -4.3392   -3.1139   -0.8899 H       1  UNL1        0.0356
     49 H          -3.8083   -1.2343    1.4722 H       1  UNL1        0.0466
     50 H          -2.9848   -2.8449    1.1030 H       1  UNL1        0.0466
     51 H          -4.9222   -3.4405    2.6338 H       1  UNL1        0.1487
     52 H          -6.5080   -2.1245   -1.0553 H       1  UNL1        0.0363
     53 H          -6.0740   -0.8198    0.1403 H       1  UNL1        0.0363
     54 H           0.1595   -1.0039   -0.8291 H       1  UNL1        0.0625
     55 H           2.3887   -1.8489   -1.0309 H       1  UNL1        0.0655
     56 H           4.2989   -2.4536   -1.1484 H       1  UNL1        0.0734
     57 H           5.3004   -3.4398    0.6151 H       1  UNL1        0.0323
     58 H           6.0435   -1.9346    1.1826 H       1  UNL1        0.0323
     59 H           7.6927   -3.7189    0.3401 H       1  UNL1        0.0561
     60 H           6.8769   -3.6483   -1.2313 H       1  UNL1        0.0561
     61 H           7.0272   -0.1805   -0.4725 H       1  UNL1        0.0561
     62 H           7.9404   -0.4160   -2.0436 H       1  UNL1        0.0561
     63 H           5.5789   -0.6229   -2.4755 H       1  UNL1        0.0323
     64 H           6.2366   -2.2645   -2.5865 H       1  UNL1        0.0323
@<TRIPOS>BOND
     1     1     2    1
     2     2     3    1
     3     3     4   ar
     4     4     5   ar
     5     5     6    1
     6     6     7   ar
     7     7     8   ar
     8     8     9   ar
     9     9    10   ar
    10    10    11    1
    11    10    12   ar
    12    12    13   ar
    13    13    14   ar
    14    14    15    1
    15    15    16    1
    16    16    17    1
    17    16    18    1
    18    18    19    1
    19    19    20    1
    20    20    21   am
    21    21    22    2
    22    21    23    1
    23    14    24   ar
    24     5    25   ar
    25    25    26   ar
    26    26    27   ar
    27    27    28    1
    28    28    29    1
    29    29    30    1
    30    30    31    1
    31    31    32    1
    32    32    33    1
    33    33    34    1
    34    27     3   ar
    35    34    29    1
    36    24     6   ar
    37    13     8   ar
    38    23    18    1
    39     1    35    1
    40     1    36    1
    41     1    37    1
    42     4    38    1
    43     7    39    1
    44    11    40    1
    45    11    41    1
    46    11    42    1
    47    12    43    1
    48    16    44    1
    49    17    45    1
    50    17    46    1
    51    17    47    1
    52    18    48    1
    53    19    49    1
    54    19    50    1
    55    20    51    1
    56    23    52    1
    57    23    53    1
    58    25    54    1
    59    26    55    1
    60    29    56    1
    61    30    57    1
    62    30    58    1
    63    31    59    1
    64    31    60    1
    65    33    61    1
    66    33    62    1
    67    34    63    1
    68    34    64    1
