@<TRIPOS>MOLECULE
*****
 50 54 0 0 0
SMALL
GASTEIGER

@<TRIPOS>ATOM
      1 O           3.5704    1.3307   -0.0276 O.2     1  UNL1       -0.2699
      2 C           3.6206    0.1389    0.4090 C.2     1  UNL1        0.2483
      3 N           2.4695   -0.4913    0.8728 N.am    1  UNL1       -0.2815
      4 C           1.1997    0.2163    0.8587 C.ar    1  UNL1        0.0343
      5 C           0.8310    0.9577    1.9577 C.ar    1  UNL1       -0.0404
      6 C          -0.3806    1.6253    1.9288 C.ar    1  UNL1       -0.0594
      7 C          -1.1879    1.5372    0.8129 C.ar    1  UNL1       -0.0524
      8 C          -0.8458    0.8039   -0.3003 C.ar    1  UNL1        0.0023
      9 C          -1.6647    0.6951   -1.4724 C.ar    1  UNL1        0.0763
     10 C          -1.1586    0.8114   -2.7535 C.ar    1  UNL1       -0.0174
     11 C          -1.9499    0.7061   -3.8771 C.ar    1  UNL1        0.0320
     12 N          -3.2779    0.4790   -3.7060 N.ar    1  UNL1       -0.2360
     13 C          -3.7891    0.3630   -2.4670 C.ar    1  UNL1        0.1566
     14 C          -5.0670    0.1362   -1.9637 C.ar    1  UNL1        0.0102
     15 C          -5.0081    0.1123   -0.5781 C.ar    1  UNL1        0.0954
     16 C          -6.1238   -0.0968    0.3168 C.ar    1  UNL1        0.0050
     17 C          -7.3939   -0.2978   -0.1792 C.ar    1  UNL1       -0.0344
     18 C          -8.4811   -0.5008    0.6624 C.ar    1  UNL1        0.0282
     19 N          -8.2868   -0.5003    1.9734 N.ar    1  UNL1       -0.2632
     20 C          -7.0548   -0.3057    2.4718 C.ar    1  UNL1        0.0282
     21 C          -5.9514   -0.1011    1.6752 C.ar    1  UNL1       -0.0344
     22 N          -3.7187    0.3213   -0.2796 N.ar    1  UNL1       -0.1644
     23 N          -2.9994    0.4688   -1.3765 N.ar    1  UNL1       -0.2135
     24 C           0.3843    0.1419   -0.2385 C.ar    1  UNL1       -0.0313
     25 C           4.9069   -0.5233    0.4028 C.ar    1  UNL1        0.0376
     26 C           5.0202   -1.8084    0.8621 C.ar    1  UNL1       -0.0496
     27 C           6.2789   -2.4262    0.8447 C.ar    1  UNL1       -0.0605
     28 C           7.3830   -1.7619    0.3773 C.ar    1  UNL1       -0.0501
     29 C           7.2798   -0.4591   -0.0905 C.ar    1  UNL1        0.0555
     30 C           8.5149    0.1824   -0.5752 C.3     1  UNL1        0.4174
     31 F           9.1228   -0.5311   -1.5953 F       1  UNL1       -0.1659
     32 F           9.4237    0.1761    0.4865 F       1  UNL1       -0.1659
     33 F           8.2866    1.4833   -0.9743 F       1  UNL1       -0.1659
     34 C           6.0503    0.1332   -0.0693 C.ar    1  UNL1       -0.0380
     35 H           2.4505   -1.4655    1.2416 H       1  UNL1        0.1551
     36 H           1.4483    1.0427    2.8474 H       1  UNL1        0.0636
     37 H          -0.6639    2.2103    2.8049 H       1  UNL1        0.0618
     38 H          -2.1235    2.0570    0.7992 H       1  UNL1        0.0624
     39 H          -0.0874    0.9942   -2.8782 H       1  UNL1        0.0654
     40 H          -1.5780    0.7932   -4.8888 H       1  UNL1        0.0831
     41 H          -5.9329    0.0062   -2.5867 H       1  UNL1        0.0677
     42 H          -7.5908   -0.3046   -1.2541 H       1  UNL1        0.0639
     43 H          -9.4610   -0.6548    0.2375 H       1  UNL1        0.0830
     44 H          -6.9738   -0.3187    3.5585 H       1  UNL1        0.0830
     45 H          -5.0005    0.0469    2.1504 H       1  UNL1        0.0639
     46 H           0.6756   -0.4436   -1.1061 H       1  UNL1        0.0643
     47 H           4.1846   -2.4028    1.2501 H       1  UNL1        0.0625
     48 H           6.3518   -3.4427    1.2112 H       1  UNL1        0.0618
     49 H           8.3385   -2.2781    0.3819 H       1  UNL1        0.0623
     50 H           5.9595    1.1441   -0.4302 H       1  UNL1        0.0631
@<TRIPOS>BOND
     1     1     2    2
     2     2     3   am
     3     3     4    1
     4     4     5   ar
     5     5     6   ar
     6     6     7   ar
     7     7     8   ar
     8     8     9    1
     9     9    10   ar
    10    10    11   ar
    11    11    12   ar
    12    12    13   ar
    13    13    14   ar
    14    14    15   ar
    15    15    16    1
    16    16    17   ar
    17    17    18   ar
    18    18    19   ar
    19    19    20   ar
    20    20    21   ar
    21    15    22   ar
    22    22    23   ar
    23     8    24   ar
    24     2    25    1
    25    25    26   ar
    26    26    27   ar
    27    27    28   ar
    28    28    29   ar
    29    29    30    1
    30    30    31    1
    31    30    32    1
    32    30    33    1
    33    29    34   ar
    34    24     4   ar
    35    34    25   ar
    36    23     9   ar
    37    23    13   ar
    38    21    16   ar
    39     3    35    1
    40     5    36    1
    41     6    37    1
    42     7    38    1
    43    10    39    1
    44    11    40    1
    45    14    41    1
    46    17    42    1
    47    18    43    1
    48    20    44    1
    49    21    45    1
    50    24    46    1
    51    26    47    1
    52    27    48    1
    53    28    49    1
    54    34    50    1
