@<TRIPOS>MOLECULE
*****
 28 30 0 0 0
SMALL
GASTEIGER

@<TRIPOS>ATOM
      1 O           4.7967   -0.8257    0.4949 O.3     1  UNL1       -0.5033
      2 C           3.5517   -0.2555    0.3385 C.ar    1  UNL1        0.1590
      3 C           2.4294   -1.0524    0.3903 C.ar    1  UNL1        0.1699
      4 O           2.4689   -2.4242    0.5945 O.3     1  UNL1       -0.5028
      5 C           1.1836   -0.4853    0.2343 C.ar    1  UNL1        0.0782
      6 C           1.0938    0.8811    0.0280 C.ar    1  UNL1        0.0370
      7 C           2.2291    1.6415   -0.0178 C.ar    1  UNL1       -0.0465
      8 C           3.5149    1.1130    0.1349 C.ar    1  UNL1       -0.0158
      9 C          -0.2033    1.5344   -0.1437 C.2     1  UNL1        0.1982
     10 O          -0.2786    2.7697   -0.3299 O.2     1  UNL1       -0.2865
     11 C          -1.4271    0.7436   -0.0987 C.ar    1  UNL1        0.0779
     12 C          -2.6367    1.3734   -0.2618 C.ar    1  UNL1        0.1286
     13 O          -2.6789    2.7306   -0.4640 O.3     1  UNL1       -0.5060
     14 C          -3.7975    0.6156   -0.2180 C.ar    1  UNL1       -0.0160
     15 C          -3.6704   -0.7587   -0.0083 C.ar    1  UNL1       -0.0160
     16 C          -2.4578   -1.3992    0.1566 C.ar    1  UNL1        0.1286
     17 O          -2.3732   -2.7685    0.3630 O.3     1  UNL1       -0.5060
     18 C          -1.3092   -0.6182    0.1086 C.ar    1  UNL1        0.0780
     19 C          -0.0284   -1.2945    0.2827 C.2     1  UNL1        0.2017
     20 O           0.0481   -2.5345    0.4697 O.2     1  UNL1       -0.2864
     21 H           5.4741   -0.3604    1.1178 H       1  UNL1        0.2923
     22 H           2.4750   -3.0882   -0.1892 H       1  UNL1        0.2923
     23 H           2.1302    2.7009   -0.1794 H       1  UNL1        0.0626
     24 H           4.4054    1.7257    0.0967 H       1  UNL1        0.0655
     25 H          -2.6856    3.4338    0.2380 H       1  UNL1        0.2922
     26 H          -4.7669    1.0861   -0.3437 H       1  UNL1        0.0655
     27 H          -4.5876   -1.3308    0.0224 H       1  UNL1        0.0655
     28 H          -2.8997   -3.1532    1.1611 H       1  UNL1        0.2922
@<TRIPOS>BOND
     1     1     2    1
     2     2     3   ar
     3     3     4    1
     4     3     5   ar
     5     5     6   ar
     6     6     7   ar
     7     7     8   ar
     8     6     9    1
     9     9    10    2
    10     9    11    1
    11    11    12   ar
    12    12    13    1
    13    12    14   ar
    14    14    15   ar
    15    15    16   ar
    16    16    17    1
    17    16    18   ar
    18    18    19    1
    19    19    20    2
    20     8     2   ar
    21    18    11   ar
    22    19     5    1
    23     1    21    1
    24     4    22    1
    25     7    23    1
    26     8    24    1
    27    13    25    1
    28    14    26    1
    29    15    27    1
    30    17    28    1
