@<TRIPOS>MOLECULE
*****
 52 54 0 0 0
SMALL
GASTEIGER

@<TRIPOS>ATOM
      1 C           3.2539   -1.7792   -1.0640 C.3     1  UNL1       -0.0483
      2 C           2.7074   -0.9477    0.1045 C.3     1  UNL1        0.0202
      3 C           3.8095   -0.9129    1.1422 C.3     1  UNL1        0.0116
      4 N           4.8956   -0.0561    0.7969 N.3     1  UNL1       -0.3108
      5 C           4.5198    1.1687    0.1647 C.3     1  UNL1        0.0176
      6 C           5.3315    2.3148    0.6739 C.3     1  UNL1       -0.0485
      7 C           3.0221    1.3612    0.4065 C.3     1  UNL1        0.0144
      8 N           2.3645    0.3347   -0.4111 N.3     1  UNL1       -0.2948
      9 C           0.9447    0.6126   -0.4145 C.3     1  UNL1        0.0228
     10 C           0.1535   -0.3560   -1.2107 C.3     1  UNL1        0.0616
     11 O          -1.2093   -0.1362   -1.2293 O.3     1  UNL1       -0.3661
     12 C          -1.8304   -0.1868   -0.0020 C.3     1  UNL1        0.1087
     13 C          -2.7594   -1.3706    0.0522 C.ar    1  UNL1       -0.0145
     14 C          -2.7953   -2.1912    1.1490 C.ar    1  UNL1       -0.0558
     15 C          -3.6392   -3.2652    1.1962 C.ar    1  UNL1       -0.0614
     16 C          -4.4698   -3.5386    0.1356 C.ar    1  UNL1       -0.0617
     17 C          -4.4369   -2.7129   -0.9739 C.ar    1  UNL1       -0.0614
     18 C          -3.5794   -1.6288   -1.0115 C.ar    1  UNL1       -0.0558
     19 C          -2.6646    1.0018    0.2037 C.ar    1  UNL1       -0.0145
     20 C          -2.2624    2.2739   -0.1128 C.ar    1  UNL1       -0.0558
     21 C          -3.0483    3.4020    0.0838 C.ar    1  UNL1       -0.0614
     22 C          -4.3061    3.2461    0.6275 C.ar    1  UNL1       -0.0617
     23 C          -4.7444    1.9813    0.9582 C.ar    1  UNL1       -0.0614
     24 C          -3.9467    0.8933    0.7520 C.ar    1  UNL1       -0.0558
     25 H           4.3475   -1.8699   -1.0148 H       1  UNL1        0.0245
     26 H           3.0060   -1.3033   -2.0317 H       1  UNL1        0.0245
     27 H           2.7803   -2.7838   -1.0659 H       1  UNL1        0.0245
     28 H           1.8630   -1.5034    0.5646 H       1  UNL1        0.0472
     29 H           3.3901   -0.7359    2.1575 H       1  UNL1        0.0439
     30 H           4.2190   -1.9641    1.1837 H       1  UNL1        0.0439
     31 H           5.6760   -0.5260    0.3259 H       1  UNL1        0.1223
     32 H           4.6691    1.0543   -0.9337 H       1  UNL1        0.0470
     33 H           5.8031    2.0477    1.6383 H       1  UNL1        0.0245
     34 H           6.1377    2.5617   -0.0750 H       1  UNL1        0.0245
     35 H           4.6930    3.1990    0.8059 H       1  UNL1        0.0245
     36 H           2.7167    2.3621    0.0800 H       1  UNL1        0.0442
     37 H           2.8139    1.1911    1.4657 H       1  UNL1        0.0442
     38 H           0.5651    0.7853    0.6050 H       1  UNL1        0.0449
     39 H           0.8624    1.6086   -0.9481 H       1  UNL1        0.0449
     40 H           0.3124   -1.3706   -0.7534 H       1  UNL1        0.0573
     41 H           0.4709   -0.4292   -2.2737 H       1  UNL1        0.0573
     42 H          -1.1044   -0.3505    0.7949 H       1  UNL1        0.0697
     43 H          -2.1248   -1.9516    1.9786 H       1  UNL1        0.0621
     44 H          -3.6386   -3.8984    2.0919 H       1  UNL1        0.0618
     45 H          -5.1308   -4.3771    0.1685 H       1  UNL1        0.0618
     46 H          -5.0752   -2.9150   -1.8003 H       1  UNL1        0.0618
     47 H          -3.5884   -1.0093   -1.9025 H       1  UNL1        0.0621
     48 H          -1.2930    2.4517   -0.5404 H       1  UNL1        0.0621
     49 H          -2.6926    4.3842   -0.1794 H       1  UNL1        0.0618
     50 H          -4.9779    4.0855    0.8101 H       1  UNL1        0.0618
     51 H          -5.7316    1.8609    1.3846 H       1  UNL1        0.0618
     52 H          -4.2790   -0.1122    1.0082 H       1  UNL1        0.0621
@<TRIPOS>BOND
     1     1     2    1
     2     2     3    1
     3     3     4    1
     4     4     5    1
     5     5     6    1
     6     5     7    1
     7     7     8    1
     8     8     9    1
     9     9    10    1
    10    10    11    1
    11    11    12    1
    12    12    13    1
    13    13    14   ar
    14    14    15   ar
    15    15    16   ar
    16    16    17   ar
    17    17    18   ar
    18    12    19    1
    19    19    20   ar
    20    20    21   ar
    21    21    22   ar
    22    22    23   ar
    23    23    24   ar
    24     8     2    1
    25    18    13   ar
    26    24    19   ar
    27     1    25    1
    28     1    26    1
    29     1    27    1
    30     2    28    1
    31     3    29    1
    32     3    30    1
    33     4    31    1
    34     5    32    1
    35     6    33    1
    36     6    34    1
    37     6    35    1
    38     7    36    1
    39     7    37    1
    40     9    38    1
    41     9    39    1
    42    10    40    1
    43    10    41    1
    44    12    42    1
    45    14    43    1
    46    15    44    1
    47    16    45    1
    48    17    46    1
    49    18    47    1
    50    20    48    1
    51    21    49    1
    52    22    50    1
    53    23    51    1
    54    24    52    1
