@<TRIPOS>MOLECULE
*****
 48 50 0 0 0
SMALL
GASTEIGER

@<TRIPOS>ATOM
      1 C          -6.6900   -2.5579    0.7582 C.3     1  UNL1        0.0788
      2 O          -5.6017   -2.4488    1.6734 O.3     1  UNL1       -0.4951
      3 C          -4.4140   -1.8200    1.2909 C.ar    1  UNL1        0.1202
      4 C          -4.2666   -1.3055    0.0324 C.ar    1  UNL1       -0.0180
      5 C          -3.0303   -0.6978   -0.2354 C.ar    1  UNL1       -0.0328
      6 C          -2.0224   -0.6146    0.6934 C.ar    1  UNL1        0.0663
      7 N          -0.7769    0.0117    0.3453 N.ar    1  UNL1       -0.2310
      8 N           0.4186   -0.4077    0.6831 N.ar    1  UNL1       -0.1574
      9 C           1.4032    0.3838    0.1771 C.ar    1  UNL1        0.1362
     10 C           2.8025    0.2014    0.3839 C.1     1  UNL1       -0.0427
     11 C           4.0261    0.0628    0.5577 C.1     1  UNL1       -0.0706
     12 C           5.4872   -0.0995    0.7534 C.3     1  UNL1        0.1124
     13 C           6.1431    1.2477    0.5958 C.3     1  UNL1       -0.0328
     14 N           5.9960   -0.9967   -0.2377 N.am    1  UNL1       -0.1530
     15 O           5.9370   -0.7407   -1.5698 O.3     1  UNL1       -0.2901
     16 C           6.5954   -2.2155    0.1661 C.2     1  UNL1        0.3236
     17 N           6.6404   -2.4982    1.5700 N.am    1  UNL1       -0.3115
     18 O           7.0677   -3.0226   -0.6545 O.2     1  UNL1       -0.2507
     19 C           0.7650    1.3539   -0.5220 C.ar    1  UNL1       -0.0001
     20 C          -0.5839    1.1111   -0.4055 C.ar    1  UNL1        0.0758
     21 C          -1.6750    1.9062   -0.9850 C.ar    1  UNL1        0.0006
     22 C          -1.6030    2.2569   -2.2923 C.ar    1  UNL1       -0.0512
     23 C          -2.5993    3.0358   -2.8930 C.ar    1  UNL1       -0.0428
     24 C          -3.6483    3.4159   -2.0694 C.ar    1  UNL1        0.0410
     25 CL         -4.9361    4.4042   -2.7874 Cl      1  UNL1       -0.0835
     26 C          -3.7177    3.0594   -0.7521 C.ar    1  UNL1       -0.0428
     27 C          -2.7206    2.2947   -0.1941 C.ar    1  UNL1       -0.0512
     28 C          -2.2216   -1.1565    1.9692 C.ar    1  UNL1       -0.0328
     29 C          -3.4127   -1.7434    2.2305 C.ar    1  UNL1       -0.0180
     30 H          -7.2189   -1.5890    0.7841 H       1  UNL1        0.0660
     31 H          -6.3507   -2.7613   -0.2568 H       1  UNL1        0.0660
     32 H          -7.3949   -3.3709    1.1029 H       1  UNL1        0.0660
     33 H          -5.0321   -1.3452   -0.7266 H       1  UNL1        0.0655
     34 H          -2.9366   -0.3121   -1.2488 H       1  UNL1        0.0640
     35 H           5.6723   -0.5190    1.7768 H       1  UNL1        0.0659
     36 H           6.9271    1.3430    1.4093 H       1  UNL1        0.0258
     37 H           5.3632    2.0450    0.7326 H       1  UNL1        0.0258
     38 H           6.6258    1.2908   -0.3952 H       1  UNL1        0.0258
     39 H           6.0719   -1.5778   -2.0753 H       1  UNL1        0.2418
     40 H           7.4792   -2.2114    2.1190 H       1  UNL1        0.1465
     41 H           5.8444   -2.9862    2.0386 H       1  UNL1        0.1465
     42 H           1.2359    2.1623   -1.0650 H       1  UNL1        0.0667
     43 H          -0.7702    1.9545   -2.9499 H       1  UNL1        0.0625
     44 H          -2.5484    3.3189   -3.9381 H       1  UNL1        0.0632
     45 H          -4.5598    3.3838   -0.1700 H       1  UNL1        0.0632
     46 H          -2.8029    2.0155    0.8508 H       1  UNL1        0.0625
     47 H          -1.4129   -1.0947    2.7197 H       1  UNL1        0.0640
     48 H          -3.5549   -2.1663    3.2414 H       1  UNL1        0.0655
@<TRIPOS>BOND
     1     1     2    1
     2     2     3    1
     3     3     4   ar
     4     4     5   ar
     5     5     6   ar
     6     6     7    1
     7     7     8   ar
     8     8     9   ar
     9     9    10    1
    10    10    11    3
    11    11    12    1
    12    12    13    1
    13    12    14    1
    14    14    15    1
    15    14    16   am
    16    16    17   am
    17    16    18    2
    18     9    19   ar
    19    19    20   ar
    20    20    21    1
    21    21    22   ar
    22    22    23   ar
    23    23    24   ar
    24    24    25    1
    25    24    26   ar
    26    26    27   ar
    27     6    28   ar
    28    28    29   ar
    29    29     3   ar
    30    20     7   ar
    31    27    21   ar
    32     1    30    1
    33     1    31    1
    34     1    32    1
    35     4    33    1
    36     5    34    1
    37    12    35    1
    38    13    36    1
    39    13    37    1
    40    13    38    1
    41    15    39    1
    42    17    40    1
    43    17    41    1
    44    19    42    1
    45    22    43    1
    46    23    44    1
    47    26    45    1
    48    27    46    1
    49    28    47    1
    50    29    48    1
