
     RDKit          3D

 32 33  0  0  0  0  0  0  0  0999 V2000
   -5.4517   -0.1647    0.0637 N   0  0  0  0  0  0  0  0  0  0  0  0
   -4.4793    0.3972    1.3500 S   0  0  0  0  0  6  0  0  0  0  0  0
   -4.7746    1.8717    1.5458 O   0  0  0  0  0  0  0  0  0  0  0  0
   -4.6956   -0.3763    2.6173 O   0  0  0  0  0  0  0  0  0  0  0  0
   -2.7973    0.2978    0.8458 C   0  0  0  0  0  0  0  0  0  0  0  0
   -2.4695   -0.1714   -0.3983 C   0  0  0  0  0  0  0  0  0  0  0  0
   -1.1419   -0.2674   -0.8410 C   0  0  0  0  0  0  0  0  0  0  0  0
   -0.8670   -0.7726   -2.1687 C   0  0  0  0  0  0  0  0  0  0  0  0
    0.2514   -0.9018   -2.6645 O   0  0  0  0  0  0  0  0  0  0  0  0
   -1.9509   -1.1570   -2.9860 O   0  0  0  0  0  0  0  0  0  0  0  0
   -0.1455    0.1269    0.0148 C   0  0  0  0  0  0  0  0  0  0  0  0
    1.2229    0.0663   -0.3437 N   0  0  0  0  0  0  0  0  0  0  0  0
    2.2093    0.5168    0.6566 C   0  0  0  0  0  0  0  0  0  0  0  0
    3.5962    0.4042    0.1632 C   0  0  0  0  0  0  0  0  0  0  0  0
    4.4282   -0.7123    0.3030 C   0  0  0  0  0  0  0  0  0  0  0  0
    5.6288   -0.4014   -0.2937 C   0  0  0  0  0  0  0  0  0  0  0  0
    5.4977    0.8675   -0.7697 C   0  0  0  0  0  0  0  0  0  0  0  0
    4.3075    1.2944   -0.4835 O   0  0  0  0  0  0  0  0  0  0  0  0
   -0.4973    0.6060    1.2878 C   0  0  0  0  0  0  0  0  0  0  0  0
   -1.7886    0.6904    1.6954 C   0  0  0  0  0  0  0  0  0  0  0  0
   -2.2515    1.2830    3.2739 Cl  0  0  0  0  0  0  0  0  0  0  0  0
   -5.2286   -1.1163   -0.2613 H   0  0  0  0  0  0  0  0  0  0  0  0
   -6.4491    0.0610    0.1385 H   0  0  0  0  0  0  0  0  0  0  0  0
   -3.2354   -0.4980   -1.1159 H   0  0  0  0  0  0  0  0  0  0  0  0
   -1.8066   -1.2177   -3.9996 H   0  0  0  0  0  0  0  0  0  0  0  0
    1.6336   -0.2527   -1.2174 H   0  0  0  0  0  0  0  0  0  0  0  0
    2.0288    1.5640    0.9450 H   0  0  0  0  0  0  0  0  0  0  0  0
    2.0318   -0.1346    1.5462 H   0  0  0  0  0  0  0  0  0  0  0  0
    4.1140   -1.6173    0.8013 H   0  0  0  0  0  0  0  0  0  0  0  0
    6.4911   -1.0389   -0.3647 H   0  0  0  0  0  0  0  0  0  0  0  0
    6.2900    1.4078   -1.3027 H   0  0  0  0  0  0  0  0  0  0  0  0
    0.2992    0.9175    1.9624 H   0  0  0  0  0  0  0  0  0  0  0  0
  1  2  1  0
  2  3  2  0
  2  4  2  0
  2  5  1  0
  5  6  2  0
  6  7  1  0
  7  8  1  0
  8  9  2  0
  8 10  1  0
  7 11  2  0
 11 12  1  0
 12 13  1  0
 13 14  1  0
 14 15  2  0
 15 16  1  0
 16 17  2  0
 17 18  1  0
 11 19  1  0
 19 20  2  0
 20 21  1  0
 20  5  1  0
 18 14  1  0
  1 22  1  0
  1 23  1  0
  6 24  1  0
 10 25  1  0
 12 26  1  0
 13 27  1  0
 13 28  1  0
 15 29  1  0
 16 30  1  0
 17 31  1  0
 19 32  1  0
M  END
$$$$
