@<TRIPOS>MOLECULE
*****
 32 33 0 0 0
SMALL
GASTEIGER

@<TRIPOS>ATOM
      1 N          -5.4517   -0.1647    0.0637 N.3     1  UNL1       -0.2035
      2 S          -4.4793    0.3972    1.3500 S.O2    1  UNL1        0.0574
      3 O          -4.7746    1.8717    1.5458 O.2     1  UNL1       -0.1532
      4 O          -4.6956   -0.3763    2.6173 O.2     1  UNL1       -0.1532
      5 C          -2.7973    0.2978    0.8458 C.ar    1  UNL1        0.1241
      6 C          -2.4695   -0.1714   -0.3983 C.ar    1  UNL1       -0.0182
      7 C          -1.1419   -0.2674   -0.8410 C.ar    1  UNL1        0.0815
      8 C          -0.8670   -0.7726   -2.1687 C.2     1  UNL1        0.3387
      9 O           0.2514   -0.9018   -2.6645 O.2     1  UNL1       -0.2451
     10 O          -1.9509   -1.1570   -2.9860 O.3     1  UNL1       -0.4771
     11 C          -0.1455    0.1269    0.0148 C.ar    1  UNL1        0.0431
     12 N           1.2229    0.0663   -0.3437 N.pl3   1  UNL1       -0.3360
     13 C           2.2093    0.5168    0.6566 C.3     1  UNL1        0.0673
     14 C           3.5962    0.4042    0.1632 C.ar    1  UNL1        0.1217
     15 C           4.4282   -0.7123    0.3030 C.ar    1  UNL1       -0.0192
     16 C           5.6288   -0.4014   -0.2937 C.ar    1  UNL1       -0.0236
     17 C           5.4977    0.8675   -0.7697 C.ar    1  UNL1        0.0921
     18 O           4.3075    1.2944   -0.4835 O.2     1  UNL1       -0.4662
     19 C          -0.4973    0.6060    1.2878 C.ar    1  UNL1       -0.0198
     20 C          -1.7886    0.6904    1.6954 C.ar    1  UNL1        0.0690
     21 CL         -2.2515    1.2830    3.2739 Cl      1  UNL1       -0.0815
     22 H          -5.2286   -1.1163   -0.2613 H       1  UNL1        0.1442
     23 H          -6.4491    0.0610    0.1385 H       1  UNL1        0.1442
     24 H          -3.2354   -0.4980   -1.1159 H       1  UNL1        0.0646
     25 H          -1.8066   -1.2177   -3.9996 H       1  UNL1        0.2954
     26 H           1.6336   -0.2527   -1.2174 H       1  UNL1        0.1465
     27 H           2.0288    1.5640    0.9450 H       1  UNL1        0.0542
     28 H           2.0318   -0.1346    1.5462 H       1  UNL1        0.0542
     29 H           4.1140   -1.6173    0.8013 H       1  UNL1        0.0652
     30 H           6.4911   -1.0389   -0.3647 H       1  UNL1        0.0649
     31 H           6.2900    1.4078   -1.3027 H       1  UNL1        0.1029
     32 H           0.2992    0.9175    1.9624 H       1  UNL1        0.0651
@<TRIPOS>BOND
     1     1     2    1
     2     2     3    2
     3     2     4    2
     4     2     5    1
     5     5     6   ar
     6     6     7   ar
     7     7     8    1
     8     8     9    2
     9     8    10    1
    10     7    11   ar
    11    11    12    1
    12    12    13    1
    13    13    14    1
    14    14    15   ar
    15    15    16   ar
    16    16    17   ar
    17    17    18   ar
    18    11    19   ar
    19    19    20   ar
    20    20    21    1
    21    20     5   ar
    22    18    14   ar
    23     1    22    1
    24     1    23    1
    25     6    24    1
    26    10    25    1
    27    12    26    1
    28    13    27    1
    29    13    28    1
    30    15    29    1
    31    16    30    1
    32    17    31    1
    33    19    32    1
