@<TRIPOS>MOLECULE
*****
 43 46 0 0 0
SMALL
GASTEIGER

@<TRIPOS>ATOM
      1 N           7.4234    6.1172    0.6893 N.1     1  UNL1       -0.1908
      2 C           6.4468    5.4932    0.5566 C.1     1  UNL1        0.1008
      3 C           5.2383    4.7311    0.4114 C.ar    1  UNL1        0.0726
      4 C           4.2960    4.6286    1.4149 C.ar    1  UNL1        0.0460
      5 N           3.1644    3.9148    1.2762 N.ar    1  UNL1       -0.2462
      6 C           2.8532    3.2385    0.1457 C.ar    1  UNL1        0.1608
      7 C           1.6008    2.5090    0.1256 C.2     1  UNL1        0.2694
      8 O           0.8349    2.5206    1.1620 O.2     1  UNL1       -0.2681
      9 N           1.0869    1.7469   -0.9431 N.am    1  UNL1       -0.2802
     10 C          -0.1840    1.0631   -0.8355 C.ar    1  UNL1        0.0342
     11 C          -1.3765    1.6476   -1.1865 C.ar    1  UNL1       -0.0377
     12 C          -2.6086    1.0426   -1.1067 C.ar    1  UNL1       -0.0243
     13 C          -2.6145   -0.2640   -0.6294 C.ar    1  UNL1        0.1292
     14 F          -3.7964   -0.9151   -0.5269 F       1  UNL1       -0.2051
     15 C          -1.4508   -0.9067   -0.2606 C.ar    1  UNL1        0.0228
     16 C          -1.5813   -2.3274    0.2525 C.3     1  UNL1        0.1603
     17 C          -0.2274   -2.7956    0.7096 C.3     1  UNL1        0.2686
     18 F          -0.3174   -4.0856    1.2374 F       1  UNL1       -0.2062
     19 F           0.6549   -2.9186   -0.3618 F       1  UNL1       -0.2062
     20 N          -2.4243   -2.2110    1.4267 N.2     1  UNL1       -0.2194
     21 C          -3.3146   -3.0751    1.7351 C.2     1  UNL1        0.2764
     22 N          -4.0904   -2.8638    2.9137 N.pl3   1  UNL1       -0.3134
     23 O          -3.4812   -4.1668    0.9152 O.2     1  UNL1       -0.4622
     24 C          -3.2225   -4.0851   -0.4521 C.3     1  UNL1        0.1091
     25 C          -1.9469   -4.5890   -1.0216 C.3     1  UNL1       -0.0064
     26 C          -2.2057   -3.0943   -0.8477 C.3     1  UNL1        0.0344
     27 C          -0.2548   -0.2483   -0.3637 C.ar    1  UNL1       -0.0321
     28 C           3.7674    3.3232   -0.8611 C.ar    1  UNL1        0.1550
     29 F           3.5480    2.6849   -2.0227 F       1  UNL1       -0.2030
     30 C           4.9555    4.0541   -0.7576 C.ar    1  UNL1       -0.0053
     31 H           4.5249    5.1634    2.3295 H       1  UNL1        0.0843
     32 H           1.6346    1.6763   -1.8262 H       1  UNL1        0.1552
     33 H          -1.3173    2.6770   -1.5566 H       1  UNL1        0.0637
     34 H          -3.5249    1.5037   -1.3809 H       1  UNL1        0.0647
     35 H           0.1312   -2.1349    1.4932 H       1  UNL1        0.1047
     36 H          -4.4045   -1.9154    3.1742 H       1  UNL1        0.1466
     37 H          -4.3422   -3.6639    3.5145 H       1  UNL1        0.1466
     38 H          -4.1222   -4.2185   -1.0852 H       1  UNL1        0.0737
     39 H          -1.2131   -5.1087   -0.4321 H       1  UNL1        0.0306
     40 H          -1.9980   -4.9750   -2.0803 H       1  UNL1        0.0306
     41 H          -2.4549   -2.5498   -1.8122 H       1  UNL1        0.0366
     42 H           0.6611   -0.7197   -0.0782 H       1  UNL1        0.0640
     43 H           5.6519    4.0963   -1.5744 H       1  UNL1        0.0660
@<TRIPOS>BOND
     1     1     2    3
     2     2     3    1
     3     3     4   ar
     4     4     5   ar
     5     5     6   ar
     6     6     7    1
     7     7     8    2
     8     7     9   am
     9     9    10    1
    10    10    11   ar
    11    11    12   ar
    12    12    13   ar
    13    13    14    1
    14    13    15   ar
    15    15    16    1
    16    16    17    1
    17    17    18    1
    18    17    19    1
    19    16    20    1
    20    20    21    2
    21    21    22    1
    22    21    23    1
    23    23    24    1
    24    24    25    1
    25    25    26    1
    26    15    27   ar
    27     6    28   ar
    28    28    29    1
    29    28    30   ar
    30    30     3   ar
    31    27    10   ar
    32    26    16    1
    33    26    24    1
    34     4    31    1
    35     9    32    1
    36    11    33    1
    37    12    34    1
    38    17    35    1
    39    22    36    1
    40    22    37    1
    41    24    38    1
    42    25    39    1
    43    25    40    1
    44    26    41    1
    45    27    42    1
    46    30    43    1
