@<TRIPOS>MOLECULE
*****
 61 68 0 0 0
SMALL
GASTEIGER

@<TRIPOS>ATOM
      1 C          -2.1861    0.4077    1.9887 C.3     1  UNL1       -0.0155
      2 N          -1.4362   -0.6122    1.2949 N.3     1  UNL1       -0.3136
      3 C          -2.1857   -1.3173    0.3028 C.3     1  UNL1        0.0423
      4 C          -1.4209   -2.4635   -0.3111 C.3     1  UNL1        0.0107
      5 C          -0.4691   -2.0406   -1.3832 C.3     1  UNL1        0.1402
      6 O          -0.7394   -0.9624   -2.0912 O.3     1  UNL1       -0.3282
      7 C          -1.4585    0.1033   -1.5551 C.3     1  UNL1        0.1741
      8 C          -1.8640    0.8997   -2.8208 C.3     1  UNL1       -0.0136
      9 C          -2.6300   -0.4552   -0.8669 C.3     1  UNL1        0.1214
     10 O          -3.6482    0.3705   -0.5142 O.3     1  UNL1       -0.3735
     11 C          -4.8390   -0.0439   -1.0887 C.3     1  UNL1        0.0371
     12 N          -0.5732    0.9413   -0.7702 N.ar    1  UNL1       -0.3070
     13 C          -0.6964    2.2492   -0.4960 C.ar    1  UNL1        0.0527
     14 C          -1.6712    3.1556   -0.7977 C.ar    1  UNL1       -0.0375
     15 C          -1.5571    4.4774   -0.3820 C.ar    1  UNL1       -0.0598
     16 C          -0.4725    4.9269    0.3428 C.ar    1  UNL1       -0.0611
     17 C           0.5289    4.0106    0.6574 C.ar    1  UNL1       -0.0520
     18 C           0.3859    2.7103    0.2311 C.ar    1  UNL1        0.0081
     19 C           1.1983    1.6302    0.4058 C.ar    1  UNL1        0.0151
     20 C           2.4210    1.4549    1.0359 C.ar    1  UNL1       -0.0078
     21 C           3.0667    0.2299    1.0715 C.ar    1  UNL1        0.0518
     22 C           2.4577   -0.8375    0.4565 C.ar    1  UNL1        0.0221
     23 C           2.7549   -2.1703    0.2913 C.ar    1  UNL1        0.0085
     24 C           3.8233   -2.9387    0.6870 C.ar    1  UNL1       -0.0520
     25 C           3.8248   -4.2981    0.3537 C.ar    1  UNL1       -0.0611
     26 C           2.7961   -4.8769   -0.3516 C.ar    1  UNL1       -0.0598
     27 C           1.7091   -4.0945   -0.7541 C.ar    1  UNL1       -0.0375
     28 C           1.7093   -2.7645   -0.4271 C.ar    1  UNL1        0.0524
     29 N           0.8137   -1.8278   -0.6871 N.ar    1  UNL1       -0.3115
     30 C           1.2209   -0.6561   -0.1795 C.ar    1  UNL1        0.0774
     31 C           0.6135    0.5793   -0.1951 C.ar    1  UNL1        0.0772
     32 C           4.3159    0.3723    1.7975 C.2     1  UNL1        0.2453
     33 O           5.2007   -0.4493    2.0704 O.2     1  UNL1       -0.2702
     34 N           4.4139    1.7377    2.2086 N.am    1  UNL1       -0.3072
     35 C           3.2683    2.4592    1.7681 C.3     1  UNL1        0.0385
     36 H          -1.5915    0.8344    2.8467 H       1  UNL1        0.0388
     37 H          -3.0751   -0.0576    2.5123 H       1  UNL1        0.0388
     38 H          -2.6024    1.1973    1.3699 H       1  UNL1        0.0388
     39 H          -0.9852   -1.2183    1.9957 H       1  UNL1        0.1220
     40 H          -3.1173   -1.6945    0.7729 H       1  UNL1        0.0489
     41 H          -0.9111   -2.9844    0.5242 H       1  UNL1        0.0325
     42 H          -2.1415   -3.1901   -0.7361 H       1  UNL1        0.0325
     43 H          -0.2894   -2.8968   -2.0679 H       1  UNL1        0.0839
     44 H          -1.6825    0.2819   -3.7547 H       1  UNL1        0.0277
     45 H          -1.1811    1.7591   -2.9659 H       1  UNL1        0.0277
     46 H          -2.9290    1.1124   -2.8587 H       1  UNL1        0.0277
     47 H          -3.0785   -1.2274   -1.5764 H       1  UNL1        0.0660
     48 H          -5.6821    0.6343   -0.8075 H       1  UNL1        0.0524
     49 H          -4.8200   -0.1301   -2.1899 H       1  UNL1        0.0524
     50 H          -5.1528   -1.0466   -0.7012 H       1  UNL1        0.0524
     51 H          -2.5216    2.8413   -1.3452 H       1  UNL1        0.0638
     52 H          -2.3784    5.1428   -0.6628 H       1  UNL1        0.0618
     53 H          -0.4133    5.9650    0.6522 H       1  UNL1        0.0618
     54 H           1.3814    4.3373    1.2202 H       1  UNL1        0.0624
     55 H           4.6534   -2.5705    1.2314 H       1  UNL1        0.0624
     56 H           4.6792   -4.8839    0.6772 H       1  UNL1        0.0618
     57 H           2.7937   -5.9214   -0.6097 H       1  UNL1        0.0618
     58 H           0.8959   -4.5371   -1.3079 H       1  UNL1        0.0638
     59 H           5.2066    2.1745    2.7584 H       1  UNL1        0.1493
     60 H           2.6852    2.8932    2.6253 H       1  UNL1        0.0512
     61 H           3.5821    3.2778    1.1052 H       1  UNL1        0.0512
@<TRIPOS>BOND
     1     1     2    1
     2     2     3    1
     3     3     4    1
     4     4     5    1
     5     5     6    1
     6     6     7    1
     7     7     8    1
     8     7     9    1
     9     9    10    1
    10    10    11    1
    11     7    12    1
    12    12    13   ar
    13    13    14   ar
    14    14    15   ar
    15    15    16   ar
    16    16    17   ar
    17    17    18   ar
    18    18    19   ar
    19    19    20   ar
    20    20    21   ar
    21    21    22   ar
    22    22    23   ar
    23    23    24   ar
    24    24    25   ar
    25    25    26   ar
    26    26    27   ar
    27    27    28   ar
    28    28    29   ar
    29    29    30   ar
    30    30    31   ar
    31    21    32    1
    32    32    33    2
    33    32    34   am
    34    34    35    1
    35     9     3    1
    36    31    12   ar
    37    29     5    1
    38    18    13   ar
    39    31    19   ar
    40    35    20    1
    41    30    22   ar
    42    28    23   ar
    43     1    36    1
    44     1    37    1
    45     1    38    1
    46     2    39    1
    47     3    40    1
    48     4    41    1
    49     4    42    1
    50     5    43    1
    51     8    44    1
    52     8    45    1
    53     8    46    1
    54     9    47    1
    55    11    48    1
    56    11    49    1
    57    11    50    1
    58    14    51    1
    59    15    52    1
    60    16    53    1
    61    17    54    1
    62    24    55    1
    63    25    56    1
    64    26    57    1
    65    27    58    1
    66    34    59    1
    67    35    60    1
    68    35    61    1
