@<TRIPOS>MOLECULE
*****
 56 59 0 0 0
SMALL
GASTEIGER

@<TRIPOS>ATOM
      1 C           7.8402    1.5534    1.6846 C.3     1  UNL1       -0.0598
      2 C           7.4313    0.0946    1.4465 C.3     1  UNL1       -0.0115
      3 C           6.1185    0.1431    0.7635 C.ar    1  UNL1        0.0635
      4 C           4.8996    0.1532    1.3908 C.ar    1  UNL1       -0.0086
      5 C           3.8620    0.2031    0.4351 C.ar    1  UNL1        0.1235
      6 C           2.4660    0.2510    0.7986 C.2     1  UNL1        0.2624
      7 O           2.1797    0.5547    2.0344 O.2     1  UNL1       -0.2685
      8 N           1.3744   -0.0031   -0.0522 N.am    1  UNL1       -0.3057
      9 C           0.0305    0.1017    0.4995 C.3     1  UNL1        0.0414
     10 C          -0.7425   -1.1801    0.3326 C.3     1  UNL1       -0.0058
     11 C          -2.1676   -0.6616    0.5713 C.3     1  UNL1        0.1040
     12 C          -2.4166   -0.5667    2.0426 C.2     1  UNL1        0.2311
     13 N          -2.5043   -1.7401    2.8481 N.am    1  UNL1       -0.3278
     14 O          -2.5600    0.5279    2.6438 O.2     1  UNL1       -0.2740
     15 N          -2.1392    0.6774   -0.0251 N.am    1  UNL1       -0.2841
     16 C          -3.2876    1.4698   -0.2688 C.2     1  UNL1        0.2509
     17 O          -3.1344    2.6048   -0.7861 O.2     1  UNL1       -0.2698
     18 C          -4.6443    1.0308    0.0520 C.ar    1  UNL1        0.0823
     19 C          -5.3836    1.1999    1.1977 C.ar    1  UNL1        0.1053
     20 O          -6.5616    0.6475    1.0543 O.2     1  UNL1       -0.4621
     21 C          -6.6581    0.1019   -0.1563 C.ar    1  UNL1        0.1355
     22 C          -7.6449   -0.5853   -0.8143 C.ar    1  UNL1       -0.0187
     23 C          -7.4736   -1.0549   -2.1092 C.ar    1  UNL1       -0.0582
     24 C          -6.2896   -0.8357   -2.7691 C.ar    1  UNL1       -0.0610
     25 C          -5.2977   -0.1404   -2.0977 C.ar    1  UNL1       -0.0503
     26 C          -5.4592    0.3291   -0.8126 C.ar    1  UNL1        0.0323
     27 C          -0.7806    1.0688   -0.3317 C.3     1  UNL1        0.0343
     28 N           4.4911    0.2221   -0.7211 N.ar    1  UNL1       -0.2593
     29 C           3.8845    0.2966   -2.0479 C.3     1  UNL1        0.0395
     30 C           3.6145   -1.0875   -2.5739 C.3     1  UNL1       -0.0455
     31 N           5.8368    0.1861   -0.5395 N.ar    1  UNL1       -0.1755
     32 H           8.6306    1.6504    2.4298 H       1  UNL1        0.0233
     33 H           8.1292    1.9418    0.6754 H       1  UNL1        0.0233
     34 H           6.8955    2.0923    1.9509 H       1  UNL1        0.0233
     35 H           8.1959   -0.4186    0.8334 H       1  UNL1        0.0326
     36 H           7.3875   -0.4653    2.4090 H       1  UNL1        0.0326
     37 H           4.7560    0.1260    2.4500 H       1  UNL1        0.0659
     38 H           1.4418   -0.2746   -1.0308 H       1  UNL1        0.1494
     39 H           0.0360    0.3705    1.5705 H       1  UNL1        0.0514
     40 H          -0.6404   -1.5707   -0.6919 H       1  UNL1        0.0306
     41 H          -0.5020   -1.9296    1.1019 H       1  UNL1        0.0306
     42 H          -2.9277   -1.2419    0.0518 H       1  UNL1        0.0597
     43 H          -1.8466   -1.9760    3.6128 H       1  UNL1        0.1450
     44 H          -3.2999   -2.4039    2.6374 H       1  UNL1        0.1450
     45 H          -5.0360    1.7205    2.0968 H       1  UNL1        0.1037
     46 H          -8.5794   -0.7551   -0.2856 H       1  UNL1        0.0654
     47 H          -8.2761   -1.6006   -2.6119 H       1  UNL1        0.0619
     48 H          -6.1036   -1.1822   -3.7842 H       1  UNL1        0.0618
     49 H          -4.3573    0.0354   -2.6169 H       1  UNL1        0.0625
     50 H          -0.5773    2.1296   -0.0844 H       1  UNL1        0.0483
     51 H          -0.5285    0.8483   -1.4049 H       1  UNL1        0.0483
     52 H           4.6905    0.7858   -2.7014 H       1  UNL1        0.0506
     53 H           2.9905    0.9223   -2.0796 H       1  UNL1        0.0506
     54 H           3.6242   -1.8620   -1.7832 H       1  UNL1        0.0247
     55 H           4.3778   -1.3498   -3.3509 H       1  UNL1        0.0247
     56 H           2.6355   -1.1545   -3.0839 H       1  UNL1        0.0247
@<TRIPOS>BOND
     1     1     2    1
     2     2     3    1
     3     3     4   ar
     4     4     5   ar
     5     5     6    1
     6     6     7    2
     7     6     8   am
     8     8     9    1
     9     9    10    1
    10    10    11    1
    11    11    12    1
    12    12    13   am
    13    12    14    2
    14    11    15    1
    15    15    16   am
    16    16    17    2
    17    16    18    1
    18    18    19   ar
    19    19    20   ar
    20    20    21   ar
    21    21    22   ar
    22    22    23   ar
    23    23    24   ar
    24    24    25   ar
    25    25    26   ar
    26    15    27    1
    27     5    28   ar
    28    28    29    1
    29    29    30    1
    30    28    31   ar
    31    31     3   ar
    32    27     9    1
    33    26    18   ar
    34    26    21   ar
    35     1    32    1
    36     1    33    1
    37     1    34    1
    38     2    35    1
    39     2    36    1
    40     4    37    1
    41     8    38    1
    42     9    39    1
    43    10    40    1
    44    10    41    1
    45    11    42    1
    46    13    43    1
    47    13    44    1
    48    19    45    1
    49    22    46    1
    50    23    47    1
    51    24    48    1
    52    25    49    1
    53    27    50    1
    54    27    51    1
    55    29    52    1
    56    29    53    1
    57    30    54    1
    58    30    55    1
    59    30    56    1
