
     RDKit          3D

 56 59  0  0  0  0  0  0  0  0999 V2000
    7.8402    1.5534    1.6846 C   0  0  0  0  0  0  0  0  0  0  0  0
    7.4313    0.0946    1.4465 C   0  0  0  0  0  0  0  0  0  0  0  0
    6.1185    0.1431    0.7635 C   0  0  0  0  0  0  0  0  0  0  0  0
    4.8996    0.1532    1.3908 C   0  0  0  0  0  0  0  0  0  0  0  0
    3.8620    0.2031    0.4351 C   0  0  0  0  0  0  0  0  0  0  0  0
    2.4660    0.2510    0.7986 C   0  0  0  0  0  0  0  0  0  0  0  0
    2.1797    0.5547    2.0344 O   0  0  0  0  0  0  0  0  0  0  0  0
    1.3744   -0.0031   -0.0522 N   0  0  0  0  0  0  0  0  0  0  0  0
    0.0305    0.1017    0.4995 C   0  0  2  0  0  0  0  0  0  0  0  0
   -0.7425   -1.1801    0.3326 C   0  0  0  0  0  0  0  0  0  0  0  0
   -2.1676   -0.6616    0.5713 C   0  0  1  0  0  0  0  0  0  0  0  0
   -2.4166   -0.5667    2.0426 C   0  0  0  0  0  0  0  0  0  0  0  0
   -2.5043   -1.7401    2.8481 N   0  0  0  0  0  0  0  0  0  0  0  0
   -2.5600    0.5279    2.6438 O   0  0  0  0  0  0  0  0  0  0  0  0
   -2.1392    0.6774   -0.0251 N   0  0  0  0  0  0  0  0  0  0  0  0
   -3.2876    1.4698   -0.2688 C   0  0  0  0  0  0  0  0  0  0  0  0
   -3.1344    2.6048   -0.7861 O   0  0  0  0  0  0  0  0  0  0  0  0
   -4.6443    1.0308    0.0520 C   0  0  0  0  0  0  0  0  0  0  0  0
   -5.3836    1.1999    1.1977 C   0  0  0  0  0  0  0  0  0  0  0  0
   -6.5616    0.6475    1.0543 O   0  0  0  0  0  0  0  0  0  0  0  0
   -6.6581    0.1019   -0.1563 C   0  0  0  0  0  0  0  0  0  0  0  0
   -7.6449   -0.5853   -0.8143 C   0  0  0  0  0  0  0  0  0  0  0  0
   -7.4736   -1.0549   -2.1092 C   0  0  0  0  0  0  0  0  0  0  0  0
   -6.2896   -0.8357   -2.7691 C   0  0  0  0  0  0  0  0  0  0  0  0
   -5.2977   -0.1404   -2.0977 C   0  0  0  0  0  0  0  0  0  0  0  0
   -5.4592    0.3291   -0.8126 C   0  0  0  0  0  0  0  0  0  0  0  0
   -0.7806    1.0688   -0.3317 C   0  0  0  0  0  0  0  0  0  0  0  0
    4.4911    0.2221   -0.7211 N   0  0  0  0  0  0  0  0  0  0  0  0
    3.8845    0.2966   -2.0479 C   0  0  0  0  0  0  0  0  0  0  0  0
    3.6145   -1.0875   -2.5739 C   0  0  0  0  0  0  0  0  0  0  0  0
    5.8368    0.1861   -0.5395 N   0  0  0  0  0  0  0  0  0  0  0  0
    8.6306    1.6504    2.4298 H   0  0  0  0  0  0  0  0  0  0  0  0
    8.1292    1.9418    0.6754 H   0  0  0  0  0  0  0  0  0  0  0  0
    6.8955    2.0923    1.9509 H   0  0  0  0  0  0  0  0  0  0  0  0
    8.1959   -0.4186    0.8334 H   0  0  0  0  0  0  0  0  0  0  0  0
    7.3875   -0.4653    2.4090 H   0  0  0  0  0  0  0  0  0  0  0  0
    4.7560    0.1260    2.4500 H   0  0  0  0  0  0  0  0  0  0  0  0
    1.4418   -0.2746   -1.0308 H   0  0  0  0  0  0  0  0  0  0  0  0
    0.0360    0.3705    1.5705 H   0  0  0  0  0  0  0  0  0  0  0  0
   -0.6404   -1.5707   -0.6919 H   0  0  0  0  0  0  0  0  0  0  0  0
   -0.5020   -1.9296    1.1019 H   0  0  0  0  0  0  0  0  0  0  0  0
   -2.9277   -1.2419    0.0518 H   0  0  0  0  0  0  0  0  0  0  0  0
   -1.8466   -1.9760    3.6128 H   0  0  0  0  0  0  0  0  0  0  0  0
   -3.2999   -2.4039    2.6374 H   0  0  0  0  0  0  0  0  0  0  0  0
   -5.0360    1.7205    2.0968 H   0  0  0  0  0  0  0  0  0  0  0  0
   -8.5794   -0.7551   -0.2856 H   0  0  0  0  0  0  0  0  0  0  0  0
   -8.2761   -1.6006   -2.6119 H   0  0  0  0  0  0  0  0  0  0  0  0
   -6.1036   -1.1822   -3.7842 H   0  0  0  0  0  0  0  0  0  0  0  0
   -4.3573    0.0354   -2.6169 H   0  0  0  0  0  0  0  0  0  0  0  0
   -0.5773    2.1296   -0.0844 H   0  0  0  0  0  0  0  0  0  0  0  0
   -0.5285    0.8483   -1.4049 H   0  0  0  0  0  0  0  0  0  0  0  0
    4.6905    0.7858   -2.7014 H   0  0  0  0  0  0  0  0  0  0  0  0
    2.9905    0.9223   -2.0796 H   0  0  0  0  0  0  0  0  0  0  0  0
    3.6242   -1.8620   -1.7832 H   0  0  0  0  0  0  0  0  0  0  0  0
    4.3778   -1.3498   -3.3509 H   0  0  0  0  0  0  0  0  0  0  0  0
    2.6355   -1.1545   -3.0839 H   0  0  0  0  0  0  0  0  0  0  0  0
  1  2  1  0
  2  3  1  0
  3  4  1  0
  4  5  2  0
  5  6  1  0
  6  7  2  0
  6  8  1  0
  8  9  1  0
  9 10  1  0
 10 11  1  0
 11 12  1  0
 12 13  1  0
 12 14  2  0
 11 15  1  0
 15 16  1  0
 16 17  2  0
 16 18  1  0
 18 19  2  0
 19 20  1  0
 20 21  1  0
 21 22  2  0
 22 23  1  0
 23 24  2  0
 24 25  1  0
 25 26  2  0
 15 27  1  0
  5 28  1  0
 28 29  1  0
 29 30  1  0
 28 31  1  0
 31  3  2  0
 27  9  1  0
 26 18  1  0
 26 21  1  0
  1 32  1  0
  1 33  1  0
  1 34  1  0
  2 35  1  0
  2 36  1  0
  4 37  1  0
  8 38  1  0
  9 39  1  1
 10 40  1  0
 10 41  1  0
 11 42  1  6
 13 43  1  0
 13 44  1  0
 19 45  1  0
 22 46  1  0
 23 47  1  0
 24 48  1  0
 25 49  1  0
 27 50  1  0
 27 51  1  0
 29 52  1  0
 29 53  1  0
 30 54  1  0
 30 55  1  0
 30 56  1  0
M  END
$$$$
