@<TRIPOS>MOLECULE
*****
 40 41 0 0 0
SMALL
GASTEIGER

@<TRIPOS>ATOM
      1 C          -0.7532    2.6160    1.1063 C.3     1  UNL1       -0.0544
      2 C          -1.7491    1.8248    0.3448 C.3     1  UNL1        0.0301
      3 C          -1.9690    2.4415   -1.0463 C.3     1  UNL1       -0.0544
      4 C          -1.5635    0.3782    0.2366 C.2     1  UNL1        0.2187
      5 O          -2.5276   -0.3052    0.7498 O.2     1  UNL1       -0.2753
      6 N          -0.5204   -0.3655   -0.3366 N.am    1  UNL1       -0.2926
      7 C           0.6053    0.2820   -0.8770 C.3     1  UNL1        0.0415
      8 C           1.8006    0.5718   -0.1391 C.ar    1  UNL1       -0.0090
      9 C           2.8804    1.1200   -0.8631 C.ar    1  UNL1       -0.0372
     10 C           4.0738    1.4434   -0.3143 C.ar    1  UNL1        0.0427
     11 CL          5.4016    2.1275   -1.2549 Cl      1  UNL1       -0.0835
     12 C           4.2992    1.2472    1.0181 C.ar    1  UNL1       -0.0236
     13 C           3.2778    0.7143    1.7723 C.ar    1  UNL1        0.0609
     14 CL          3.5170    0.4404    3.5008 Cl      1  UNL1       -0.0820
     15 C           2.0467    0.3843    1.1891 C.ar    1  UNL1        0.0640
     16 CL          0.8667   -0.2770    2.2920 Cl      1  UNL1       -0.0817
     17 C          -0.6395   -1.8038   -0.4596 C.3     1  UNL1        0.0400
     18 C          -1.0274   -2.5695    0.7228 C.3     1  UNL1       -0.0205
     19 C          -2.1008   -3.5571    0.2420 C.3     1  UNL1       -0.0023
     20 N          -1.8706   -3.5974   -1.2051 N.3     1  UNL1       -0.3142
     21 C          -1.7116   -2.1800   -1.4749 C.3     1  UNL1        0.0146
     22 H          -0.5423    2.2572    2.1298 H       1  UNL1        0.0237
     23 H          -1.1926    3.6648    1.2824 H       1  UNL1        0.0237
     24 H           0.2135    2.7675    0.5949 H       1  UNL1        0.0237
     25 H          -2.7430    2.0265    0.8779 H       1  UNL1        0.0389
     26 H          -1.1101    3.0961   -1.3394 H       1  UNL1        0.0237
     27 H          -2.0112    1.6135   -1.7556 H       1  UNL1        0.0237
     28 H          -2.9091    3.0247   -0.9977 H       1  UNL1        0.0237
     29 H           0.3155    1.2192   -1.4550 H       1  UNL1        0.0514
     30 H           0.9369   -0.3864   -1.7598 H       1  UNL1        0.0514
     31 H           2.7425    1.2905   -1.9188 H       1  UNL1        0.0636
     32 H           5.2594    1.5062    1.4653 H       1  UNL1        0.0647
     33 H           0.3084   -2.2049   -0.9456 H       1  UNL1        0.0513
     34 H          -0.1591   -3.2395    1.0390 H       1  UNL1        0.0296
     35 H          -1.3877   -1.9899    1.5617 H       1  UNL1        0.0296
     36 H          -1.9657   -4.5451    0.6998 H       1  UNL1        0.0425
     37 H          -3.1074   -3.1807    0.4610 H       1  UNL1        0.0425
     38 H          -0.9623   -4.0863   -1.3705 H       1  UNL1        0.1220
     39 H          -2.6707   -1.7018   -1.2707 H       1  UNL1        0.0442
     40 H          -1.3514   -2.0673   -2.5025 H       1  UNL1        0.0442
@<TRIPOS>BOND
     1     1     2    1
     2     2     3    1
     3     2     4    1
     4     4     5    2
     5     4     6   am
     6     6     7    1
     7     7     8    1
     8     8     9   ar
     9     9    10   ar
    10    10    11    1
    11    10    12   ar
    12    12    13   ar
    13    13    14    1
    14    13    15   ar
    15    15    16    1
    16     6    17    1
    17    17    18    1
    18    18    19    1
    19    19    20    1
    20    20    21    1
    21    15     8   ar
    22    21    17    1
    23     1    22    1
    24     1    23    1
    25     1    24    1
    26     2    25    1
    27     3    26    1
    28     3    27    1
    29     3    28    1
    30     7    29    1
    31     7    30    1
    32     9    31    1
    33    12    32    1
    34    17    33    1
    35    18    34    1
    36    18    35    1
    37    19    36    1
    38    19    37    1
    39    20    38    1
    40    21    39    1
    41    21    40    1
