
     RDKit          3D

 40 41  0  0  0  0  0  0  0  0999 V2000
   -0.7532    2.6160    1.1063 C   0  0  0  0  0  0  0  0  0  0  0  0
   -1.7491    1.8248    0.3448 C   0  0  0  0  0  0  0  0  0  0  0  0
   -1.9690    2.4415   -1.0463 C   0  0  0  0  0  0  0  0  0  0  0  0
   -1.5635    0.3782    0.2366 C   0  0  0  0  0  0  0  0  0  0  0  0
   -2.5276   -0.3052    0.7498 O   0  0  0  0  0  0  0  0  0  0  0  0
   -0.5204   -0.3655   -0.3366 N   0  0  0  0  0  0  0  0  0  0  0  0
    0.6053    0.2820   -0.8770 C   0  0  0  0  0  0  0  0  0  0  0  0
    1.8006    0.5718   -0.1391 C   0  0  0  0  0  0  0  0  0  0  0  0
    2.8804    1.1200   -0.8631 C   0  0  0  0  0  0  0  0  0  0  0  0
    4.0738    1.4434   -0.3143 C   0  0  0  0  0  0  0  0  0  0  0  0
    5.4016    2.1275   -1.2549 Cl  0  0  0  0  0  0  0  0  0  0  0  0
    4.2992    1.2472    1.0181 C   0  0  0  0  0  0  0  0  0  0  0  0
    3.2778    0.7143    1.7723 C   0  0  0  0  0  0  0  0  0  0  0  0
    3.5170    0.4404    3.5008 Cl  0  0  0  0  0  0  0  0  0  0  0  0
    2.0467    0.3843    1.1891 C   0  0  0  0  0  0  0  0  0  0  0  0
    0.8667   -0.2770    2.2920 Cl  0  0  0  0  0  0  0  0  0  0  0  0
   -0.6395   -1.8038   -0.4596 C   0  0  1  0  0  0  0  0  0  0  0  0
   -1.0274   -2.5695    0.7228 C   0  0  0  0  0  0  0  0  0  0  0  0
   -2.1008   -3.5571    0.2420 C   0  0  0  0  0  0  0  0  0  0  0  0
   -1.8706   -3.5974   -1.2051 N   0  0  0  0  0  0  0  0  0  0  0  0
   -1.7116   -2.1800   -1.4749 C   0  0  0  0  0  0  0  0  0  0  0  0
   -0.5423    2.2572    2.1298 H   0  0  0  0  0  0  0  0  0  0  0  0
   -1.1926    3.6648    1.2824 H   0  0  0  0  0  0  0  0  0  0  0  0
    0.2135    2.7675    0.5949 H   0  0  0  0  0  0  0  0  0  0  0  0
   -2.7430    2.0265    0.8779 H   0  0  0  0  0  0  0  0  0  0  0  0
   -1.1101    3.0961   -1.3394 H   0  0  0  0  0  0  0  0  0  0  0  0
   -2.0112    1.6135   -1.7556 H   0  0  0  0  0  0  0  0  0  0  0  0
   -2.9091    3.0247   -0.9977 H   0  0  0  0  0  0  0  0  0  0  0  0
    0.3155    1.2192   -1.4550 H   0  0  0  0  0  0  0  0  0  0  0  0
    0.9369   -0.3864   -1.7598 H   0  0  0  0  0  0  0  0  0  0  0  0
    2.7425    1.2905   -1.9188 H   0  0  0  0  0  0  0  0  0  0  0  0
    5.2594    1.5062    1.4653 H   0  0  0  0  0  0  0  0  0  0  0  0
    0.3084   -2.2049   -0.9456 H   0  0  0  0  0  0  0  0  0  0  0  0
   -0.1591   -3.2395    1.0390 H   0  0  0  0  0  0  0  0  0  0  0  0
   -1.3877   -1.9899    1.5617 H   0  0  0  0  0  0  0  0  0  0  0  0
   -1.9657   -4.5451    0.6998 H   0  0  0  0  0  0  0  0  0  0  0  0
   -3.1074   -3.1807    0.4610 H   0  0  0  0  0  0  0  0  0  0  0  0
   -0.9623   -4.0863   -1.3705 H   0  0  0  0  0  0  0  0  0  0  0  0
   -2.6707   -1.7018   -1.2707 H   0  0  0  0  0  0  0  0  0  0  0  0
   -1.3514   -2.0673   -2.5025 H   0  0  0  0  0  0  0  0  0  0  0  0
  1  2  1  0
  2  3  1  0
  2  4  1  0
  4  5  2  0
  4  6  1  0
  6  7  1  0
  7  8  1  0
  8  9  2  0
  9 10  1  0
 10 11  1  0
 10 12  2  0
 12 13  1  0
 13 14  1  0
 13 15  2  0
 15 16  1  0
  6 17  1  0
 17 18  1  0
 18 19  1  0
 19 20  1  0
 20 21  1  0
 15  8  1  0
 21 17  1  0
  1 22  1  0
  1 23  1  0
  1 24  1  0
  2 25  1  0
  3 26  1  0
  3 27  1  0
  3 28  1  0
  7 29  1  0
  7 30  1  0
  9 31  1  0
 12 32  1  0
 17 33  1  6
 18 34  1  0
 18 35  1  0
 19 36  1  0
 19 37  1  0
 20 38  1  0
 21 39  1  0
 21 40  1  0
M  END
$$$$
