@<TRIPOS>MOLECULE
*****
 62 66 0 0 0
SMALL
GASTEIGER

@<TRIPOS>ATOM
      1 C          -4.0237    1.5353    3.1834 C.3     1  UNL1       -0.0376
      2 C          -3.4074    0.9833    1.9513 C.ar    1  UNL1       -0.0222
      3 C          -4.2544    0.4471    1.0059 C.ar    1  UNL1       -0.0418
      4 C          -3.7360   -0.0714   -0.1424 C.ar    1  UNL1        0.0673
      5 C          -4.6178   -0.6560   -1.1810 C.2     1  UNL1        0.3136
      6 N          -5.8946   -0.7300   -1.1600 N.2     1  UNL1       -0.0730
      7 C          -6.4389   -1.3605   -2.3334 C.3     1  UNL1        0.1819
      8 C          -7.1072   -0.3980   -3.2791 C.3     1  UNL1       -0.0138
      9 C          -7.4330   -2.4556   -1.9397 C.3     1  UNL1       -0.0138
     10 C          -5.2323   -2.0258   -2.9627 C.3     1  UNL1        0.1248
     11 N          -4.1512   -1.2374   -2.3871 N.pl3   1  UNL1       -0.2290
     12 C          -2.3717   -0.0486   -0.3346 C.ar    1  UNL1       -0.0214
     13 C          -1.5336    0.4913    0.6197 C.ar    1  UNL1        0.0675
     14 N          -0.1716    0.6477    0.7002 N.ar    1  UNL1       -0.3377
     15 C           0.1749    1.2377    1.8378 C.ar    1  UNL1        0.1463
     16 C           1.4441    1.5584    2.4650 C.ar    1  UNL1        0.1022
     17 C           2.6806    1.4350    1.8935 C.ar    1  UNL1        0.0446
     18 N           2.7624    1.3264    0.4678 N.pl3   1  UNL1       -0.3403
     19 C           4.0496    1.1103   -0.1603 C.3     1  UNL1        0.0393
     20 C           4.4914   -0.3113    0.0619 C.3     1  UNL1        0.0956
     21 O           3.4930   -1.1186   -0.5526 O.3     1  UNL1       -0.3856
     22 C           5.7841   -0.6095   -0.5813 C.ar    1  UNL1       -0.0163
     23 C           6.9513   -0.8084    0.1245 C.ar    1  UNL1       -0.0560
     24 C           8.1552   -1.0870   -0.5127 C.ar    1  UNL1       -0.0600
     25 C           8.2227   -1.1746   -1.8850 C.ar    1  UNL1       -0.0434
     26 C           7.0620   -0.9776   -2.6000 C.ar    1  UNL1        0.0413
     27 CL          7.1627   -1.0924   -4.3462 Cl      1  UNL1       -0.0835
     28 C           5.8648   -0.7005   -1.9673 C.ar    1  UNL1       -0.0377
     29 C           3.8713    1.5927    2.6192 C.ar    1  UNL1       -0.0239
     30 C           3.7883    1.8865    3.9497 C.ar    1  UNL1        0.0067
     31 N           2.5850    2.0165    4.5240 N.ar    1  UNL1       -0.3284
     32 C           1.4432    1.8674    3.8471 C.ar    1  UNL1        0.2612
     33 O           0.3144    1.9982    4.4220 O.2     1  UNL1       -0.2671
     34 N          -1.0163    1.4484    2.4791 N.ar    1  UNL1       -0.2272
     35 C          -2.0421    1.0097    1.7662 C.ar    1  UNL1        0.0924
     36 H          -4.5287    0.6970    3.7055 H       1  UNL1        0.0278
     37 H          -4.8475    2.2239    2.8479 H       1  UNL1        0.0278
     38 H          -3.3040    2.0612    3.8329 H       1  UNL1        0.0278
     39 H          -5.3460    0.4309    1.1638 H       1  UNL1        0.0629
     40 H          -6.7139    0.6233   -3.0937 H       1  UNL1        0.0276
     41 H          -8.2104   -0.3430   -3.0460 H       1  UNL1        0.0276
     42 H          -6.9553   -0.6692   -4.3483 H       1  UNL1        0.0276
     43 H          -8.2133   -1.9944   -1.2876 H       1  UNL1        0.0276
     44 H          -6.9319   -3.2733   -1.4001 H       1  UNL1        0.0276
     45 H          -7.8636   -2.8851   -2.8715 H       1  UNL1        0.0276
     46 H          -5.2408   -2.0037   -4.0620 H       1  UNL1        0.0771
     47 H          -5.1521   -3.0838   -2.6091 H       1  UNL1        0.0771
     48 H          -3.1984   -1.1186   -2.7887 H       1  UNL1        0.2915
     49 H          -1.9527   -0.4614   -1.2494 H       1  UNL1        0.0647
     50 H           0.4007    0.2767   -0.0705 H       1  UNL1        0.1674
     51 H           1.9779    1.4405   -0.1780 H       1  UNL1        0.1462
     52 H           3.9965    1.3279   -1.2646 H       1  UNL1        0.0490
     53 H           4.8446    1.7886    0.1968 H       1  UNL1        0.0490
     54 H           4.5549   -0.5242    1.1251 H       1  UNL1        0.0659
     55 H           3.6502   -2.0454   -0.2301 H       1  UNL1        0.2103
     56 H           6.9396   -0.7481    1.1992 H       1  UNL1        0.0621
     57 H           9.0772   -1.2451    0.0352 H       1  UNL1        0.0618
     58 H           9.1671   -1.3935   -2.4026 H       1  UNL1        0.0632
     59 H           4.9634   -0.5473   -2.5319 H       1  UNL1        0.0636
     60 H           4.8039    1.4901    2.1005 H       1  UNL1        0.0651
     61 H           4.7151    2.0064    4.5044 H       1  UNL1        0.0808
     62 H           2.4981    2.2409    5.5326 H       1  UNL1        0.1683
@<TRIPOS>BOND
     1     1     2    1
     2     2     3   ar
     3     3     4   ar
     4     4     5    1
     5     5     6    2
     6     6     7    1
     7     7     8    1
     8     7     9    1
     9     7    10    1
    10    10    11    1
    11     4    12   ar
    12    12    13   ar
    13    13    14   ar
    14    14    15   ar
    15    15    16    1
    16    16    17   ar
    17    17    18    1
    18    18    19    1
    19    19    20    1
    20    20    21    1
    21    20    22    1
    22    22    23   ar
    23    23    24   ar
    24    24    25   ar
    25    25    26   ar
    26    26    27    1
    27    26    28   ar
    28    17    29   ar
    29    29    30   ar
    30    30    31   ar
    31    31    32   ar
    32    32    33    2
    33    15    34   ar
    34    34    35   ar
    35    35     2   ar
    36    11     5    1
    37    35    13   ar
    38    32    16   ar
    39    28    22   ar
    40     1    36    1
    41     1    37    1
    42     1    38    1
    43     3    39    1
    44     8    40    1
    45     8    41    1
    46     8    42    1
    47     9    43    1
    48     9    44    1
    49     9    45    1
    50    10    46    1
    51    10    47    1
    52    11    48    1
    53    12    49    1
    54    14    50    1
    55    18    51    1
    56    19    52    1
    57    19    53    1
    58    20    54    1
    59    21    55    1
    60    23    56    1
    61    24    57    1
    62    25    58    1
    63    28    59    1
    64    29    60    1
    65    30    61    1
    66    31    62    1
