
     RDKit          3D

 64 68  0  0  0  0  0  0  0  0999 V2000
    7.3944   -3.1059   -0.2315 O   0  0  0  0  0  0  0  0  0  0  0  0
    7.2430   -1.6090   -0.1576 S   0  0  0  0  0  6  0  0  0  0  0  0
    8.2080   -1.1278    0.8830 O   0  0  0  0  0  0  0  0  0  0  0  0
    7.6836   -0.9099   -1.6528 N   0  0  0  0  0  0  0  0  0  0  0  0
    7.7082    0.5160   -1.7621 C   0  0  0  0  0  0  0  0  0  0  0  0
    7.5029    1.4773   -1.0904 N   0  0  0  0  0  0  0  0  0  0  0  0
    7.5757    2.7199   -1.3576 C   0  0  0  0  0  0  0  0  0  0  0  0
    7.9773    2.9981   -2.7110 N   0  0  0  0  0  0  0  0  0  0  0  0
    8.1863    1.2821   -3.3813 S   0  0  0  0  0  0  0  0  0  0  0  0
    5.6042   -1.1788    0.3175 C   0  0  0  0  0  0  0  0  0  0  0  0
    5.3991   -0.5061    1.4907 C   0  0  0  0  0  0  0  0  0  0  0  0
    4.1110   -0.1528    1.8906 C   0  0  0  0  0  0  0  0  0  0  0  0
    4.0145    0.5109    3.0670 F   0  0  0  0  0  0  0  0  0  0  0  0
    3.0126   -0.4685    1.1213 C   0  0  0  0  0  0  0  0  0  0  0  0
    1.7498   -0.1148    1.5265 O   0  0  0  0  0  0  0  0  0  0  0  0
    0.5732   -0.3982    0.8005 C   0  0  0  0  0  0  0  0  0  0  0  0
   -0.6282    0.1169    1.5042 C   0  0  0  0  0  0  0  0  0  0  0  0
   -1.9140   -0.1862    0.7576 C   0  0  2  0  0  0  0  0  0  0  0  0
   -2.0630   -1.6838    0.6327 C   0  0  0  0  0  0  0  0  0  0  0  0
   -1.3737   -2.5254    1.4872 C   0  0  0  0  0  0  0  0  0  0  0  0
   -1.4669   -3.8942    1.3879 C   0  0  0  0  0  0  0  0  0  0  0  0
   -2.2775   -4.4091    0.4004 C   0  0  0  0  0  0  0  0  0  0  0  0
   -2.9774   -3.5987   -0.4664 C   0  0  0  0  0  0  0  0  0  0  0  0
   -2.8596   -2.2387   -0.3377 C   0  0  0  0  0  0  0  0  0  0  0  0
   -1.9749    0.4781   -0.5596 C   0  0  0  0  0  0  0  0  0  0  0  0
   -3.1639    1.3520   -0.7997 C   0  0  0  0  0  0  0  0  0  0  0  0
   -4.4341    0.9214   -0.1848 C   0  0  2  0  0  0  0  0  0  0  0  0
   -5.3765    1.9804    0.0609 N   0  0  0  0  0  0  0  0  0  0  0  0
   -5.8655    2.5896   -1.1425 C   0  0  0  0  0  0  0  0  0  0  0  0
   -5.0715    3.3877   -2.0732 C   0  0  0  0  0  0  0  0  0  0  0  0
   -6.0837    4.0774   -1.1857 C   0  0  0  0  0  0  0  0  0  0  0  0
   -4.3099    0.0945    1.0538 C   0  0  0  0  0  0  0  0  0  0  0  0
   -3.0048    0.3610    1.6960 C   0  0  0  0  0  0  0  0  0  0  0  0
    3.2395   -1.1468   -0.0579 C   0  0  0  0  0  0  0  0  0  0  0  0
    4.5206   -1.5026   -0.4635 C   0  0  0  0  0  0  0  0  0  0  0  0
    4.7560   -2.1706   -1.6221 F   0  0  0  0  0  0  0  0  0  0  0  0
    7.9307   -1.5222   -2.4727 H   0  0  0  0  0  0  0  0  0  0  0  0
    7.3947    3.6233   -0.7661 H   0  0  0  0  0  0  0  0  0  0  0  0
    6.2728   -0.2522    2.1075 H   0  0  0  0  0  0  0  0  0  0  0  0
    0.6786    0.2334   -0.1391 H   0  0  0  0  0  0  0  0  0  0  0  0
    0.5290   -1.4250    0.4189 H   0  0  0  0  0  0  0  0  0  0  0  0
   -0.6939   -0.1325    2.5783 H   0  0  0  0  0  0  0  0  0  0  0  0
   -0.5518    1.2457    1.4893 H   0  0  0  0  0  0  0  0  0  0  0  0
   -0.7412   -2.1415    2.2706 H   0  0  0  0  0  0  0  0  0  0  0  0
   -0.9150   -4.5588    2.0717 H   0  0  0  0  0  0  0  0  0  0  0  0
   -2.3744   -5.4938    0.2940 H   0  0  0  0  0  0  0  0  0  0  0  0
   -3.6227   -4.0441   -1.2521 H   0  0  0  0  0  0  0  0  0  0  0  0
   -3.4165   -1.6316   -1.0404 H   0  0  0  0  0  0  0  0  0  0  0  0
   -1.0522    1.1012   -0.6900 H   0  0  0  0  0  0  0  0  0  0  0  0
   -1.9123   -0.2965   -1.3518 H   0  0  0  0  0  0  0  0  0  0  0  0
   -3.2990    1.4701   -1.8912 H   0  0  0  0  0  0  0  0  0  0  0  0
   -2.9082    2.3600   -0.4104 H   0  0  0  0  0  0  0  0  0  0  0  0
   -4.9932    0.2369   -0.9156 H   0  0  0  0  0  0  0  0  0  0  0  0
   -6.1881    1.6044    0.5988 H   0  0  0  0  0  0  0  0  0  0  0  0
   -6.7222    2.0023   -1.6203 H   0  0  0  0  0  0  0  0  0  0  0  0
   -5.3869    3.3786   -3.1617 H   0  0  0  0  0  0  0  0  0  0  0  0
   -4.0373    3.7090   -1.9504 H   0  0  0  0  0  0  0  0  0  0  0  0
   -7.0027    4.4825   -1.6281 H   0  0  0  0  0  0  0  0  0  0  0  0
   -5.6727    4.7098   -0.3755 H   0  0  0  0  0  0  0  0  0  0  0  0
   -4.5506   -0.9810    0.9276 H   0  0  0  0  0  0  0  0  0  0  0  0
   -5.1033    0.4516    1.7813 H   0  0  0  0  0  0  0  0  0  0  0  0
   -2.8395    1.4535    1.7236 H   0  0  0  0  0  0  0  0  0  0  0  0
   -2.8707   -0.0863    2.6953 H   0  0  0  0  0  0  0  0  0  0  0  0
    2.4332   -1.4322   -0.7194 H   0  0  0  0  0  0  0  0  0  0  0  0
  1  2  2  0
  2  3  2  0
  2  4  1  0
  4  5  1  0
  5  6  2  0
  6  7  1  0
  7  8  2  0
  8  9  1  0
  2 10  1  0
 10 11  2  0
 11 12  1  0
 12 13  1  0
 12 14  2  0
 14 15  1  0
 15 16  1  0
 16 17  1  0
 18 17  1  1
 18 19  1  0
 19 20  2  0
 20 21  1  0
 21 22  2  0
 22 23  1  0
 23 24  2  0
 18 25  1  0
 25 26  1  0
 26 27  1  0
 27 28  1  0
 28 29  1  0
 29 30  1  0
 30 31  1  0
 27 32  1  0
 32 33  1  0
 14 34  1  0
 34 35  2  0
 35 36  1  0
  9  5  1  0
 35 10  1  0
 33 18  1  0
 24 19  1  0
 31 29  1  0
  4 37  1  0
  7 38  1  0
 11 39  1  0
 16 40  1  0
 16 41  1  0
 17 42  1  0
 17 43  1  0
 20 44  1  0
 21 45  1  0
 22 46  1  0
 23 47  1  0
 24 48  1  0
 25 49  1  0
 25 50  1  0
 26 51  1  0
 26 52  1  0
 27 53  1  6
 28 54  1  0
 29 55  1  0
 30 56  1  0
 30 57  1  0
 31 58  1  0
 31 59  1  0
 32 60  1  0
 32 61  1  0
 33 62  1  0
 33 63  1  0
 34 64  1  0
M  END
$$$$
