@<TRIPOS>MOLECULE
*****
 64 68 0 0 0
SMALL
GASTEIGER

@<TRIPOS>ATOM
      1 O           7.3944   -3.1059   -0.2315 O.2     1  UNL1       -0.1498
      2 S           7.2430   -1.6090   -0.1576 S.O2    1  UNL1        0.0767
      3 O           8.2080   -1.1278    0.8830 O.2     1  UNL1       -0.1498
      4 N           7.6836   -0.9099   -1.6528 N.pl3   1  UNL1       -0.1925
      5 C           7.7082    0.5160   -1.7621 C.ar    1  UNL1        0.1970
      6 N           7.5029    1.4773   -1.0904 N.ar    1  UNL1       -0.2109
      7 C           7.5757    2.7199   -1.3576 C.ar    1  UNL1        0.1273
      8 N           7.9773    2.9981   -2.7110 N.ar    1  UNL1       -0.1958
      9 S           8.1863    1.2821   -3.3813 S.2     1  UNL1        0.0500
     10 C           5.6042   -1.1788    0.3175 C.ar    1  UNL1        0.1465
     11 C           5.3991   -0.5061    1.4907 C.ar    1  UNL1        0.0067
     12 C           4.1110   -0.1528    1.8906 C.ar    1  UNL1        0.1668
     13 F           4.0145    0.5109    3.0670 F       1  UNL1       -0.2016
     14 C           3.0126   -0.4685    1.1213 C.ar    1  UNL1        0.1584
     15 O           1.7498   -0.1148    1.5265 O.3     1  UNL1       -0.4890
     16 C           0.5732   -0.3982    0.8005 C.3     1  UNL1        0.0905
     17 C          -0.6282    0.1169    1.5042 C.3     1  UNL1       -0.0090
     18 C          -1.9140   -0.1862    0.7576 C.3     1  UNL1       -0.0011
     19 C          -2.0630   -1.6838    0.6327 C.ar    1  UNL1       -0.0411
     20 C          -1.3737   -2.5254    1.4872 C.ar    1  UNL1       -0.0580
     21 C          -1.4669   -3.8942    1.3879 C.ar    1  UNL1       -0.0615
     22 C          -2.2775   -4.4091    0.4004 C.ar    1  UNL1       -0.0617
     23 C          -2.9774   -3.5987   -0.4664 C.ar    1  UNL1       -0.0615
     24 C          -2.8596   -2.2387   -0.3377 C.ar    1  UNL1       -0.0580
     25 C          -1.9749    0.4781   -0.5596 C.3     1  UNL1       -0.0418
     26 C          -3.1639    1.3520   -0.7997 C.3     1  UNL1       -0.0367
     27 C          -4.4341    0.9214   -0.1848 C.3     1  UNL1        0.0079
     28 N          -5.3765    1.9804    0.0609 N.3     1  UNL1       -0.3105
     29 C          -5.8655    2.5896   -1.1425 C.3     1  UNL1        0.0080
     30 C          -5.0715    3.3877   -2.0732 C.3     1  UNL1       -0.0361
     31 C          -6.0837    4.0774   -1.1857 C.3     1  UNL1       -0.0361
     32 C          -4.3099    0.0945    1.0538 C.3     1  UNL1       -0.0367
     33 C          -3.0048    0.3610    1.6960 C.3     1  UNL1       -0.0418
     34 C           3.2395   -1.1468   -0.0579 C.ar    1  UNL1        0.0201
     35 C           4.5206   -1.5026   -0.4635 C.ar    1  UNL1        0.1535
     36 F           4.7560   -2.1706   -1.6221 F       1  UNL1       -0.2033
     37 H           7.9307   -1.5222   -2.4727 H       1  UNL1        0.1758
     38 H           7.3947    3.6233   -0.7661 H       1  UNL1        0.1054
     39 H           6.2728   -0.2522    2.1075 H       1  UNL1        0.0668
     40 H           0.6786    0.2334   -0.1391 H       1  UNL1        0.0697
     41 H           0.5290   -1.4250    0.4189 H       1  UNL1        0.0697
     42 H          -0.6939   -0.1325    2.5783 H       1  UNL1        0.0306
     43 H          -0.5518    1.2457    1.4893 H       1  UNL1        0.0306
     44 H          -0.7412   -2.1415    2.2706 H       1  UNL1        0.0620
     45 H          -0.9150   -4.5588    2.0717 H       1  UNL1        0.0618
     46 H          -2.3744   -5.4938    0.2940 H       1  UNL1        0.0618
     47 H          -3.6227   -4.0441   -1.2521 H       1  UNL1        0.0618
     48 H          -3.4165   -1.6316   -1.0404 H       1  UNL1        0.0620
     49 H          -1.0522    1.1012   -0.6900 H       1  UNL1        0.0274
     50 H          -1.9123   -0.2965   -1.3518 H       1  UNL1        0.0274
     51 H          -3.2990    1.4701   -1.8912 H       1  UNL1        0.0280
     52 H          -2.9082    2.3600   -0.4104 H       1  UNL1        0.0280
     53 H          -4.9932    0.2369   -0.9156 H       1  UNL1        0.0460
     54 H          -6.1881    1.6044    0.5988 H       1  UNL1        0.1225
     55 H          -6.7222    2.0023   -1.6203 H       1  UNL1        0.0460
     56 H          -5.3869    3.3786   -3.1617 H       1  UNL1        0.0281
     57 H          -4.0373    3.7090   -1.9504 H       1  UNL1        0.0281
     58 H          -7.0027    4.4825   -1.6281 H       1  UNL1        0.0281
     59 H          -5.6727    4.7098   -0.3755 H       1  UNL1        0.0281
     60 H          -4.5506   -0.9810    0.9276 H       1  UNL1        0.0280
     61 H          -5.1033    0.4516    1.7813 H       1  UNL1        0.0280
     62 H          -2.8395    1.4535    1.7236 H       1  UNL1        0.0274
     63 H          -2.8707   -0.0863    2.6953 H       1  UNL1        0.0274
     64 H           2.4332   -1.4322   -0.7194 H       1  UNL1        0.0684
@<TRIPOS>BOND
     1     1     2    2
     2     2     3    2
     3     2     4    1
     4     4     5    1
     5     5     6   ar
     6     6     7   ar
     7     7     8   ar
     8     8     9   ar
     9     2    10    1
    10    10    11   ar
    11    11    12   ar
    12    12    13    1
    13    12    14   ar
    14    14    15    1
    15    15    16    1
    16    16    17    1
    17    18    17    1
    18    18    19    1
    19    19    20   ar
    20    20    21   ar
    21    21    22   ar
    22    22    23   ar
    23    23    24   ar
    24    18    25    1
    25    25    26    1
    26    26    27    1
    27    27    28    1
    28    28    29    1
    29    29    30    1
    30    30    31    1
    31    27    32    1
    32    32    33    1
    33    14    34   ar
    34    34    35   ar
    35    35    36    1
    36     9     5   ar
    37    35    10   ar
    38    33    18    1
    39    24    19   ar
    40    31    29    1
    41     4    37    1
    42     7    38    1
    43    11    39    1
    44    16    40    1
    45    16    41    1
    46    17    42    1
    47    17    43    1
    48    20    44    1
    49    21    45    1
    50    22    46    1
    51    23    47    1
    52    24    48    1
    53    25    49    1
    54    25    50    1
    55    26    51    1
    56    26    52    1
    57    27    53    1
    58    28    54    1
    59    29    55    1
    60    30    56    1
    61    30    57    1
    62    31    58    1
    63    31    59    1
    64    32    60    1
    65    32    61    1
    66    33    62    1
    67    33    63    1
    68    34    64    1
