@<TRIPOS>MOLECULE
*****
 51 54 0 0 0
SMALL
GASTEIGER

@<TRIPOS>ATOM
      1 O           1.9835   -0.3931   -2.7446 O.2     1  UNL1       -0.2449
      2 C           1.7664   -0.3119   -1.5045 C.2     1  UNL1        0.3398
      3 O           0.5803    0.2495   -1.1057 O.3     1  UNL1       -0.4534
      4 C          -0.4091    0.7407   -2.0249 C.3     1  UNL1        0.1483
      5 C          -0.4974    2.2083   -1.8229 C.3     1  UNL1        0.0204
      6 C          -1.6845    2.6654   -1.0961 C.ar    1  UNL1        0.0395
      7 C          -1.6218    3.8688   -0.4277 C.ar    1  UNL1        0.1271
      8 O          -0.4465    4.6449   -0.4379 O.3     1  UNL1       -0.5063
      9 C          -2.6876    4.3723    0.2766 C.ar    1  UNL1        0.0218
     10 C          -3.8431    3.6247    0.2956 C.ar    1  UNL1        0.1238
     11 O          -4.9311    4.0920    0.9876 O.3     1  UNL1       -0.5065
     12 C          -3.9263    2.4194   -0.3659 C.ar    1  UNL1        0.0221
     13 C          -2.8539    1.9318   -1.0636 C.ar    1  UNL1        0.1318
     14 O          -2.8443    0.7349   -1.7565 O.3     1  UNL1       -0.4800
     15 C          -1.6709   -0.0340   -1.8074 C.3     1  UNL1        0.1624
     16 C          -1.5863   -0.9643   -0.6621 C.ar    1  UNL1        0.0034
     17 C          -1.2195   -2.2697   -0.8548 C.ar    1  UNL1       -0.0095
     18 C          -1.1395   -3.1338    0.2103 C.ar    1  UNL1        0.1623
     19 O          -0.7659   -4.4613    0.0092 O.3     1  UNL1       -0.5032
     20 C          -1.4221   -2.7193    1.4873 C.ar    1  UNL1        0.2006
     21 O          -1.3356   -3.6203    2.5755 O.3     1  UNL1       -0.5009
     22 C          -1.7928   -1.4096    1.7005 C.ar    1  UNL1        0.1623
     23 O          -2.0719   -1.0195    3.0004 O.3     1  UNL1       -0.5032
     24 C          -1.8713   -0.5376    0.6096 C.ar    1  UNL1       -0.0095
     25 C           2.7763   -0.8130   -0.5783 C.ar    1  UNL1        0.0661
     26 C           2.5881   -0.7477    0.7855 C.ar    1  UNL1       -0.0023
     27 C           3.5440   -1.2226    1.6837 C.ar    1  UNL1        0.1628
     28 O           3.3656   -1.1621    3.0539 O.3     1  UNL1       -0.5032
     29 C           4.7183   -1.7770    1.1989 C.ar    1  UNL1        0.2006
     30 O           5.6694   -2.2498    2.1093 O.3     1  UNL1       -0.5009
     31 C           4.9189   -1.8483   -0.1625 C.ar    1  UNL1        0.1628
     32 O           6.0971   -2.4047   -0.6338 O.3     1  UNL1       -0.5032
     33 C           3.9504   -1.3678   -1.0357 C.ar    1  UNL1       -0.0023
     34 H           0.0129    0.5569   -3.0336 H       1  UNL1        0.0778
     35 H           0.3994    2.6079   -1.3040 H       1  UNL1        0.0353
     36 H          -0.5081    2.7435   -2.8191 H       1  UNL1        0.0353
     37 H          -0.1195    4.9354   -1.3652 H       1  UNL1        0.2921
     38 H          -2.6093    5.3103    0.7863 H       1  UNL1        0.0691
     39 H          -4.8143    4.2189    2.0035 H       1  UNL1        0.2921
     40 H          -4.8383    1.8455   -0.3415 H       1  UNL1        0.0691
     41 H          -1.8138   -0.6868   -2.7241 H       1  UNL1        0.0822
     42 H          -0.9846   -2.6367   -1.8737 H       1  UNL1        0.0659
     43 H          -1.1658   -5.1845    0.5622 H       1  UNL1        0.2923
     44 H          -1.9221   -4.4371    2.4924 H       1  UNL1        0.2924
     45 H          -3.0307   -1.2113    3.3188 H       1  UNL1        0.2923
     46 H          -2.1665    0.4721    0.8497 H       1  UNL1        0.0659
     47 H           1.6805   -0.3202    1.2125 H       1  UNL1        0.0663
     48 H           3.3520   -0.2402    3.4903 H       1  UNL1        0.2923
     49 H           6.4940   -1.7119    2.2942 H       1  UNL1        0.2924
     50 H           6.5999   -1.9283   -1.3447 H       1  UNL1        0.2923
     51 H           4.0974   -1.4188   -2.1027 H       1  UNL1        0.0663
@<TRIPOS>BOND
     1     1     2    2
     2     2     3    1
     3     3     4    1
     4     4     5    1
     5     5     6    1
     6     6     7   ar
     7     7     8    1
     8     7     9   ar
     9     9    10   ar
    10    10    11    1
    11    10    12   ar
    12    12    13   ar
    13    13    14    1
    14    14    15    1
    15    15    16    1
    16    16    17   ar
    17    17    18   ar
    18    18    19    1
    19    18    20   ar
    20    20    21    1
    21    20    22   ar
    22    22    23    1
    23    22    24   ar
    24     2    25    1
    25    25    26   ar
    26    26    27   ar
    27    27    28    1
    28    27    29   ar
    29    29    30    1
    30    29    31   ar
    31    31    32    1
    32    31    33   ar
    33    15     4    1
    34    24    16   ar
    35    33    25   ar
    36    13     6   ar
    37     4    34    1
    38     5    35    1
    39     5    36    1
    40     8    37    1
    41     9    38    1
    42    11    39    1
    43    12    40    1
    44    15    41    1
    45    17    42    1
    46    19    43    1
    47    21    44    1
    48    23    45    1
    49    24    46    1
    50    26    47    1
    51    28    48    1
    52    30    49    1
    53    32    50    1
    54    33    51    1
