@<TRIPOS>MOLECULE
*****
 66 67 0 0 0
SMALL
GASTEIGER

@<TRIPOS>ATOM
      1 C          -2.6324   -1.0140    1.2401 C.3     1  UNL1        0.0899
      2 C          -1.6811   -0.2214    0.3733 C.3     1  UNL1        0.0427
      3 P          -0.0099   -0.8534    0.4722 P.3     1  UNL1        0.2215
      4 O           0.4072   -1.4708   -1.0695 O.3     1  UNL1       -0.3425
      5 O          -0.0206   -2.0764    1.3770 O.2     1  UNL1       -0.2893
      6 C           1.1981    0.3692    1.0360 C.3     1  UNL1        0.1067
      7 N           0.9081    1.6680    0.5182 N.3     1  UNL1       -0.1819
      8 S           2.0854    2.3005   -0.5639 S.O2    1  UNL1        0.0301
      9 O           1.4802    3.6283   -1.0371 O.2     1  UNL1       -0.1582
     10 O           3.3404    2.7064    0.1294 O.2     1  UNL1       -0.1582
     11 C           2.2933    1.3352   -2.0042 C.3     1  UNL1        0.0820
     12 C           3.3150    1.8326   -2.9849 C.3     1  UNL1       -0.0281
     13 C           4.7135    1.8466   -2.4213 C.3     1  UNL1       -0.0262
     14 C           5.1746    0.4880   -2.0429 C.ar    1  UNL1       -0.0473
     15 C           5.0791   -0.1964   -0.8534 C.ar    1  UNL1       -0.0586
     16 C           5.5645   -1.4677   -0.6767 C.ar    1  UNL1       -0.0615
     17 C           6.1866   -2.1466   -1.6950 C.ar    1  UNL1       -0.0617
     18 C           6.3207   -1.5296   -2.9142 C.ar    1  UNL1       -0.0615
     19 C           5.8176   -0.2575   -3.0379 C.ar    1  UNL1       -0.0586
     20 C           1.3991    0.3251    2.5138 C.3     1  UNL1       -0.0208
     21 C           0.1331    0.5973    3.2925 C.3     1  UNL1       -0.0607
     22 C           2.0270   -0.9961    2.8989 C.3     1  UNL1       -0.0607
     23 C          -2.6838   -2.4577    0.8364 C.2     1  UNL1        0.3127
     24 O          -3.1390   -2.7940   -0.4316 O.3     1  UNL1       -0.4802
     25 O          -2.3483   -3.4714    1.5372 O.2     1  UNL1       -0.2503
     26 C          -4.0196   -0.4963    1.1522 C.ar    1  UNL1       -0.0329
     27 C          -4.7410   -0.4656   -0.0349 C.ar    1  UNL1       -0.0534
     28 C          -6.0478    0.0282   -0.0889 C.ar    1  UNL1       -0.0335
     29 C          -6.7702    0.0368   -1.3835 C.3     1  UNL1        0.0186
     30 N          -6.5009    1.3073   -2.0440 N.3     1  UNL1       -0.3261
     31 C          -6.6053    0.4905    1.0914 C.ar    1  UNL1       -0.0573
     32 C          -5.9477    0.4896    2.3029 C.ar    1  UNL1       -0.0612
     33 C          -4.6787   -0.0092    2.2634 C.ar    1  UNL1       -0.0578
     34 H          -2.2881   -0.9294    2.2807 H       1  UNL1        0.0467
     35 H          -1.8049    0.8354    0.6523 H       1  UNL1        0.0376
     36 H          -2.1084   -0.2944   -0.6693 H       1  UNL1        0.0376
     37 H          -0.4277   -1.8932   -1.4101 H       1  UNL1        0.2177
     38 H           2.1792    0.0593    0.5855 H       1  UNL1        0.0581
     39 H          -0.0158    1.7874    0.0903 H       1  UNL1        0.1485
     40 H           2.6338    0.2789   -1.7722 H       1  UNL1        0.0515
     41 H           1.3371    1.2262   -2.5726 H       1  UNL1        0.0515
     42 H           3.0512    2.8471   -3.3602 H       1  UNL1        0.0284
     43 H           3.3461    1.0987   -3.8322 H       1  UNL1        0.0284
     44 H           5.4198    2.2180   -3.2210 H       1  UNL1        0.0314
     45 H           4.7975    2.5721   -1.6161 H       1  UNL1        0.0314
     46 H           4.5940    0.3352   -0.0596 H       1  UNL1        0.0620
     47 H           5.4164   -1.8872    0.3272 H       1  UNL1        0.0618
     48 H           6.5441   -3.1407   -1.4891 H       1  UNL1        0.0618
     49 H           6.8032   -2.0305   -3.7378 H       1  UNL1        0.0618
     50 H           5.9502    0.1879   -4.0282 H       1  UNL1        0.0620
     51 H           2.1125    1.1170    2.7940 H       1  UNL1        0.0316
     52 H          -0.5890    1.2055    2.7140 H       1  UNL1        0.0233
     53 H          -0.2908   -0.3590    3.6496 H       1  UNL1        0.0233
     54 H           0.3409    1.1939    4.2082 H       1  UNL1        0.0233
     55 H           2.8672   -0.8443    3.6107 H       1  UNL1        0.0233
     56 H           2.4865   -1.4418    1.9926 H       1  UNL1        0.0233
     57 H           1.2842   -1.7224    3.2848 H       1  UNL1        0.0233
     58 H          -3.6879   -3.6511   -0.5933 H       1  UNL1        0.2951
     59 H          -4.2955   -0.8264   -0.9369 H       1  UNL1        0.0624
     60 H          -6.4890   -0.7948   -2.0372 H       1  UNL1        0.0471
     61 H          -7.8751   -0.0061   -1.2393 H       1  UNL1        0.0471
     62 H          -5.5677    1.6231   -1.7237 H       1  UNL1        0.1185
     63 H          -7.2130    2.0194   -1.7063 H       1  UNL1        0.1185
     64 H          -7.6339    0.8763    1.0352 H       1  UNL1        0.0621
     65 H          -6.3941    0.8540    3.2204 H       1  UNL1        0.0618
     66 H          -4.1003   -0.0395    3.1878 H       1  UNL1        0.0621
@<TRIPOS>BOND
     1     1     2    1
     2     2     3    1
     3     3     4    1
     4     3     5    2
     5     3     6    1
     6     6     7    1
     7     7     8    1
     8     8     9    2
     9     8    10    2
    10     8    11    1
    11    11    12    1
    12    12    13    1
    13    13    14    1
    14    14    15   ar
    15    15    16   ar
    16    16    17   ar
    17    17    18   ar
    18    18    19   ar
    19     6    20    1
    20    20    21    1
    21    20    22    1
    22     1    23    1
    23    23    24    1
    24    23    25    2
    25     1    26    1
    26    26    27   ar
    27    27    28   ar
    28    28    29    1
    29    29    30    1
    30    28    31   ar
    31    31    32   ar
    32    32    33   ar
    33    19    14   ar
    34    33    26   ar
    35     1    34    1
    36     2    35    1
    37     2    36    1
    38     4    37    1
    39     6    38    1
    40     7    39    1
    41    11    40    1
    42    11    41    1
    43    12    42    1
    44    12    43    1
    45    13    44    1
    46    13    45    1
    47    15    46    1
    48    16    47    1
    49    17    48    1
    50    18    49    1
    51    19    50    1
    52    20    51    1
    53    21    52    1
    54    21    53    1
    55    21    54    1
    56    22    55    1
    57    22    56    1
    58    22    57    1
    59    24    58    1
    60    27    59    1
    61    29    60    1
    62    29    61    1
    63    30    62    1
    64    30    63    1
    65    31    64    1
    66    32    65    1
    67    33    66    1
