@<TRIPOS>MOLECULE
*****
 180 185 0 0 0
SMALL
GASTEIGER

@<TRIPOS>ATOM
      1 C           2.2208    2.6267   -2.4806 C.3     1  UNL1       -0.0367
      2 C           3.5747    3.2607   -2.4803 C.3     1  UNL1        0.0792
      3 O           3.8668    4.0745   -3.5389 O.3     1  UNL1       -0.3897
      4 C           3.9361    3.9090   -1.1623 C.3     1  UNL1        0.1251
      5 N           3.5427    2.9827   -0.0856 N.am    1  UNL1       -0.3016
      6 C           4.6210    2.3725    0.6569 C.2     1  UNL1        0.2190
      7 O           5.8430    2.5995    0.3833 O.2     1  UNL1       -0.2754
      8 C           4.2895    1.4670    1.7669 C.3     1  UNL1        0.0603
      9 C           3.5022    2.3137    2.7840 C.3     1  UNL1       -0.0516
     10 C           3.4652    0.2896    1.4654 C.3     1  UNL1        0.0840
     11 O           3.2515   -0.4116    2.6859 O.3     1  UNL1       -0.3892
     12 C           3.9811   -0.7224    0.5100 C.3     1  UNL1        0.0470
     13 C           5.2328   -1.4224    1.0625 C.3     1  UNL1       -0.0442
     14 N           2.9324   -1.7208    0.3455 N.am    1  UNL1       -0.3086
     15 C           2.5720   -2.5001   -0.7836 C.2     1  UNL1        0.2366
     16 O           3.3371   -2.2574   -1.7309 O.2     1  UNL1       -0.2737
     17 C           1.3855   -3.4131   -0.5990 C.3     1  UNL1        0.1317
     18 N           0.7088   -3.1433    0.6181 N.am    1  UNL1       -0.2963
     19 C           0.2110   -3.9400    1.6673 C.2     1  UNL1        0.2635
     20 O           0.3467   -5.2015    1.4874 O.2     1  UNL1       -0.2685
     21 C          -0.4163   -3.4696    2.8927 C.ar    1  UNL1        0.1336
     22 C          -1.2200   -4.2685    3.6618 C.ar    1  UNL1        0.0195
     23 C          -1.6111   -5.6266    3.2420 C.3     1  UNL1       -0.0343
     24 C          -1.6159   -3.6727    4.8382 C.ar    1  UNL1        0.1234
     25 N          -2.4590   -4.4164    5.7106 N.pl3   1  UNL1       -0.3428
     26 N          -1.2819   -2.4269    5.2553 N.ar    1  UNL1       -0.2158
     27 C          -0.4998   -1.6876    4.4769 C.ar    1  UNL1        0.1492
     28 N          -0.0924   -2.2284    3.3204 N.ar    1  UNL1       -0.2254
     29 C          -0.0956   -0.3649    4.9845 C.3     1  UNL1        0.0764
     30 C          -0.5634   -0.0933    6.4069 C.3     1  UNL1        0.0462
     31 C          -0.0508    1.2698    6.7240 C.2     1  UNL1        0.2124
     32 N          -0.3786    1.7511    8.0109 N.am    1  UNL1       -0.3293
     33 O           0.5338    2.3652    6.5814 O.2     1  UNL1       -0.2760
     34 N          -0.1800    0.7478    4.1416 N.3     1  UNL1       -0.3045
     35 C          -1.3814    1.4208    3.8890 C.3     1  UNL1        0.0203
     36 C          -2.4228    0.7655    3.0549 C.3     1  UNL1        0.0947
     37 N          -2.9564   -0.4630    3.5054 N.3     1  UNL1       -0.3189
     38 C          -1.9734    0.6272    1.6341 C.2     1  UNL1        0.2286
     39 N          -2.0708   -0.5927    0.9163 N.am    1  UNL1       -0.3280
     40 O          -1.4946    1.6362    1.0719 O.2     1  UNL1       -0.2743
     41 C           0.6235   -3.6870   -1.8309 C.3     1  UNL1        0.1296
     42 O          -0.2274   -2.7842   -2.3594 O.3     1  UNL1       -0.3369
     43 C          -1.4927   -3.3042   -2.4847 C.3     1  UNL1        0.1891
     44 O          -2.4124   -2.6497   -1.6819 O.3     1  UNL1       -0.3405
     45 C          -3.6833   -3.1472   -1.7566 C.3     1  UNL1        0.1130
     46 C          -4.6491   -1.9938   -2.0328 C.3     1  UNL1        0.0730
     47 O          -4.6175   -1.0343   -1.0408 O.3     1  UNL1       -0.3924
     48 C          -3.9258   -4.3463   -2.5838 C.3     1  UNL1        0.1119
     49 O          -3.9874   -5.4900   -1.7587 O.3     1  UNL1       -0.3865
     50 C          -3.0606   -4.5629   -3.7742 C.3     1  UNL1        0.1144
     51 O          -2.2743   -5.7127   -3.5841 O.3     1  UNL1       -0.3864
     52 C          -2.0304   -3.4062   -3.8706 C.3     1  UNL1        0.1406
     53 O          -1.1302   -3.6054   -4.8805 O.3     1  UNL1       -0.3377
     54 C          -1.3496   -2.7653   -5.9992 C.3     1  UNL1        0.1896
     55 O          -1.7171   -3.4786   -7.1150 O.3     1  UNL1       -0.3404
     56 C          -0.7203   -4.0754   -7.8248 C.3     1  UNL1        0.1141
     57 C          -0.6507   -5.5706   -7.7269 C.3     1  UNL1        0.0731
     58 O          -1.8098   -6.1834   -8.1858 O.3     1  UNL1       -0.3924
     59 C           0.6725   -3.5486   -7.5478 C.3     1  UNL1        0.1230
     60 O           1.4508   -3.8177   -8.6710 O.3     1  UNL1       -0.3854
     61 C           0.6958   -2.0776   -7.3110 C.3     1  UNL1        0.1632
     62 O           2.0182   -1.6879   -6.9705 O.3     1  UNL1       -0.4417
     63 C           2.7165   -0.7453   -7.7369 C.2     1  UNL1        0.3981
     64 N           4.0274   -0.4776   -7.2380 N.am    1  UNL1       -0.2950
     65 O           2.2929   -0.1682   -8.7508 O.2     1  UNL1       -0.2267
     66 C          -0.2707   -1.7583   -6.2051 C.3     1  UNL1        0.1452
     67 O          -0.8512   -0.4903   -6.4745 O.3     1  UNL1       -0.3830
     68 C           1.6096   -4.1566   -2.8991 C.ar    1  UNL1        0.0669
     69 C           2.0393   -5.4917   -2.9885 C.ar    1  UNL1        0.0510
     70 N           2.9079   -5.5917   -4.0216 N.ar    1  UNL1       -0.2439
     71 C           3.0257   -4.3831   -4.5650 C.ar    1  UNL1        0.0936
     72 N           2.2490   -3.5145   -3.8961 N.ar    1  UNL1       -0.3461
     73 C           3.3305    5.2267   -0.9465 C.2     1  UNL1        0.2359
     74 O           2.3318    5.0286   -0.1724 O.2     1  UNL1       -0.2737
     75 N           3.6067    6.5423   -1.3693 N.am    1  UNL1       -0.3133
     76 C           2.9051    7.7392   -1.0540 C.3     1  UNL1        0.0175
     77 C           1.5570    7.9802   -1.5717 C.3     1  UNL1        0.0116
     78 C           0.5366    6.9640   -1.2942 C.ar    1  UNL1        0.0805
     79 N          -0.3804    6.5592   -0.4428 N.ar    1  UNL1       -0.2419
     80 C          -1.1445    5.5587   -0.7700 C.ar    1  UNL1        0.1033
     81 C          -1.0409    4.8460   -2.0484 C.ar    1  UNL1        0.0054
     82 S           0.3797    5.8341   -2.7974 S.2     1  UNL1       -0.0798
     83 C          -2.2503    5.1240    0.1155 C.ar    1  UNL1        0.1278
     84 N          -2.5091    5.3461    1.3104 N.ar    1  UNL1       -0.2329
     85 C          -3.5812    4.8288    1.8840 C.ar    1  UNL1        0.1332
     86 C          -4.4421    4.0176    1.1403 C.ar    1  UNL1        0.0082
     87 S          -3.5427    4.0569   -0.5277 S.2     1  UNL1       -0.0734
     88 C          -3.8093    5.0581    3.3024 C.2     1  UNL1        0.2629
     89 O          -2.9096    5.3374    4.1166 O.2     1  UNL1       -0.2685
     90 N          -5.0663    4.9966    3.9331 N.am    1  UNL1       -0.3099
     91 C          -5.8985    5.0746    5.0983 C.3     1  UNL1        0.0162
     92 C          -5.6826    4.0324    6.1344 C.3     1  UNL1        0.0078
     93 C          -4.4011    3.9544    6.8510 C.3     1  UNL1        0.1107
     94 S          -3.9826    5.2926    7.8716 S.3     1  UNL1       -0.0163
     95 C          -3.8259    6.8621    7.1729 C.3     1  UNL1        0.0991
     96 C          -2.6746    4.9314    8.9792 C.3     1  UNL1        0.0991
     97 H           1.4902    3.2491   -1.9082 H       1  UNL1        0.0255
     98 H           1.8590    2.4305   -3.5071 H       1  UNL1        0.0255
     99 H           2.2979    1.6125   -2.0032 H       1  UNL1        0.0255
    100 H           4.3087    2.3907   -2.5620 H       1  UNL1        0.0614
    101 H           4.6665    3.7975   -4.0312 H       1  UNL1        0.2099
    102 H           5.0394    3.9601   -1.1452 H       1  UNL1        0.0621
    103 H           2.5542    2.7529    0.1601 H       1  UNL1        0.1495
    104 H           5.2331    1.2282    2.3084 H       1  UNL1        0.0417
    105 H           4.0125    3.2763    2.8511 H       1  UNL1        0.0238
    106 H           3.5900    1.7608    3.7496 H       1  UNL1        0.0238
    107 H           2.4349    2.3947    2.4992 H       1  UNL1        0.0238
    108 H           2.4553    0.6098    1.1405 H       1  UNL1        0.0619
    109 H           2.3059   -0.6309    2.8257 H       1  UNL1        0.2099
    110 H           4.2767   -0.3714   -0.4796 H       1  UNL1        0.0521
    111 H           4.9653   -1.8257    2.0657 H       1  UNL1        0.0248
    112 H           6.0746   -0.7532    1.1968 H       1  UNL1        0.0248
    113 H           5.5178   -2.2171    0.3368 H       1  UNL1        0.0248
    114 H           2.3864   -1.8652    1.2504 H       1  UNL1        0.1491
    115 H           1.8967   -4.4412   -0.3916 H       1  UNL1        0.0625
    116 H           0.4939   -2.1174    0.8258 H       1  UNL1        0.1499
    117 H          -1.8385   -5.7079    2.1514 H       1  UNL1        0.0279
    118 H          -2.6017   -5.8449    3.7410 H       1  UNL1        0.0279
    119 H          -0.9494   -6.4318    3.6081 H       1  UNL1        0.0279
    120 H          -3.4765   -4.1951    5.8137 H       1  UNL1        0.1437
    121 H          -3.0567   -4.9637    6.3461 H       1  UNL1        0.1437
    122 H           1.0488   -0.5086    5.1488 H       1  UNL1        0.0546
    123 H          -1.6326   -0.1870    6.5597 H       1  UNL1        0.0378
    124 H          -0.0289   -0.8031    7.0645 H       1  UNL1        0.0378
    125 H          -0.6748    2.1639    8.9306 H       1  UNL1        0.1449
    126 H          -0.0347    1.4650    8.9765 H       1  UNL1        0.1449
    127 H           0.3230    0.5748    3.2461 H       1  UNL1        0.1227
    128 H          -1.1180    2.3844    3.3436 H       1  UNL1        0.0444
    129 H          -1.9025    1.7968    4.8077 H       1  UNL1        0.0444
    130 H          -3.2835    1.4993    3.0027 H       1  UNL1        0.0567
    131 H          -2.9539   -1.1730    2.7446 H       1  UNL1        0.1189
    132 H          -3.9265   -0.4130    3.8827 H       1  UNL1        0.1189
    133 H          -2.1163   -1.6251    0.8710 H       1  UNL1        0.1450
    134 H          -2.1342   -0.4801   -0.1212 H       1  UNL1        0.1450
    135 H          -0.0023   -4.6207   -1.6096 H       1  UNL1        0.0686
    136 H          -1.4845   -4.3670   -2.0805 H       1  UNL1        0.0938
    137 H          -3.9377   -3.4271   -0.6830 H       1  UNL1        0.0647
    138 H          -5.6887   -2.3970   -2.0463 H       1  UNL1        0.0584
    139 H          -4.4023   -1.4657   -2.9766 H       1  UNL1        0.0584
    140 H          -5.4383   -0.9191   -0.5258 H       1  UNL1        0.2095
    141 H          -4.9761   -4.2411   -2.9979 H       1  UNL1        0.0647
    142 H          -4.7391   -6.0650   -2.0376 H       1  UNL1        0.2100
    143 H          -3.5896   -4.6954   -4.7290 H       1  UNL1        0.0648
    144 H          -2.5717   -6.2409   -2.8232 H       1  UNL1        0.2100
    145 H          -2.6852   -2.5496   -4.1884 H       1  UNL1        0.0675
    146 H          -2.2723   -2.1705   -5.7165 H       1  UNL1        0.0938
    147 H          -0.8928   -3.8590   -8.9222 H       1  UNL1        0.0647
    148 H           0.2333   -5.8826   -8.3532 H       1  UNL1        0.0584
    149 H          -0.4116   -5.8413   -6.6829 H       1  UNL1        0.0584
    150 H          -2.2022   -5.5775   -8.8715 H       1  UNL1        0.2095
    151 H           1.1533   -4.0920   -6.7070 H       1  UNL1        0.0658
    152 H           2.4112   -3.9121   -8.4608 H       1  UNL1        0.2101
    153 H           0.4202   -1.5113   -8.2212 H       1  UNL1        0.0790
    154 H           3.8191    0.4293   -6.7624 H       1  UNL1        0.1482
    155 H           5.0531   -0.6824   -7.0877 H       1  UNL1        0.1482
    156 H           0.2610   -1.6188   -5.2581 H       1  UNL1        0.0682
    157 H          -1.2629   -0.1290   -5.6404 H       1  UNL1        0.2102
    158 H           1.7820   -6.3704   -2.3814 H       1  UNL1        0.0848
    159 H           3.6427   -4.0757   -5.4244 H       1  UNL1        0.1027
    160 H           2.1210   -2.4988   -4.0848 H       1  UNL1        0.1666
    161 H           4.4685    6.5082   -1.9942 H       1  UNL1        0.1487
    162 H           3.5682    8.6252   -1.3455 H       1  UNL1        0.0466
    163 H           2.8926    7.8890    0.0955 H       1  UNL1        0.0466
    164 H           1.1787    8.9887   -1.1154 H       1  UNL1        0.0349
    165 H           1.5923    8.2763   -2.6630 H       1  UNL1        0.0349
    166 H          -1.5504    3.9799   -2.5816 H       1  UNL1        0.0716
    167 H          -5.3972    3.5320    1.5753 H       1  UNL1        0.0717
    168 H          -5.7616    4.7809    3.1364 H       1  UNL1        0.1491
    169 H          -5.7210    6.1021    5.5674 H       1  UNL1        0.0463
    170 H          -6.9565    5.1050    4.8071 H       1  UNL1        0.0463
    171 H          -6.5071    4.0942    6.8980 H       1  UNL1        0.0326
    172 H          -5.8816    3.0094    5.6682 H       1  UNL1        0.0326
    173 H          -3.5986    3.6663    6.1260 H       1  UNL1        0.0840
    174 H          -4.4418    3.0332    7.5342 H       1  UNL1        0.0840
    175 H          -3.1184    7.4599    7.8474 H       1  UNL1        0.0803
    176 H          -4.7622    7.4979    7.2405 H       1  UNL1        0.0803
    177 H          -3.3748    6.9445    6.1804 H       1  UNL1        0.0803
    178 H          -1.8233    5.6359    8.8924 H       1  UNL1        0.0803
    179 H          -3.0236    5.0483   10.0494 H       1  UNL1        0.0803
    180 H          -2.2743    3.9097    8.8663 H       1  UNL1        0.0803
@<TRIPOS>UNITY_ATOM_ATTR
94 1
charge 1
@<TRIPOS>BOND
     1     1     2    1
     2     2     3    1
     3     2     4    1
     4     4     5    1
     5     5     6   am
     6     6     7    2
     7     6     8    1
     8     8     9    1
     9     8    10    1
    10    10    11    1
    11    10    12    1
    12    12    13    1
    13    12    14    1
    14    14    15   am
    15    15    16    2
    16    15    17    1
    17    17    18    1
    18    18    19   am
    19    19    20    2
    20    19    21    1
    21    21    22   ar
    22    22    23    1
    23    22    24   ar
    24    24    25    1
    25    24    26   ar
    26    26    27   ar
    27    27    28   ar
    28    27    29    1
    29    29    30    1
    30    30    31    1
    31    31    32   am
    32    31    33    2
    33    29    34    1
    34    34    35    1
    35    35    36    1
    36    36    37    1
    37    36    38    1
    38    38    39   am
    39    38    40    2
    40    17    41    1
    41    41    42    1
    42    42    43    1
    43    43    44    1
    44    44    45    1
    45    45    46    1
    46    46    47    1
    47    45    48    1
    48    48    49    1
    49    48    50    1
    50    50    51    1
    51    50    52    1
    52    52    53    1
    53    53    54    1
    54    54    55    1
    55    55    56    1
    56    56    57    1
    57    57    58    1
    58    56    59    1
    59    59    60    1
    60    59    61    1
    61    61    62    1
    62    62    63    1
    63    63    64   am
    64    63    65    2
    65    61    66    1
    66    66    67    1
    67    41    68    1
    68    68    69   ar
    69    69    70   ar
    70    70    71   ar
    71    71    72   ar
    72     4    73    1
    73    73    74    2
    74    73    75   am
    75    75    76    1
    76    76    77    1
    77    77    78    1
    78    78    79   ar
    79    79    80   ar
    80    80    81   ar
    81    81    82   ar
    82    80    83    1
    83    83    84   ar
    84    84    85   ar
    85    85    86   ar
    86    86    87   ar
    87    85    88    1
    88    88    89    2
    89    88    90   am
    90    90    91    1
    91    91    92    1
    92    92    93    1
    93    93    94    1
    94    94    95    1
    95    94    96    1
    96    28    21   ar
    97    52    43    1
    98    66    54    1
    99    72    68   ar
   100    82    78   ar
   101    87    83   ar
   102     1    97    1
   103     1    98    1
   104     1    99    1
   105     2   100    1
   106     3   101    1
   107     4   102    1
   108     5   103    1
   109     8   104    1
   110     9   105    1
   111     9   106    1
   112     9   107    1
   113    10   108    1
   114    11   109    1
   115    12   110    1
   116    13   111    1
   117    13   112    1
   118    13   113    1
   119    14   114    1
   120    17   115    1
   121    18   116    1
   122    23   117    1
   123    23   118    1
   124    23   119    1
   125    25   120    1
   126    25   121    1
   127    29   122    1
   128    30   123    1
   129    30   124    1
   130    32   125    1
   131    32   126    1
   132    34   127    1
   133    35   128    1
   134    35   129    1
   135    36   130    1
   136    37   131    1
   137    37   132    1
   138    39   133    1
   139    39   134    1
   140    41   135    1
   141    43   136    1
   142    45   137    1
   143    46   138    1
   144    46   139    1
   145    47   140    1
   146    48   141    1
   147    49   142    1
   148    50   143    1
   149    51   144    1
   150    52   145    1
   151    54   146    1
   152    56   147    1
   153    57   148    1
   154    57   149    1
   155    58   150    1
   156    59   151    1
   157    60   152    1
   158    61   153    1
   159    64   154    1
   160    64   155    1
   161    66   156    1
   162    67   157    1
   163    69   158    1
   164    71   159    1
   165    72   160    1
   166    75   161    1
   167    76   162    1
   168    76   163    1
   169    77   164    1
   170    77   165    1
   171    81   166    1
   172    86   167    1
   173    90   168    1
   174    91   169    1
   175    91   170    1
   176    92   171    1
   177    92   172    1
   178    93   173    1
   179    93   174    1
   180    95   175    1
   181    95   176    1
   182    95   177    1
   183    96   178    1
   184    96   179    1
   185    96   180    1
