
     RDKit          3D

 52 55  0  0  0  0  0  0  0  0999 V2000
    8.3654    0.2255   -0.9154 C   0  0  0  0  0  0  0  0  0  0  0  0
    7.1365   -0.4893   -0.5331 N   0  0  0  0  0  0  0  0  0  0  0  0
    5.8895    0.1656   -0.4990 C   0  0  0  0  0  0  0  0  0  0  0  0
    5.9199    1.4043   -0.8214 O   0  0  0  0  0  0  0  0  0  0  0  0
    4.6337   -0.4718   -0.1322 C   0  0  0  0  0  0  0  0  0  0  0  0
    4.6043   -1.8002    0.2116 C   0  0  0  0  0  0  0  0  0  0  0  0
    3.3728   -2.3261    0.5462 C   0  0  0  0  0  0  0  0  0  0  0  0
    2.2260   -1.5741    0.5410 C   0  0  0  0  0  0  0  0  0  0  0  0
    2.2250   -0.2383    0.2002 C   0  0  0  0  0  0  0  0  0  0  0  0
    1.0913    0.5867    0.1716 N   0  0  0  0  0  0  0  0  0  0  0  0
   -0.2158    0.1833    0.4344 C   0  0  0  0  0  0  0  0  0  0  0  0
   -0.7114   -1.0224    0.7592 N   0  0  0  0  0  0  0  0  0  0  0  0
   -2.0032   -0.9988    0.9281 N   0  0  0  0  0  0  0  0  0  0  0  0
   -2.8478   -2.1350    1.2850 C   0  0  0  0  0  0  0  0  0  0  0  0
   -3.3059   -2.7972    0.0141 C   0  0  0  0  0  0  0  0  0  0  0  0
   -4.1819   -3.9871    0.0202 C   0  0  0  0  0  0  0  0  0  0  0  0
   -2.6970   -4.1503   -0.3162 C   0  0  0  0  0  0  0  0  0  0  0  0
   -2.4746    0.2373    0.7271 C   0  0  0  0  0  0  0  0  0  0  0  0
   -1.3549    0.9995    0.4132 C   0  0  0  0  0  0  0  0  0  0  0  0
   -1.4559    2.4439    0.1182 C   0  0  0  0  0  0  0  0  0  0  0  0
   -2.7565    2.8352   -0.3542 N   0  0  0  0  0  0  0  0  0  0  0  0
   -2.9398    4.1404   -0.8704 C   0  0  0  0  0  0  0  0  0  0  0  0
   -4.2437    4.6182   -1.3744 C   0  0  0  0  0  0  0  0  0  0  0  0
   -1.9705    4.9340   -0.9089 O   0  0  0  0  0  0  0  0  0  0  0  0
   -3.9095    1.9561   -0.3320 C   0  0  0  0  0  0  0  0  0  0  0  0
   -3.8012    0.9117    0.7613 C   0  0  0  0  0  0  0  0  0  0  0  0
    3.4806    0.2785   -0.1360 C   0  0  0  0  0  0  0  0  0  0  0  0
    9.1357   -0.5075   -1.1767 H   0  0  0  0  0  0  0  0  0  0  0  0
    8.7041    0.7350    0.0117 H   0  0  0  0  0  0  0  0  0  0  0  0
    8.1615    0.9408   -1.7338 H   0  0  0  0  0  0  0  0  0  0  0  0
    7.2027   -1.4946   -0.2859 H   0  0  0  0  0  0  0  0  0  0  0  0
    5.4865   -2.4282    0.2283 H   0  0  0  0  0  0  0  0  0  0  0  0
    3.3418   -3.3790    0.8202 H   0  0  0  0  0  0  0  0  0  0  0  0
    1.3217   -2.0599    0.8132 H   0  0  0  0  0  0  0  0  0  0  0  0
    1.2545    1.6111   -0.0730 H   0  0  0  0  0  0  0  0  0  0  0  0
   -3.6745   -1.8307    1.9403 H   0  0  0  0  0  0  0  0  0  0  0  0
   -2.2241   -2.8546    1.8535 H   0  0  0  0  0  0  0  0  0  0  0  0
   -3.4333   -2.0921   -0.8451 H   0  0  0  0  0  0  0  0  0  0  0  0
   -4.8768   -4.1230   -0.8507 H   0  0  0  0  0  0  0  0  0  0  0  0
   -4.4809   -4.4943    0.9568 H   0  0  0  0  0  0  0  0  0  0  0  0
   -2.4450   -4.3300   -1.3980 H   0  0  0  0  0  0  0  0  0  0  0  0
   -2.0388   -4.6294    0.4197 H   0  0  0  0  0  0  0  0  0  0  0  0
   -0.7355    2.6662   -0.7180 H   0  0  0  0  0  0  0  0  0  0  0  0
   -1.1210    3.0745    0.9764 H   0  0  0  0  0  0  0  0  0  0  0  0
   -4.7275    3.8231   -1.9768 H   0  0  0  0  0  0  0  0  0  0  0  0
   -4.1665    5.5107   -1.9985 H   0  0  0  0  0  0  0  0  0  0  0  0
   -4.8972    4.8641   -0.4987 H   0  0  0  0  0  0  0  0  0  0  0  0
   -4.0491    1.5149   -1.3312 H   0  0  0  0  0  0  0  0  0  0  0  0
   -4.7958    2.5766   -0.0908 H   0  0  0  0  0  0  0  0  0  0  0  0
   -4.6221    0.1831    0.5978 H   0  0  0  0  0  0  0  0  0  0  0  0
   -3.9012    1.4513    1.7233 H   0  0  0  0  0  0  0  0  0  0  0  0
    3.5054    1.3426   -0.4118 H   0  0  0  0  0  0  0  0  0  0  0  0
  1  2  1  0
  2  3  1  0
  3  4  2  0
  3  5  1  0
  5  6  2  0
  6  7  1  0
  7  8  2  0
  8  9  1  0
  9 10  1  0
 10 11  1  0
 11 12  2  0
 12 13  1  0
 13 14  1  0
 14 15  1  0
 15 16  1  0
 16 17  1  0
 13 18  1  0
 18 19  2  0
 19 20  1  0
 20 21  1  0
 21 22  1  0
 22 23  1  0
 22 24  2  0
 21 25  1  0
 25 26  1  0
  9 27  2  0
 27  5  1  0
 19 11  1  0
 17 15  1  0
 26 18  1  0
  1 28  1  0
  1 29  1  0
  1 30  1  0
  2 31  1  0
  6 32  1  0
  7 33  1  0
  8 34  1  0
 10 35  1  0
 14 36  1  0
 14 37  1  0
 15 38  1  0
 16 39  1  0
 16 40  1  0
 17 41  1  0
 17 42  1  0
 20 43  1  0
 20 44  1  0
 23 45  1  0
 23 46  1  0
 23 47  1  0
 25 48  1  0
 25 49  1  0
 26 50  1  0
 26 51  1  0
 27 52  1  0
M  END
$$$$
