@<TRIPOS>MOLECULE
*****
 52 55 0 0 0
SMALL
GASTEIGER

@<TRIPOS>ATOM
      1 C           8.3654    0.2255   -0.9154 C.3     1  UNL1        0.0004
      2 N           7.1365   -0.4893   -0.5331 N.am    1  UNL1       -0.3144
      3 C           5.8895    0.1656   -0.4990 C.2     1  UNL1        0.2439
      4 O           5.9199    1.4043   -0.8214 O.2     1  UNL1       -0.2702
      5 C           4.6337   -0.4718   -0.1322 C.ar    1  UNL1        0.0384
      6 C           4.6043   -1.8002    0.2116 C.ar    1  UNL1       -0.0495
      7 C           3.3728   -2.3261    0.5462 C.ar    1  UNL1       -0.0593
      8 C           2.2260   -1.5741    0.5410 C.ar    1  UNL1       -0.0405
      9 C           2.2250   -0.2383    0.2002 C.ar    1  UNL1        0.0331
     10 N           1.0913    0.5867    0.1716 N.pl3   1  UNL1       -0.2977
     11 C          -0.2158    0.1833    0.4344 C.ar    1  UNL1        0.1498
     12 N          -0.7114   -1.0224    0.7592 N.ar    1  UNL1       -0.1554
     13 N          -2.0032   -0.9988    0.9281 N.ar    1  UNL1       -0.2659
     14 C          -2.8478   -2.1350    1.2850 C.3     1  UNL1        0.0447
     15 C          -3.3059   -2.7972    0.0141 C.3     1  UNL1       -0.0214
     16 C          -4.1819   -3.9871    0.0202 C.3     1  UNL1       -0.0482
     17 C          -2.6970   -4.1503   -0.3162 C.3     1  UNL1       -0.0482
     18 C          -2.4746    0.2373    0.7271 C.ar    1  UNL1        0.0473
     19 C          -1.3549    0.9995    0.4132 C.ar    1  UNL1        0.0324
     20 C          -1.4559    2.4439    0.1182 C.3     1  UNL1        0.0447
     21 N          -2.7565    2.8352   -0.3542 N.am    1  UNL1       -0.2968
     22 C          -2.9398    4.1404   -0.8704 C.2     1  UNL1        0.2128
     23 C          -4.2437    4.6182   -1.3744 C.3     1  UNL1        0.0124
     24 O          -1.9705    4.9340   -0.9089 O.2     1  UNL1       -0.2759
     25 C          -3.9095    1.9561   -0.3320 C.3     1  UNL1        0.0204
     26 C          -3.8012    0.9117    0.7613 C.3     1  UNL1        0.0055
     27 C           3.4806    0.2785   -0.1360 C.ar    1  UNL1       -0.0284
     28 H           9.1357   -0.5075   -1.1767 H       1  UNL1        0.0426
     29 H           8.7041    0.7350    0.0117 H       1  UNL1        0.0426
     30 H           8.1615    0.9408   -1.7338 H       1  UNL1        0.0426
     31 H           7.2027   -1.4946   -0.2859 H       1  UNL1        0.1487
     32 H           5.4865   -2.4282    0.2283 H       1  UNL1        0.0625
     33 H           3.3418   -3.3790    0.8202 H       1  UNL1        0.0618
     34 H           1.3217   -2.0599    0.8132 H       1  UNL1        0.0636
     35 H           1.2545    1.6111   -0.0730 H       1  UNL1        0.1536
     36 H          -3.6745   -1.8307    1.9403 H       1  UNL1        0.0511
     37 H          -2.2241   -2.8546    1.8535 H       1  UNL1        0.0511
     38 H          -3.4333   -2.0921   -0.8451 H       1  UNL1        0.0318
     39 H          -4.8768   -4.1230   -0.8507 H       1  UNL1        0.0269
     40 H          -4.4809   -4.4943    0.9568 H       1  UNL1        0.0269
     41 H          -2.4450   -4.3300   -1.3980 H       1  UNL1        0.0269
     42 H          -2.0388   -4.6294    0.4197 H       1  UNL1        0.0269
     43 H          -0.7355    2.6662   -0.7180 H       1  UNL1        0.0515
     44 H          -1.1210    3.0745    0.9764 H       1  UNL1        0.0515
     45 H          -4.7275    3.8231   -1.9768 H       1  UNL1        0.0323
     46 H          -4.1665    5.5107   -1.9985 H       1  UNL1        0.0323
     47 H          -4.8972    4.8641   -0.4987 H       1  UNL1        0.0323
     48 H          -4.0491    1.5149   -1.3312 H       1  UNL1        0.0468
     49 H          -4.7958    2.5766   -0.0908 H       1  UNL1        0.0468
     50 H          -4.6221    0.1831    0.5978 H       1  UNL1        0.0343
     51 H          -3.9012    1.4513    1.7233 H       1  UNL1        0.0343
     52 H           3.5054    1.3426   -0.4118 H       1  UNL1        0.0644
@<TRIPOS>BOND
     1     1     2    1
     2     2     3   am
     3     3     4    2
     4     3     5    1
     5     5     6   ar
     6     6     7   ar
     7     7     8   ar
     8     8     9   ar
     9     9    10    1
    10    10    11    1
    11    11    12   ar
    12    12    13   ar
    13    13    14    1
    14    14    15    1
    15    15    16    1
    16    16    17    1
    17    13    18   ar
    18    18    19   ar
    19    19    20    1
    20    20    21    1
    21    21    22   am
    22    22    23    1
    23    22    24    2
    24    21    25    1
    25    25    26    1
    26     9    27   ar
    27    27     5   ar
    28    19    11   ar
    29    17    15    1
    30    26    18    1
    31     1    28    1
    32     1    29    1
    33     1    30    1
    34     2    31    1
    35     6    32    1
    36     7    33    1
    37     8    34    1
    38    10    35    1
    39    14    36    1
    40    14    37    1
    41    15    38    1
    42    16    39    1
    43    16    40    1
    44    17    41    1
    45    17    42    1
    46    20    43    1
    47    20    44    1
    48    23    45    1
    49    23    46    1
    50    23    47    1
    51    25    48    1
    52    25    49    1
    53    26    50    1
    54    26    51    1
    55    27    52    1
