
     RDKit          3D

 43 46  0  0  0  0  0  0  0  0999 V2000
   -5.3621   -1.4688    1.5208 N   0  0  0  0  0  0  0  0  0  0  0  0
   -4.2228   -0.6645    1.1475 C   0  0  0  0  0  0  0  0  0  0  0  0
   -4.1308   -0.1208   -0.0191 N   0  0  0  0  0  0  0  0  0  0  0  0
   -3.0135    0.6944   -0.4493 C   0  0  2  0  0  0  0  0  0  0  0  0
   -3.4797    1.6019   -1.5426 C   0  0  0  0  0  0  0  0  0  0  0  0
   -2.4770    2.4203   -2.0238 F   0  0  0  0  0  0  0  0  0  0  0  0
   -1.9768   -0.2298   -0.9657 C   0  0  0  0  0  0  0  0  0  0  0  0
   -0.6993   -0.2625   -0.3975 C   0  0  0  0  0  0  0  0  0  0  0  0
    0.3030   -1.0937   -0.8402 C   0  0  0  0  0  0  0  0  0  0  0  0
    1.6035   -1.0823   -0.2126 N   0  0  0  0  0  0  0  0  0  0  0  0
    2.6359   -0.2502   -0.6342 C   0  0  0  0  0  0  0  0  0  0  0  0
    2.3946    0.5250   -1.6194 O   0  0  0  0  0  0  0  0  0  0  0  0
    3.9606   -0.1952   -0.0434 C   0  0  0  0  0  0  0  0  0  0  0  0
    4.9841    0.6079   -0.4366 N   0  0  0  0  0  0  0  0  0  0  0  0
    6.0486    0.4267    0.2899 N   0  0  0  0  0  0  0  0  0  0  0  0
    7.3341    1.1165    0.1522 C   0  0  0  0  0  0  0  0  0  0  0  0
    7.4027    1.7351   -1.0794 F   0  0  0  0  0  0  0  0  0  0  0  0
    7.4833    2.0582    1.1531 F   0  0  0  0  0  0  0  0  0  0  0  0
    5.7806   -0.5136    1.2085 C   0  0  0  0  0  0  0  0  0  0  0  0
    4.4525   -0.9132    1.0011 C   0  0  0  0  0  0  0  0  0  0  0  0
    3.6464   -2.1424    1.9774 Cl  0  0  0  0  0  0  0  0  0  0  0  0
    0.0543   -1.9428   -1.8942 C   0  0  0  0  0  0  0  0  0  0  0  0
   -1.1857   -1.9531   -2.4917 C   0  0  0  0  0  0  0  0  0  0  0  0
   -1.4793   -2.7779   -3.5400 F   0  0  0  0  0  0  0  0  0  0  0  0
   -2.1802   -1.0895   -2.0093 C   0  0  0  0  0  0  0  0  0  0  0  0
   -3.3779   -1.1386   -2.6100 F   0  0  0  0  0  0  0  0  0  0  0  0
   -2.4050    1.4569    0.7055 C   0  0  1  0  0  0  0  0  0  0  0  0
   -3.2351    2.0254    1.7914 C   0  0  0  0  0  0  0  0  0  0  0  0
   -2.3802    0.7443    1.9739 C   0  0  1  0  0  0  0  0  0  0  0  0
   -3.1653   -0.4320    2.0213 O   0  0  0  0  0  0  0  0  0  0  0  0
   -5.5082   -2.3573    0.9947 H   0  0  0  0  0  0  0  0  0  0  0  0
   -5.9985   -1.1708    2.2753 H   0  0  0  0  0  0  0  0  0  0  0  0
   -4.3393    2.2162   -1.1641 H   0  0  0  0  0  0  0  0  0  0  0  0
   -3.8968    1.0115   -2.3668 H   0  0  0  0  0  0  0  0  0  0  0  0
   -0.4338    0.3867    0.4485 H   0  0  0  0  0  0  0  0  0  0  0  0
    1.7118   -1.7395    0.5754 H   0  0  0  0  0  0  0  0  0  0  0  0
    8.1571    0.3749    0.2830 H   0  0  0  0  0  0  0  0  0  0  0  0
    6.4306   -0.9159    1.9781 H   0  0  0  0  0  0  0  0  0  0  0  0
    0.8380   -2.6036   -2.2527 H   0  0  0  0  0  0  0  0  0  0  0  0
   -1.5302    2.0719    0.4277 H   0  0  0  0  0  0  0  0  0  0  0  0
   -4.3261    1.9199    1.8058 H   0  0  0  0  0  0  0  0  0  0  0  0
   -2.8607    2.8844    2.3592 H   0  0  0  0  0  0  0  0  0  0  0  0
   -1.5577    0.7800    2.6922 H   0  0  0  0  0  0  0  0  0  0  0  0
  1  2  1  0
  2  3  2  0
  3  4  1  0
  4  5  1  6
  5  6  1  0
  4  7  1  0
  7  8  2  0
  8  9  1  0
  9 10  1  0
 10 11  1  0
 11 12  2  0
 11 13  1  0
 13 14  2  0
 14 15  1  0
 15 16  1  0
 16 17  1  0
 16 18  1  0
 15 19  1  0
 19 20  2  0
 20 21  1  0
  9 22  2  0
 22 23  1  0
 23 24  1  0
 23 25  2  0
 25 26  1  0
  4 27  1  0
 27 28  1  0
 28 29  1  0
 29 30  1  0
 30  2  1  0
 25  7  1  0
 29 27  1  0
 20 13  1  0
  1 31  1  0
  1 32  1  0
  5 33  1  0
  5 34  1  0
  8 35  1  0
 10 36  1  0
 16 37  1  0
 19 38  1  0
 22 39  1  0
 27 40  1  6
 28 41  1  0
 28 42  1  0
 29 43  1  1
M  END
$$$$
