@<TRIPOS>MOLECULE
*****
 43 46 0 0 0
SMALL
GASTEIGER

@<TRIPOS>ATOM
      1 N          -5.3621   -1.4688    1.5208 N.pl3   1  UNL1       -0.3134
      2 C          -4.2228   -0.6645    1.1475 C.2     1  UNL1        0.2763
      3 N          -4.1308   -0.1208   -0.0191 N.2     1  UNL1       -0.2225
      4 C          -3.0135    0.6944   -0.4493 C.3     1  UNL1        0.1285
      5 C          -3.4797    1.6019   -1.5426 C.3     1  UNL1        0.1199
      6 F          -2.4770    2.4203   -2.0238 F       1  UNL1       -0.2462
      7 C          -1.9768   -0.2298   -0.9657 C.ar    1  UNL1        0.0227
      8 C          -0.6993   -0.2625   -0.3975 C.ar    1  UNL1       -0.0320
      9 C           0.3030   -1.0937   -0.8402 C.ar    1  UNL1        0.0369
     10 N           1.6035   -1.0823   -0.2126 N.am    1  UNL1       -0.2801
     11 C           2.6359   -0.2502   -0.6342 C.2     1  UNL1        0.2698
     12 O           2.3946    0.5250   -1.6194 O.2     1  UNL1       -0.2681
     13 C           3.9606   -0.1952   -0.0434 C.ar    1  UNL1        0.1657
     14 N           4.9841    0.6079   -0.4366 N.ar    1  UNL1       -0.1604
     15 N           6.0486    0.4267    0.2899 N.ar    1  UNL1       -0.2091
     16 C           7.3341    1.1165    0.1522 C.3     1  UNL1        0.3342
     17 F           7.4027    1.7351   -1.0794 F       1  UNL1       -0.1832
     18 F           7.4833    2.0582    1.1531 F       1  UNL1       -0.1832
     19 C           5.7806   -0.5136    1.2085 C.ar    1  UNL1        0.0503
     20 C           4.4525   -0.9132    1.0011 C.ar    1  UNL1        0.0909
     21 CL          3.6464   -2.1424    1.9774 Cl      1  UNL1       -0.0795
     22 C           0.0543   -1.9428   -1.8942 C.ar    1  UNL1       -0.0023
     23 C          -1.1857   -1.9531   -2.4917 C.ar    1  UNL1        0.1605
     24 F          -1.4793   -2.7779   -3.5400 F       1  UNL1       -0.2024
     25 C          -2.1802   -1.0895   -2.0093 C.ar    1  UNL1        0.1641
     26 F          -3.3779   -1.1386   -2.6100 F       1  UNL1       -0.2021
     27 C          -2.4050    1.4569    0.7055 C.3     1  UNL1        0.0315
     28 C          -3.2351    2.0254    1.7914 C.3     1  UNL1       -0.0065
     29 C          -2.3802    0.7443    1.9739 C.3     1  UNL1        0.1090
     30 O          -3.1653   -0.4320    2.0213 O.2     1  UNL1       -0.4622
     31 H          -5.5082   -2.3573    0.9947 H       1  UNL1        0.1466
     32 H          -5.9985   -1.1708    2.2753 H       1  UNL1        0.1466
     33 H          -4.3393    2.2162   -1.1641 H       1  UNL1        0.0643
     34 H          -3.8968    1.0115   -2.3668 H       1  UNL1        0.0643
     35 H          -0.4338    0.3867    0.4485 H       1  UNL1        0.0640
     36 H           1.7118   -1.7395    0.5754 H       1  UNL1        0.1552
     37 H           8.1571    0.3749    0.2830 H       1  UNL1        0.1295
     38 H           6.4306   -0.9159    1.9781 H       1  UNL1        0.0843
     39 H           0.8380   -2.6036   -2.2527 H       1  UNL1        0.0666
     40 H          -1.5302    2.0719    0.4277 H       1  UNL1        0.0365
     41 H          -4.3261    1.9199    1.8058 H       1  UNL1        0.0306
     42 H          -2.8607    2.8844    2.3592 H       1  UNL1        0.0306
     43 H          -1.5577    0.7800    2.6922 H       1  UNL1        0.0737
@<TRIPOS>BOND
     1     1     2    1
     2     2     3    2
     3     3     4    1
     4     4     5    1
     5     5     6    1
     6     4     7    1
     7     7     8   ar
     8     8     9   ar
     9     9    10    1
    10    10    11   am
    11    11    12    2
    12    11    13    1
    13    13    14   ar
    14    14    15   ar
    15    15    16    1
    16    16    17    1
    17    16    18    1
    18    15    19   ar
    19    19    20   ar
    20    20    21    1
    21     9    22   ar
    22    22    23   ar
    23    23    24    1
    24    23    25   ar
    25    25    26    1
    26     4    27    1
    27    27    28    1
    28    28    29    1
    29    29    30    1
    30    30     2    1
    31    25     7   ar
    32    29    27    1
    33    20    13   ar
    34     1    31    1
    35     1    32    1
    36     5    33    1
    37     5    34    1
    38     8    35    1
    39    10    36    1
    40    16    37    1
    41    19    38    1
    42    22    39    1
    43    27    40    1
    44    28    41    1
    45    28    42    1
    46    29    43    1
