
     RDKit          3D

 31 33  0  0  0  0  0  0  0  0999 V2000
   -5.8065    0.8623   -0.9161 O   0  0  0  0  0  0  0  0  0  0  0  0
   -4.4071    0.8941   -0.7579 C   0  0  0  0  0  0  0  0  0  0  0  0
   -3.7940    0.2903    0.3158 C   0  0  0  0  0  0  0  0  0  0  0  0
   -4.8935   -0.5933    1.5990 Br  0  0  0  0  0  0  0  0  0  0  0  0
   -2.4040    0.3113    0.4876 C   0  0  0  0  0  0  0  0  0  0  0  0
   -1.6159    0.9487   -0.4344 C   0  0  0  0  0  0  0  0  0  0  0  0
   -0.1749    0.9625   -0.3116 C   0  0  0  0  0  0  0  0  0  0  0  0
    0.5783   -0.1014   -0.1425 C   0  0  0  0  0  0  0  0  0  0  0  0
    2.0384   -0.0521   -0.0153 C   0  0  0  0  0  0  0  0  0  0  0  0
    2.9660    0.9818   -0.1713 C   0  0  0  0  0  0  0  0  0  0  0  0
    4.3104    0.8238    0.0003 C   0  0  0  0  0  0  0  0  0  0  0  0
    5.5960    2.4557   -0.2603 I   0  0  0  0  0  0  0  0  0  0  0  0
    4.7762   -0.4194    0.3453 C   0  0  0  0  0  0  0  0  0  0  0  0
    3.9008   -1.4657    0.5091 C   0  0  0  0  0  0  0  0  0  0  0  0
    2.5183   -1.2980    0.3315 C   0  0  0  0  0  0  0  0  0  0  0  0
    1.4235   -2.1875    0.4382 N   0  0  0  0  0  0  0  0  0  0  0  0
    0.2470   -1.5326   -0.0815 C   0  0  0  0  0  0  0  0  0  0  0  0
    0.0345   -1.9414   -1.4100 O   0  0  0  0  0  0  0  0  0  0  0  0
   -2.2276    1.5609   -1.5198 C   0  0  0  0  0  0  0  0  0  0  0  0
   -3.6029    1.5318   -1.6759 C   0  0  0  0  0  0  0  0  0  0  0  0
   -4.4065    2.3810   -3.1799 Br  0  0  0  0  0  0  0  0  0  0  0  0
   -6.2240    0.0434   -1.3833 H   0  0  0  0  0  0  0  0  0  0  0  0
   -1.9567   -0.1504    1.3383 H   0  0  0  0  0  0  0  0  0  0  0  0
    0.2967    1.9708   -0.3722 H   0  0  0  0  0  0  0  0  0  0  0  0
    2.5651    1.9385   -0.4404 H   0  0  0  0  0  0  0  0  0  0  0  0
    5.8523   -0.5329    0.4805 H   0  0  0  0  0  0  0  0  0  0  0  0
    4.2678   -2.4280    0.7759 H   0  0  0  0  0  0  0  0  0  0  0  0
    1.4299   -3.1566    0.8181 H   0  0  0  0  0  0  0  0  0  0  0  0
   -0.5809   -1.8166    0.5632 H   0  0  0  0  0  0  0  0  0  0  0  0
    0.8631   -2.3413   -1.7530 H   0  0  0  0  0  0  0  0  0  0  0  0
   -1.5695    2.0603   -2.2365 H   0  0  0  0  0  0  0  0  0  0  0  0
  1  2  1  0
  2  3  2  0
  3  4  1  0
  3  5  1  0
  5  6  2  0
  6  7  1  0
  7  8  2  3
  8  9  1  0
  9 10  2  0
 10 11  1  0
 11 12  1  0
 11 13  2  0
 13 14  1  0
 14 15  2  0
 15 16  1  0
 16 17  1  0
 17 18  1  0
  6 19  1  0
 19 20  2  0
 20 21  1  0
 20  2  1  0
 17  8  1  0
 15  9  1  0
  1 22  1  0
  5 23  1  0
  7 24  1  0
 10 25  1  0
 13 26  1  0
 14 27  1  0
 16 28  1  0
 17 29  1  0
 18 30  1  0
 19 31  1  0
M  END
$$$$
