@<TRIPOS>MOLECULE
*****
 31 33 0 0 0
SMALL
GASTEIGER

@<TRIPOS>ATOM
      1 O          -5.8065    0.8623   -0.9161 O.3     1  UNL1       -0.5045
      2 C          -4.4071    0.8941   -0.7579 C.ar    1  UNL1        0.1447
      3 C          -3.7940    0.2903    0.3158 C.ar    1  UNL1        0.0609
      4 BR         -4.8935   -0.5933    1.5990 Br      1  UNL1       -0.0465
      5 C          -2.4040    0.3113    0.4876 C.ar    1  UNL1       -0.0370
      6 C          -1.6159    0.9487   -0.4344 C.ar    1  UNL1       -0.0223
      7 C          -0.1749    0.9625   -0.3116 C.2     1  UNL1       -0.0467
      8 C           0.5783   -0.1014   -0.1425 C.2     1  UNL1        0.0083
      9 C           2.0384   -0.0521   -0.0153 C.ar    1  UNL1        0.0041
     10 C           2.9660    0.9818   -0.1713 C.ar    1  UNL1       -0.0393
     11 C           4.3104    0.8238    0.0003 C.ar    1  UNL1        0.0141
     12 I           5.5960    2.4557   -0.2603 I       1  UNL1       -0.0438
     13 C           4.7762   -0.4194    0.3453 C.ar    1  UNL1       -0.0468
     14 C           3.9008   -1.4657    0.5091 C.ar    1  UNL1       -0.0392
     15 C           2.5183   -1.2980    0.3315 C.ar    1  UNL1        0.0369
     16 N           1.4235   -2.1875    0.4382 N.pl3   1  UNL1       -0.3151
     17 C           0.2470   -1.5326   -0.0815 C.3     1  UNL1        0.1463
     18 O           0.0345   -1.9414   -1.4100 O.3     1  UNL1       -0.3702
     19 C          -2.2276    1.5609   -1.5198 C.ar    1  UNL1       -0.0370
     20 C          -3.6029    1.5318   -1.6759 C.ar    1  UNL1        0.0609
     21 BR         -4.4065    2.3810   -3.1799 Br      1  UNL1       -0.0465
     22 H          -6.2240    0.0434   -1.3833 H       1  UNL1        0.2922
     23 H          -1.9567   -0.1504    1.3383 H       1  UNL1        0.0636
     24 H           0.2967    1.9708   -0.3722 H       1  UNL1        0.0628
     25 H           2.5651    1.9385   -0.4404 H       1  UNL1        0.0634
     26 H           5.8523   -0.5329    0.4805 H       1  UNL1        0.0628
     27 H           4.2678   -2.4280    0.7759 H       1  UNL1        0.0636
     28 H           1.4299   -3.1566    0.8181 H       1  UNL1        0.1488
     29 H          -0.5809   -1.8166    0.5632 H       1  UNL1        0.0858
     30 H           0.8631   -2.3413   -1.7530 H       1  UNL1        0.2121
     31 H          -1.5695    2.0603   -2.2365 H       1  UNL1        0.0636
@<TRIPOS>BOND
     1     1     2    1
     2     2     3   ar
     3     3     4    1
     4     3     5   ar
     5     5     6   ar
     6     6     7    1
     7     7     8    2
     8     8     9    1
     9     9    10   ar
    10    10    11   ar
    11    11    12    1
    12    11    13   ar
    13    13    14   ar
    14    14    15   ar
    15    15    16    1
    16    16    17    1
    17    17    18    1
    18     6    19   ar
    19    19    20   ar
    20    20    21    1
    21    20     2   ar
    22    17     8    1
    23    15     9   ar
    24     1    22    1
    25     5    23    1
    26     7    24    1
    27    10    25    1
    28    13    26    1
    29    14    27    1
    30    16    28    1
    31    17    29    1
    32    18    30    1
    33    19    31    1
