@<TRIPOS>MOLECULE
*****
 88 91 0 0 0
SMALL
GASTEIGER

@<TRIPOS>ATOM
      1 N           7.7775    3.8861    0.6335 N.3     1  UNL1       -0.3276
      2 C           6.3482    3.5416    0.5644 C.3     1  UNL1        0.0222
      3 C           6.1766    2.0371    0.5266 C.3     1  UNL1        0.1022
      4 O           4.8108    1.7843    0.4587 O.3     1  UNL1       -0.3425
      5 C           4.5864    0.4174    0.0933 C.3     1  UNL1        0.1776
      6 O           3.2529    0.2466    0.2642 O.3     1  UNL1       -0.3410
      7 C           2.4688    0.1501   -0.8289 C.3     1  UNL1        0.1205
      8 C           1.3064    1.1045   -0.8684 C.3     1  UNL1        0.1135
      9 C           1.0411    1.4167   -2.3265 C.3     1  UNL1        0.0730
     10 O          -0.0297    2.2631   -2.5179 O.3     1  UNL1       -0.3924
     11 O           0.2659    0.4988   -0.2269 O.3     1  UNL1       -0.3405
     12 C           0.4557   -0.8719   -0.2234 C.3     1  UNL1        0.1884
     13 O          -0.6591   -1.4973   -0.6498 O.3     1  UNL1       -0.3402
     14 C          -1.3399   -2.3293    0.1466 C.3     1  UNL1        0.1166
     15 C          -1.4304   -3.6706   -0.5717 C.3     1  UNL1        0.0990
     16 O          -0.1552   -4.2552   -0.6744 O.3     1  UNL1       -0.3876
     17 C          -2.3273   -4.6498    0.0868 C.3     1  UNL1        0.0351
     18 N          -2.6033   -5.7157   -0.8608 N.3     1  UNL1       -0.3250
     19 C          -3.6637   -4.0922    0.4955 C.3     1  UNL1       -0.0175
     20 C          -3.4682   -2.8066    1.2596 C.3     1  UNL1        0.0355
     21 N          -4.7607   -2.2695    1.5992 N.3     1  UNL1       -0.3250
     22 C          -2.7585   -1.8528    0.2823 C.3     1  UNL1        0.1055
     23 O          -2.8851   -0.5506    0.7054 O.3     1  UNL1       -0.3422
     24 C          -3.6805    0.1277   -0.2212 C.3     1  UNL1        0.1776
     25 O          -4.8577    0.4501    0.4514 O.3     1  UNL1       -0.3425
     26 C          -5.3201    1.7212    0.2365 C.3     1  UNL1        0.1022
     27 C          -6.7327    1.8069    0.7724 C.3     1  UNL1        0.0222
     28 N          -7.2277    3.1653    0.5427 N.3     1  UNL1       -0.3276
     29 C          -5.3544    1.9644   -1.2615 C.3     1  UNL1        0.1100
     30 O          -6.0662    3.1447   -1.4498 O.3     1  UNL1       -0.3866
     31 C          -3.9061    2.0708   -1.6959 C.3     1  UNL1        0.1033
     32 O          -3.7697    1.5902   -2.9958 O.3     1  UNL1       -0.3874
     33 C          -2.9717    1.3110   -0.7771 C.3     1  UNL1        0.0853
     34 N          -2.3814    2.1573    0.2219 N.3     1  UNL1       -0.3211
     35 C           1.7333   -1.1639   -0.9273 C.3     1  UNL1        0.1345
     36 O           2.4658   -2.1485   -0.2731 O.3     1  UNL1       -0.3841
     37 C           5.5266   -0.3734    0.9095 C.3     1  UNL1        0.0853
     38 N           5.1775   -1.7184    1.2173 N.3     1  UNL1       -0.3211
     39 C           5.9022    0.3085    2.2179 C.3     1  UNL1        0.1033
     40 O           6.7432   -0.5816    2.9045 O.3     1  UNL1       -0.3874
     41 C           6.7502    1.5106    1.8491 C.3     1  UNL1        0.1100
     42 O           6.6544    2.5212    2.8057 O.3     1  UNL1       -0.3866
     43 H           7.8687    4.9108    0.7582 H       1  UNL1        0.1183
     44 H           8.2635    3.5926   -0.2479 H       1  UNL1        0.1183
     45 H           5.9055    4.0572   -0.2874 H       1  UNL1        0.0448
     46 H           5.9442    3.9121    1.5509 H       1  UNL1        0.0448
     47 H           6.7347    1.6703   -0.3415 H       1  UNL1        0.0636
     48 H           4.9360    0.4300   -0.9814 H       1  UNL1        0.0927
     49 H           3.1153    0.2333   -1.7317 H       1  UNL1        0.0651
     50 H           1.4877    2.0787   -0.3795 H       1  UNL1        0.0647
     51 H           0.8058    0.4912   -2.9270 H       1  UNL1        0.0584
     52 H           1.9753    1.8086   -2.7714 H       1  UNL1        0.0584
     53 H          -0.1990    2.2949   -3.4906 H       1  UNL1        0.2095
     54 H           0.6191   -1.1715    0.8331 H       1  UNL1        0.0938
     55 H          -0.9571   -2.4574    1.1783 H       1  UNL1        0.0650
     56 H          -1.8417   -3.4428   -1.5756 H       1  UNL1        0.0636
     57 H          -0.1995   -5.0382   -1.2438 H       1  UNL1        0.2100
     58 H          -1.8661   -5.1682    0.9724 H       1  UNL1        0.0485
     59 H          -1.9188   -6.4787   -0.8459 H       1  UNL1        0.1185
     60 H          -2.5833   -5.2908   -1.8153 H       1  UNL1        0.1185
     61 H          -4.1906   -4.8640    1.0898 H       1  UNL1        0.0297
     62 H          -4.2192   -3.8985   -0.4607 H       1  UNL1        0.0297
     63 H          -2.8430   -3.0170    2.1462 H       1  UNL1        0.0485
     64 H          -5.0051   -2.5508    2.5779 H       1  UNL1        0.1185
     65 H          -5.4824   -2.6696    0.9354 H       1  UNL1        0.1185
     66 H          -3.2749   -2.0602   -0.6996 H       1  UNL1        0.0639
     67 H          -3.9577   -0.5812   -1.0266 H       1  UNL1        0.0927
     68 H          -4.7192    2.4729    0.7698 H       1  UNL1        0.0636
     69 H          -6.8180    1.5449    1.8312 H       1  UNL1        0.0448
     70 H          -7.4015    1.1360    0.2110 H       1  UNL1        0.0448
     71 H          -7.0640    3.7183    1.4289 H       1  UNL1        0.1183
     72 H          -8.2460    3.1459    0.2920 H       1  UNL1        0.1183
     73 H          -5.8722    1.1082   -1.7357 H       1  UNL1        0.0646
     74 H          -6.6171    3.1401   -2.2695 H       1  UNL1        0.2100
     75 H          -3.6067    3.1402   -1.6621 H       1  UNL1        0.0637
     76 H          -3.3376    2.2845   -3.5876 H       1  UNL1        0.2100
     77 H          -2.1550    0.9232   -1.4218 H       1  UNL1        0.0535
     78 H          -1.6634    2.7537   -0.2330 H       1  UNL1        0.1187
     79 H          -1.9710    1.5606    0.9609 H       1  UNL1        0.1187
     80 H           1.6224   -1.4317   -1.9923 H       1  UNL1        0.0671
     81 H           2.4382   -1.9945    0.7253 H       1  UNL1        0.2101
     82 H           6.5090   -0.4505    0.3538 H       1  UNL1        0.0535
     83 H           5.4646   -2.0796    2.1329 H       1  UNL1        0.1187
     84 H           5.3176   -2.4036    0.4700 H       1  UNL1        0.1187
     85 H           5.0134    0.5889    2.8038 H       1  UNL1        0.0637
     86 H           7.6851   -0.3495    2.8637 H       1  UNL1        0.2100
     87 H           7.8048    1.2749    1.6976 H       1  UNL1        0.0646
     88 H           7.4049    2.4779    3.4698 H       1  UNL1        0.2100
@<TRIPOS>BOND
     1     1     2    1
     2     2     3    1
     3     3     4    1
     4     4     5    1
     5     5     6    1
     6     6     7    1
     7     7     8    1
     8     8     9    1
     9     9    10    1
    10     8    11    1
    11    11    12    1
    12    12    13    1
    13    13    14    1
    14    14    15    1
    15    15    16    1
    16    15    17    1
    17    17    18    1
    18    17    19    1
    19    19    20    1
    20    20    21    1
    21    20    22    1
    22    22    23    1
    23    23    24    1
    24    24    25    1
    25    25    26    1
    26    26    27    1
    27    27    28    1
    28    26    29    1
    29    29    30    1
    30    29    31    1
    31    31    32    1
    32    31    33    1
    33    33    34    1
    34    12    35    1
    35    35    36    1
    36     5    37    1
    37    37    38    1
    38    37    39    1
    39    39    40    1
    40    39    41    1
    41    41    42    1
    42    41     3    1
    43    35     7    1
    44    22    14    1
    45    33    24    1
    46     1    43    1
    47     1    44    1
    48     2    45    1
    49     2    46    1
    50     3    47    1
    51     5    48    1
    52     7    49    1
    53     8    50    1
    54     9    51    1
    55     9    52    1
    56    10    53    1
    57    12    54    1
    58    14    55    1
    59    15    56    1
    60    16    57    1
    61    17    58    1
    62    18    59    1
    63    18    60    1
    64    19    61    1
    65    19    62    1
    66    20    63    1
    67    21    64    1
    68    21    65    1
    69    22    66    1
    70    24    67    1
    71    26    68    1
    72    27    69    1
    73    27    70    1
    74    28    71    1
    75    28    72    1
    76    29    73    1
    77    30    74    1
    78    31    75    1
    79    32    76    1
    80    33    77    1
    81    34    78    1
    82    34    79    1
    83    35    80    1
    84    36    81    1
    85    37    82    1
    86    38    83    1
    87    38    84    1
    88    39    85    1
    89    40    86    1
    90    41    87    1
    91    42    88    1
