
     RDKit          3D

 88 91  0  0  0  0  0  0  0  0999 V2000
    7.7775    3.8861    0.6335 N   0  0  0  0  0  0  0  0  0  0  0  0
    6.3482    3.5416    0.5644 C   0  0  0  0  0  0  0  0  0  0  0  0
    6.1766    2.0371    0.5266 C   0  0  2  0  0  0  0  0  0  0  0  0
    4.8108    1.7843    0.4587 O   0  0  0  0  0  0  0  0  0  0  0  0
    4.5864    0.4174    0.0933 C   0  0  2  0  0  0  0  0  0  0  0  0
    3.2529    0.2466    0.2642 O   0  0  0  0  0  0  0  0  0  0  0  0
    2.4688    0.1501   -0.8289 C   0  0  2  0  0  0  0  0  0  0  0  0
    1.3064    1.1045   -0.8684 C   0  0  1  0  0  0  0  0  0  0  0  0
    1.0411    1.4167   -2.3265 C   0  0  0  0  0  0  0  0  0  0  0  0
   -0.0297    2.2631   -2.5179 O   0  0  0  0  0  0  0  0  0  0  0  0
    0.2659    0.4988   -0.2269 O   0  0  0  0  0  0  0  0  0  0  0  0
    0.4557   -0.8719   -0.2234 C   0  0  1  0  0  0  0  0  0  0  0  0
   -0.6591   -1.4973   -0.6498 O   0  0  0  0  0  0  0  0  0  0  0  0
   -1.3399   -2.3293    0.1466 C   0  0  2  0  0  0  0  0  0  0  0  0
   -1.4304   -3.6706   -0.5717 C   0  0  1  0  0  0  0  0  0  0  0  0
   -0.1552   -4.2552   -0.6744 O   0  0  0  0  0  0  0  0  0  0  0  0
   -2.3273   -4.6498    0.0868 C   0  0  2  0  0  0  0  0  0  0  0  0
   -2.6033   -5.7157   -0.8608 N   0  0  0  0  0  0  0  0  0  0  0  0
   -3.6637   -4.0922    0.4955 C   0  0  0  0  0  0  0  0  0  0  0  0
   -3.4682   -2.8066    1.2596 C   0  0  2  0  0  0  0  0  0  0  0  0
   -4.7607   -2.2695    1.5992 N   0  0  0  0  0  0  0  0  0  0  0  0
   -2.7585   -1.8528    0.2823 C   0  0  1  0  0  0  0  0  0  0  0  0
   -2.8851   -0.5506    0.7054 O   0  0  0  0  0  0  0  0  0  0  0  0
   -3.6805    0.1277   -0.2212 C   0  0  1  0  0  0  0  0  0  0  0  0
   -4.8577    0.4501    0.4514 O   0  0  0  0  0  0  0  0  0  0  0  0
   -5.3201    1.7212    0.2365 C   0  0  2  0  0  0  0  0  0  0  0  0
   -6.7327    1.8069    0.7724 C   0  0  0  0  0  0  0  0  0  0  0  0
   -7.2277    3.1653    0.5427 N   0  0  0  0  0  0  0  0  0  0  0  0
   -5.3544    1.9644   -1.2615 C   0  0  1  0  0  0  0  0  0  0  0  0
   -6.0662    3.1447   -1.4498 O   0  0  0  0  0  0  0  0  0  0  0  0
   -3.9061    2.0708   -1.6959 C   0  0  2  0  0  0  0  0  0  0  0  0
   -3.7697    1.5902   -2.9958 O   0  0  0  0  0  0  0  0  0  0  0  0
   -2.9717    1.3110   -0.7771 C   0  0  1  0  0  0  0  0  0  0  0  0
   -2.3814    2.1573    0.2219 N   0  0  0  0  0  0  0  0  0  0  0  0
    1.7333   -1.1639   -0.9273 C   0  0  2  0  0  0  0  0  0  0  0  0
    2.4658   -2.1485   -0.2731 O   0  0  0  0  0  0  0  0  0  0  0  0
    5.5266   -0.3734    0.9095 C   0  0  2  0  0  0  0  0  0  0  0  0
    5.1775   -1.7184    1.2173 N   0  0  0  0  0  0  0  0  0  0  0  0
    5.9022    0.3085    2.2179 C   0  0  1  0  0  0  0  0  0  0  0  0
    6.7432   -0.5816    2.9045 O   0  0  0  0  0  0  0  0  0  0  0  0
    6.7502    1.5106    1.8491 C   0  0  2  0  0  0  0  0  0  0  0  0
    6.6544    2.5212    2.8057 O   0  0  0  0  0  0  0  0  0  0  0  0
    7.8687    4.9108    0.7582 H   0  0  0  0  0  0  0  0  0  0  0  0
    8.2635    3.5926   -0.2479 H   0  0  0  0  0  0  0  0  0  0  0  0
    5.9055    4.0572   -0.2874 H   0  0  0  0  0  0  0  0  0  0  0  0
    5.9442    3.9121    1.5509 H   0  0  0  0  0  0  0  0  0  0  0  0
    6.7347    1.6703   -0.3415 H   0  0  0  0  0  0  0  0  0  0  0  0
    4.9360    0.4300   -0.9814 H   0  0  0  0  0  0  0  0  0  0  0  0
    3.1153    0.2333   -1.7317 H   0  0  0  0  0  0  0  0  0  0  0  0
    1.4877    2.0787   -0.3795 H   0  0  0  0  0  0  0  0  0  0  0  0
    0.8058    0.4912   -2.9270 H   0  0  0  0  0  0  0  0  0  0  0  0
    1.9753    1.8086   -2.7714 H   0  0  0  0  0  0  0  0  0  0  0  0
   -0.1990    2.2949   -3.4906 H   0  0  0  0  0  0  0  0  0  0  0  0
    0.6191   -1.1715    0.8331 H   0  0  0  0  0  0  0  0  0  0  0  0
   -0.9571   -2.4574    1.1783 H   0  0  0  0  0  0  0  0  0  0  0  0
   -1.8417   -3.4428   -1.5756 H   0  0  0  0  0  0  0  0  0  0  0  0
   -0.1995   -5.0382   -1.2438 H   0  0  0  0  0  0  0  0  0  0  0  0
   -1.8661   -5.1682    0.9724 H   0  0  0  0  0  0  0  0  0  0  0  0
   -1.9188   -6.4787   -0.8459 H   0  0  0  0  0  0  0  0  0  0  0  0
   -2.5833   -5.2908   -1.8153 H   0  0  0  0  0  0  0  0  0  0  0  0
   -4.1906   -4.8640    1.0898 H   0  0  0  0  0  0  0  0  0  0  0  0
   -4.2192   -3.8985   -0.4607 H   0  0  0  0  0  0  0  0  0  0  0  0
   -2.8430   -3.0170    2.1462 H   0  0  0  0  0  0  0  0  0  0  0  0
   -5.0051   -2.5508    2.5779 H   0  0  0  0  0  0  0  0  0  0  0  0
   -5.4824   -2.6696    0.9354 H   0  0  0  0  0  0  0  0  0  0  0  0
   -3.2749   -2.0602   -0.6996 H   0  0  0  0  0  0  0  0  0  0  0  0
   -3.9577   -0.5812   -1.0266 H   0  0  0  0  0  0  0  0  0  0  0  0
   -4.7192    2.4729    0.7698 H   0  0  0  0  0  0  0  0  0  0  0  0
   -6.8180    1.5449    1.8312 H   0  0  0  0  0  0  0  0  0  0  0  0
   -7.4015    1.1360    0.2110 H   0  0  0  0  0  0  0  0  0  0  0  0
   -7.0640    3.7183    1.4289 H   0  0  0  0  0  0  0  0  0  0  0  0
   -8.2460    3.1459    0.2920 H   0  0  0  0  0  0  0  0  0  0  0  0
   -5.8722    1.1082   -1.7357 H   0  0  0  0  0  0  0  0  0  0  0  0
   -6.6171    3.1401   -2.2695 H   0  0  0  0  0  0  0  0  0  0  0  0
   -3.6067    3.1402   -1.6621 H   0  0  0  0  0  0  0  0  0  0  0  0
   -3.3376    2.2845   -3.5876 H   0  0  0  0  0  0  0  0  0  0  0  0
   -2.1550    0.9232   -1.4218 H   0  0  0  0  0  0  0  0  0  0  0  0
   -1.6634    2.7537   -0.2330 H   0  0  0  0  0  0  0  0  0  0  0  0
   -1.9710    1.5606    0.9609 H   0  0  0  0  0  0  0  0  0  0  0  0
    1.6224   -1.4317   -1.9923 H   0  0  0  0  0  0  0  0  0  0  0  0
    2.4382   -1.9945    0.7253 H   0  0  0  0  0  0  0  0  0  0  0  0
    6.5090   -0.4505    0.3538 H   0  0  0  0  0  0  0  0  0  0  0  0
    5.4646   -2.0796    2.1329 H   0  0  0  0  0  0  0  0  0  0  0  0
    5.3176   -2.4036    0.4700 H   0  0  0  0  0  0  0  0  0  0  0  0
    5.0134    0.5889    2.8038 H   0  0  0  0  0  0  0  0  0  0  0  0
    7.6851   -0.3495    2.8637 H   0  0  0  0  0  0  0  0  0  0  0  0
    7.8048    1.2749    1.6976 H   0  0  0  0  0  0  0  0  0  0  0  0
    7.4049    2.4779    3.4698 H   0  0  0  0  0  0  0  0  0  0  0  0
  1  2  1  0
  2  3  1  0
  3  4  1  0
  4  5  1  0
  5  6  1  0
  6  7  1  0
  7  8  1  0
  8  9  1  0
  9 10  1  0
  8 11  1  0
 11 12  1  0
 12 13  1  0
 13 14  1  0
 14 15  1  0
 15 16  1  0
 15 17  1  0
 17 18  1  0
 17 19  1  0
 19 20  1  0
 20 21  1  0
 20 22  1  0
 22 23  1  0
 23 24  1  0
 24 25  1  0
 25 26  1  0
 26 27  1  0
 27 28  1  0
 26 29  1  0
 29 30  1  0
 29 31  1  0
 31 32  1  0
 31 33  1  0
 33 34  1  0
 12 35  1  0
 35 36  1  0
  5 37  1  0
 37 38  1  0
 37 39  1  0
 39 40  1  0
 39 41  1  0
 41 42  1  0
 41  3  1  0
 35  7  1  0
 22 14  1  0
 33 24  1  0
  1 43  1  0
  1 44  1  0
  2 45  1  0
  2 46  1  0
  3 47  1  6
  5 48  1  6
  7 49  1  6
  8 50  1  1
  9 51  1  0
  9 52  1  0
 10 53  1  0
 12 54  1  1
 14 55  1  1
 15 56  1  6
 16 57  1  0
 17 58  1  1
 18 59  1  0
 18 60  1  0
 19 61  1  0
 19 62  1  0
 20 63  1  1
 21 64  1  0
 21 65  1  0
 22 66  1  6
 24 67  1  6
 26 68  1  1
 27 69  1  0
 27 70  1  0
 28 71  1  0
 28 72  1  0
 29 73  1  6
 30 74  1  0
 31 75  1  6
 32 76  1  0
 33 77  1  6
 34 78  1  0
 34 79  1  0
 35 80  1  6
 36 81  1  0
 37 82  1  6
 38 83  1  0
 38 84  1  0
 39 85  1  1
 40 86  1  0
 41 87  1  6
 42 88  1  0
M  END
$$$$
