
     RDKit          3D

 55 60  0  0  0  0  0  0  0  0999 V2000
   -1.4252    0.2601    2.5861 O   0  0  0  0  0  0  0  0  0  0  0  0
   -1.3593    0.0447    1.3280 C   0  0  0  0  0  0  0  0  0  0  0  0
   -0.0808   -0.2748    0.8219 N   0  0  0  0  0  0  0  0  0  0  0  0
    0.4287   -0.5858   -0.4906 C   0  0  0  0  0  0  0  0  0  0  0  0
    1.8096    0.0423   -0.5271 C   0  0  2  0  0  0  0  0  0  0  0  0
    2.8646   -0.9375   -1.0258 C   0  0  0  0  0  0  0  0  0  0  0  0
    3.9730   -0.5972   -0.1745 N   0  0  0  0  0  0  0  0  0  0  0  0
    5.3217   -0.3854   -0.5140 C   0  0  0  0  0  0  0  0  0  0  0  0
    5.7587   -0.4957   -1.8164 C   0  0  0  0  0  0  0  0  0  0  0  0
    7.0992   -0.2847   -2.1513 C   0  0  0  0  0  0  0  0  0  0  0  0
    7.9979    0.0379   -1.1689 C   0  0  0  0  0  0  0  0  0  0  0  0
    7.5417    0.1431    0.1245 C   0  0  0  0  0  0  0  0  0  0  0  0
    6.2437   -0.0668    0.4116 N   0  0  0  0  0  0  0  0  0  0  0  0
    3.4323   -0.5068    1.1577 C   0  0  0  0  0  0  0  0  0  0  0  0
    2.1570    0.2750    0.9181 C   0  0  2  0  0  0  0  0  0  0  0  0
    1.0813   -0.3541    1.7361 C   0  0  0  0  0  0  0  0  0  0  0  0
   -2.6110    0.1527    0.5696 C   0  0  0  0  0  0  0  0  0  0  0  0
   -2.9495   -1.0408   -0.2697 C   0  0  0  0  0  0  0  0  0  0  0  0
   -4.2812   -0.7954   -0.9500 C   0  0  0  0  0  0  0  0  0  0  0  0
   -4.2611    0.4483   -1.7918 C   0  0  0  0  0  0  0  0  0  0  0  0
   -3.9481    1.6131   -0.9112 C   0  0  0  0  0  0  0  0  0  0  0  0
   -4.9596    1.7927    0.1823 C   0  0  0  0  0  0  0  0  0  0  0  0
   -5.0577    0.4994    0.9661 C   0  0  0  0  0  0  0  0  0  0  0  0
   -5.4002   -0.6587    0.0626 C   0  0  0  0  0  0  0  0  0  0  0  0
   -3.7385    0.2151    1.6244 C   0  0  0  0  0  0  0  0  0  0  0  0
   -2.6013    1.3996   -0.2476 C   0  0  0  0  0  0  0  0  0  0  0  0
    0.4840   -1.6901   -0.6246 H   0  0  0  0  0  0  0  0  0  0  0  0
   -0.1860   -0.1963   -1.3106 H   0  0  0  0  0  0  0  0  0  0  0  0
    1.8154    0.9601   -1.1410 H   0  0  0  0  0  0  0  0  0  0  0  0
    3.0491   -0.8444   -2.0940 H   0  0  0  0  0  0  0  0  0  0  0  0
    2.5725   -1.9893   -0.7553 H   0  0  0  0  0  0  0  0  0  0  0  0
    5.0257   -0.7515   -2.5680 H   0  0  0  0  0  0  0  0  0  0  0  0
    7.3923   -0.3827   -3.1850 H   0  0  0  0  0  0  0  0  0  0  0  0
    9.0426    0.2084   -1.3895 H   0  0  0  0  0  0  0  0  0  0  0  0
    8.1883    0.3942    0.9583 H   0  0  0  0  0  0  0  0  0  0  0  0
    3.1982   -1.5147    1.5509 H   0  0  0  0  0  0  0  0  0  0  0  0
    4.1005    0.0404    1.8528 H   0  0  0  0  0  0  0  0  0  0  0  0
    2.2922    1.3578    1.1185 H   0  0  0  0  0  0  0  0  0  0  0  0
    1.2443   -1.4124    1.9452 H   0  0  0  0  0  0  0  0  0  0  0  0
    0.9324    0.2247    2.6495 H   0  0  0  0  0  0  0  0  0  0  0  0
   -3.1054   -1.9199    0.4074 H   0  0  0  0  0  0  0  0  0  0  0  0
   -2.2309   -1.2612   -1.0477 H   0  0  0  0  0  0  0  0  0  0  0  0
   -4.5007   -1.6736   -1.6004 H   0  0  0  0  0  0  0  0  0  0  0  0
   -3.5385    0.3933   -2.6166 H   0  0  0  0  0  0  0  0  0  0  0  0
   -5.2892    0.5918   -2.1896 H   0  0  0  0  0  0  0  0  0  0  0  0
   -3.8581    2.5141   -1.5346 H   0  0  0  0  0  0  0  0  0  0  0  0
   -5.9251    2.0972   -0.2296 H   0  0  0  0  0  0  0  0  0  0  0  0
   -4.5735    2.5740    0.8758 H   0  0  0  0  0  0  0  0  0  0  0  0
   -5.8324    0.6442    1.7473 H   0  0  0  0  0  0  0  0  0  0  0  0
   -5.4646   -1.5642    0.7064 H   0  0  0  0  0  0  0  0  0  0  0  0
   -6.3220   -0.4677   -0.4899 H   0  0  0  0  0  0  0  0  0  0  0  0
   -3.4987    0.9356    2.4142 H   0  0  0  0  0  0  0  0  0  0  0  0
   -3.7890   -0.8093    2.0575 H   0  0  0  0  0  0  0  0  0  0  0  0
   -2.4120    2.2694    0.4267 H   0  0  0  0  0  0  0  0  0  0  0  0
   -1.8474    1.3319   -1.0376 H   0  0  0  0  0  0  0  0  0  0  0  0
  1  2  2  0
  2  3  1  0
  3  4  1  0
  4  5  1  0
  5  6  1  0
  6  7  1  0
  7  8  1  0
  8  9  2  0
  9 10  1  0
 10 11  2  0
 11 12  1  0
 12 13  2  0
  7 14  1  0
 14 15  1  0
 15 16  1  0
  2 17  1  0
 17 18  1  0
 18 19  1  0
 19 20  1  0
 20 21  1  0
 21 22  1  0
 22 23  1  0
 23 24  1  0
 23 25  1  0
 21 26  1  0
 16  3  1  0
 25 17  1  0
 15  5  1  0
 26 17  1  0
 13  8  1  0
 24 19  1  0
  4 27  1  0
  4 28  1  0
  5 29  1  6
  6 30  1  0
  6 31  1  0
  9 32  1  0
 10 33  1  0
 11 34  1  0
 12 35  1  0
 14 36  1  0
 14 37  1  0
 15 38  1  6
 16 39  1  0
 16 40  1  0
 18 41  1  0
 18 42  1  0
 19 43  1  0
 20 44  1  0
 20 45  1  0
 21 46  1  0
 22 47  1  0
 22 48  1  0
 23 49  1  0
 24 50  1  0
 24 51  1  0
 25 52  1  0
 25 53  1  0
 26 54  1  0
 26 55  1  0
M  END
$$$$
