@<TRIPOS>MOLECULE
*****
 55 60 0 0 0
SMALL
GASTEIGER

@<TRIPOS>ATOM
      1 O          -1.4252    0.2601    2.5861 O.2     1  UNL1       -0.2750
      2 C          -1.3593    0.0447    1.3280 C.2     1  UNL1        0.2218
      3 N          -0.0808   -0.2748    0.8219 N.am    1  UNL1       -0.3004
      4 C           0.4287   -0.5858   -0.4906 C.3     1  UNL1        0.0193
      5 C           1.8096    0.0423   -0.5271 C.3     1  UNL1       -0.0038
      6 C           2.8646   -0.9375   -1.0258 C.3     1  UNL1        0.0181
      7 N           3.9730   -0.5972   -0.1745 N.pl3   1  UNL1       -0.3145
      8 C           5.3217   -0.3854   -0.5140 C.ar    1  UNL1        0.1212
      9 C           5.7587   -0.4957   -1.8164 C.ar    1  UNL1       -0.0217
     10 C           7.0992   -0.2847   -2.1513 C.ar    1  UNL1       -0.0571
     11 C           7.9979    0.0379   -1.1689 C.ar    1  UNL1       -0.0435
     12 C           7.5417    0.1431    0.1245 C.ar    1  UNL1        0.0297
     13 N           6.2437   -0.0668    0.4116 N.ar    1  UNL1       -0.2403
     14 C           3.4323   -0.5068    1.1577 C.3     1  UNL1        0.0181
     15 C           2.1570    0.2750    0.9181 C.3     1  UNL1       -0.0038
     16 C           1.0813   -0.3541    1.7361 C.3     1  UNL1        0.0193
     17 C          -2.6110    0.1527    0.5696 C.3     1  UNL1        0.0479
     18 C          -2.9495   -1.0408   -0.2697 C.3     1  UNL1       -0.0362
     19 C          -4.2812   -0.7954   -0.9500 C.3     1  UNL1       -0.0396
     20 C          -4.2611    0.4483   -1.7918 C.3     1  UNL1       -0.0473
     21 C          -3.9481    1.6131   -0.9112 C.3     1  UNL1       -0.0396
     22 C          -4.9596    1.7927    0.1823 C.3     1  UNL1       -0.0473
     23 C          -5.0577    0.4994    0.9661 C.3     1  UNL1       -0.0396
     24 C          -5.4002   -0.6587    0.0626 C.3     1  UNL1       -0.0473
     25 C          -3.7385    0.2151    1.6244 C.3     1  UNL1       -0.0362
     26 C          -2.6013    1.3996   -0.2476 C.3     1  UNL1       -0.0362
     27 H           0.4840   -1.6901   -0.6246 H       1  UNL1        0.0468
     28 H          -0.1860   -0.1963   -1.3106 H       1  UNL1        0.0468
     29 H           1.8154    0.9601   -1.1410 H       1  UNL1        0.0335
     30 H           3.0491   -0.8444   -2.0940 H       1  UNL1        0.0467
     31 H           2.5725   -1.9893   -0.7553 H       1  UNL1        0.0467
     32 H           5.0257   -0.7515   -2.5680 H       1  UNL1        0.0652
     33 H           7.3923   -0.3827   -3.1850 H       1  UNL1        0.0619
     34 H           9.0426    0.2084   -1.3895 H       1  UNL1        0.0633
     35 H           8.1883    0.3942    0.9583 H       1  UNL1        0.0830
     36 H           3.1982   -1.5147    1.5509 H       1  UNL1        0.0467
     37 H           4.1005    0.0404    1.8528 H       1  UNL1        0.0467
     38 H           2.2922    1.3578    1.1185 H       1  UNL1        0.0335
     39 H           1.2443   -1.4124    1.9452 H       1  UNL1        0.0468
     40 H           0.9324    0.2247    2.6495 H       1  UNL1        0.0468
     41 H          -3.1054   -1.9199    0.4074 H       1  UNL1        0.0278
     42 H          -2.2309   -1.2612   -1.0477 H       1  UNL1        0.0278
     43 H          -4.5007   -1.6736   -1.6004 H       1  UNL1        0.0301
     44 H          -3.5385    0.3933   -2.6166 H       1  UNL1        0.0271
     45 H          -5.2892    0.5918   -2.1896 H       1  UNL1        0.0271
     46 H          -3.8581    2.5141   -1.5346 H       1  UNL1        0.0301
     47 H          -5.9251    2.0972   -0.2296 H       1  UNL1        0.0271
     48 H          -4.5735    2.5740    0.8758 H       1  UNL1        0.0271
     49 H          -5.8324    0.6442    1.7473 H       1  UNL1        0.0301
     50 H          -5.4646   -1.5642    0.7064 H       1  UNL1        0.0271
     51 H          -6.3220   -0.4677   -0.4899 H       1  UNL1        0.0271
     52 H          -3.4987    0.9356    2.4142 H       1  UNL1        0.0278
     53 H          -3.7890   -0.8093    2.0575 H       1  UNL1        0.0278
     54 H          -2.4120    2.2694    0.4267 H       1  UNL1        0.0278
     55 H          -1.8474    1.3319   -1.0376 H       1  UNL1        0.0278
@<TRIPOS>BOND
     1     1     2    2
     2     2     3   am
     3     3     4    1
     4     4     5    1
     5     5     6    1
     6     6     7    1
     7     7     8    1
     8     8     9   ar
     9     9    10   ar
    10    10    11   ar
    11    11    12   ar
    12    12    13   ar
    13     7    14    1
    14    14    15    1
    15    15    16    1
    16     2    17    1
    17    17    18    1
    18    18    19    1
    19    19    20    1
    20    20    21    1
    21    21    22    1
    22    22    23    1
    23    23    24    1
    24    23    25    1
    25    21    26    1
    26    16     3    1
    27    25    17    1
    28    15     5    1
    29    26    17    1
    30    13     8   ar
    31    24    19    1
    32     4    27    1
    33     4    28    1
    34     5    29    1
    35     6    30    1
    36     6    31    1
    37     9    32    1
    38    10    33    1
    39    11    34    1
    40    12    35    1
    41    14    36    1
    42    14    37    1
    43    15    38    1
    44    16    39    1
    45    16    40    1
    46    18    41    1
    47    18    42    1
    48    19    43    1
    49    20    44    1
    50    20    45    1
    51    21    46    1
    52    22    47    1
    53    22    48    1
    54    23    49    1
    55    24    50    1
    56    24    51    1
    57    25    52    1
    58    25    53    1
    59    26    54    1
    60    26    55    1
