
     RDKit          3D

 48 51  0  0  0  0  0  0  0  0999 V2000
   -6.6945   -1.1668   -0.6171 C   0  0  0  0  0  0  0  0  0  0  0  0
   -5.7373   -0.1424   -1.1384 C   0  0  0  0  0  0  0  0  0  0  0  0
   -6.4278    0.6551   -2.2429 C   0  0  0  0  0  0  0  0  0  0  0  0
   -4.5811   -0.8136   -1.6202 O   0  0  0  0  0  0  0  0  0  0  0  0
   -3.2919   -0.4344   -1.2859 C   0  0  0  0  0  0  0  0  0  0  0  0
   -2.8832    0.6218   -0.4661 C   0  0  0  0  0  0  0  0  0  0  0  0
   -1.4850    0.6272   -0.4144 C   0  0  0  0  0  0  0  0  0  0  0  0
   -0.6616    1.5409    0.2942 N   0  0  0  0  0  0  0  0  0  0  0  0
   -0.7554    2.8802    0.3675 C   0  0  0  0  0  0  0  0  0  0  0  0
    0.2332    3.3691    1.1348 N   0  0  0  0  0  0  0  0  0  0  0  0
    0.9664    2.3227    1.5560 C   0  0  0  0  0  0  0  0  0  0  0  0
    2.0792    2.2599    2.3470 C   0  0  0  0  0  0  0  0  0  0  0  0
    2.6319    1.0370    2.6116 C   0  0  0  0  0  0  0  0  0  0  0  0
    2.0443   -0.1161    2.0655 C   0  0  0  0  0  0  0  0  0  0  0  0
    2.6377   -1.3698    2.3314 N   0  0  0  0  0  0  0  0  0  0  0  0
    3.3425   -2.1077    1.2918 C   0  0  1  0  0  0  0  0  0  0  0  0
    2.3531   -2.5929    0.2168 C   0  0  0  0  0  0  0  0  0  0  0  0
    4.1950   -1.0891    0.5846 C   0  0  0  0  0  0  0  0  0  0  0  0
    5.5172   -1.2891    0.2970 C   0  0  0  0  0  0  0  0  0  0  0  0
    6.2152   -0.2780   -0.3712 C   0  0  0  0  0  0  0  0  0  0  0  0
    5.5764    0.8890   -0.7273 C   0  0  0  0  0  0  0  0  0  0  0  0
    6.2009    1.9055   -1.3767 F   0  0  0  0  0  0  0  0  0  0  0  0
    4.2411    1.0485   -0.4175 C   0  0  0  0  0  0  0  0  0  0  0  0
    3.6201    0.0458    0.2245 N   0  0  0  0  0  0  0  0  0  0  0  0
    0.9656   -0.0238    1.3025 N   0  0  0  0  0  0  0  0  0  0  0  0
    0.4102    1.1903    1.0346 C   0  0  0  0  0  0  0  0  0  0  0  0
   -1.1193   -0.4082   -1.1907 N   0  0  0  0  0  0  0  0  0  0  0  0
   -2.1552   -1.0206   -1.6931 N   0  0  0  0  0  0  0  0  0  0  0  0
   -6.2103   -2.1676   -0.4788 H   0  0  0  0  0  0  0  0  0  0  0  0
   -7.0880   -0.8018    0.3730 H   0  0  0  0  0  0  0  0  0  0  0  0
   -7.5785   -1.3415   -1.2530 H   0  0  0  0  0  0  0  0  0  0  0  0
   -5.4168    0.6203   -0.3983 H   0  0  0  0  0  0  0  0  0  0  0  0
   -6.8171    1.6378   -1.8531 H   0  0  0  0  0  0  0  0  0  0  0  0
   -5.7591    0.8441   -3.0922 H   0  0  0  0  0  0  0  0  0  0  0  0
   -7.3419    0.1370   -2.6233 H   0  0  0  0  0  0  0  0  0  0  0  0
   -3.5311    1.2996    0.0314 H   0  0  0  0  0  0  0  0  0  0  0  0
   -1.4981    3.5067   -0.1049 H   0  0  0  0  0  0  0  0  0  0  0  0
    2.4745    3.1949    2.7324 H   0  0  0  0  0  0  0  0  0  0  0  0
    3.5006    0.9978    3.2291 H   0  0  0  0  0  0  0  0  0  0  0  0
    2.5965   -1.8168    3.2792 H   0  0  0  0  0  0  0  0  0  0  0  0
    3.9161   -2.9300    1.7159 H   0  0  0  0  0  0  0  0  0  0  0  0
    1.6909   -1.7833   -0.1036 H   0  0  0  0  0  0  0  0  0  0  0  0
    1.8433   -3.5075    0.5778 H   0  0  0  0  0  0  0  0  0  0  0  0
    2.9795   -2.8604   -0.6639 H   0  0  0  0  0  0  0  0  0  0  0  0
    6.0105   -2.2114    0.5794 H   0  0  0  0  0  0  0  0  0  0  0  0
    7.2558   -0.4092   -0.6078 H   0  0  0  0  0  0  0  0  0  0  0  0
    3.6635    1.9181   -0.6558 H   0  0  0  0  0  0  0  0  0  0  0  0
   -2.1281   -1.8674   -2.3370 H   0  0  0  0  0  0  0  0  0  0  0  0
  1  2  1  0
  2  3  1  0
  2  4  1  0
  4  5  1  0
  5  6  2  0
  6  7  1  0
  7  8  1  0
  8  9  1  0
  9 10  2  0
 10 11  1  0
 11 12  2  0
 12 13  1  0
 13 14  2  0
 14 15  1  0
 15 16  1  0
 16 17  1  0
 16 18  1  0
 18 19  2  0
 19 20  1  0
 20 21  2  0
 21 22  1  0
 21 23  1  0
 23 24  2  0
 14 25  1  0
 25 26  2  0
  7 27  2  0
 27 28  1  0
 28  5  1  0
 26  8  1  0
 26 11  1  0
 24 18  1  0
  1 29  1  0
  1 30  1  0
  1 31  1  0
  2 32  1  0
  3 33  1  0
  3 34  1  0
  3 35  1  0
  6 36  1  0
  9 37  1  0
 12 38  1  0
 13 39  1  0
 15 40  1  0
 16 41  1  1
 17 42  1  0
 17 43  1  0
 17 44  1  0
 19 45  1  0
 20 46  1  0
 23 47  1  0
 28 48  1  0
M  END
$$$$
