@<TRIPOS>MOLECULE
*****
 48 51 0 0 0
SMALL
GASTEIGER

@<TRIPOS>ATOM
      1 C          -6.6945   -1.1668   -0.6171 C.3     1  UNL1       -0.0280
      2 C          -5.7373   -0.1424   -1.1384 C.3     1  UNL1        0.0962
      3 C          -6.4278    0.6551   -2.2429 C.3     1  UNL1       -0.0280
      4 O          -4.5811   -0.8136   -1.6202 O.3     1  UNL1       -0.4739
      5 C          -3.2919   -0.4344   -1.2859 C.ar    1  UNL1        0.2128
      6 C          -2.8832    0.6218   -0.4661 C.ar    1  UNL1        0.0440
      7 C          -1.4850    0.6272   -0.4144 C.ar    1  UNL1        0.1654
      8 N          -0.6616    1.5409    0.2942 N.ar    1  UNL1       -0.2657
      9 C          -0.7554    2.8802    0.3675 C.ar    1  UNL1        0.1040
     10 N           0.2332    3.3691    1.1348 N.ar    1  UNL1       -0.2337
     11 C           0.9664    2.3227    1.5560 C.ar    1  UNL1        0.1084
     12 C           2.0792    2.2599    2.3470 C.ar    1  UNL1       -0.0294
     13 C           2.6319    1.0370    2.6116 C.ar    1  UNL1       -0.0197
     14 C           2.0443   -0.1161    2.0655 C.ar    1  UNL1        0.1217
     15 N           2.6377   -1.3698    2.3314 N.pl3   1  UNL1       -0.3210
     16 C           3.3425   -2.1077    1.2918 C.3     1  UNL1        0.0614
     17 C           2.3531   -2.5929    0.2168 C.3     1  UNL1       -0.0410
     18 C           4.1950   -1.0891    0.5846 C.ar    1  UNL1        0.0613
     19 C           5.5172   -1.2891    0.2970 C.ar    1  UNL1       -0.0359
     20 C           6.2152   -0.2780   -0.3712 C.ar    1  UNL1       -0.0232
     21 C           5.5764    0.8890   -0.7273 C.ar    1  UNL1        0.1414
     22 F           6.2009    1.9055   -1.3767 F       1  UNL1       -0.2039
     23 C           4.2411    1.0485   -0.4175 C.ar    1  UNL1        0.0631
     24 N           3.6201    0.0458    0.2245 N.ar    1  UNL1       -0.2552
     25 N           0.9656   -0.0238    1.3025 N.ar    1  UNL1       -0.2125
     26 C           0.4102    1.1903    1.0346 C.ar    1  UNL1        0.1679
     27 N          -1.1193   -0.4082   -1.1907 N.ar    1  UNL1       -0.1526
     28 N          -2.1552   -1.0206   -1.6931 N.ar    1  UNL1       -0.2449
     29 H          -6.2103   -2.1676   -0.4788 H       1  UNL1        0.0265
     30 H          -7.0880   -0.8018    0.3730 H       1  UNL1        0.0265
     31 H          -7.5785   -1.3415   -1.2530 H       1  UNL1        0.0265
     32 H          -5.4168    0.6203   -0.3983 H       1  UNL1        0.0728
     33 H          -6.8171    1.6378   -1.8531 H       1  UNL1        0.0265
     34 H          -5.7591    0.8441   -3.0922 H       1  UNL1        0.0265
     35 H          -7.3419    0.1370   -2.6233 H       1  UNL1        0.0265
     36 H          -3.5311    1.2996    0.0314 H       1  UNL1        0.0708
     37 H          -1.4981    3.5067   -0.1049 H       1  UNL1        0.1033
     38 H           2.4745    3.1949    2.7324 H       1  UNL1        0.0641
     39 H           3.5006    0.9978    3.2291 H       1  UNL1        0.0652
     40 H           2.5965   -1.8168    3.2792 H       1  UNL1        0.1481
     41 H           3.9161   -2.9300    1.7159 H       1  UNL1        0.0560
     42 H           1.6909   -1.7833   -0.1036 H       1  UNL1        0.0251
     43 H           1.8433   -3.5075    0.5778 H       1  UNL1        0.0251
     44 H           2.9795   -2.8604   -0.6639 H       1  UNL1        0.0251
     45 H           6.0105   -2.2114    0.5794 H       1  UNL1        0.0637
     46 H           7.2558   -0.4092   -0.6078 H       1  UNL1        0.0647
     47 H           3.6635    1.9181   -0.6558 H       1  UNL1        0.0859
     48 H          -2.1281   -1.8674   -2.3370 H       1  UNL1        0.1920
@<TRIPOS>BOND
     1     1     2    1
     2     2     3    1
     3     2     4    1
     4     4     5    1
     5     5     6   ar
     6     6     7   ar
     7     7     8    1
     8     8     9   ar
     9     9    10   ar
    10    10    11   ar
    11    11    12   ar
    12    12    13   ar
    13    13    14   ar
    14    14    15    1
    15    15    16    1
    16    16    17    1
    17    16    18    1
    18    18    19   ar
    19    19    20   ar
    20    20    21   ar
    21    21    22    1
    22    21    23   ar
    23    23    24   ar
    24    14    25   ar
    25    25    26   ar
    26     7    27   ar
    27    27    28   ar
    28    28     5   ar
    29    26     8   ar
    30    26    11   ar
    31    24    18   ar
    32     1    29    1
    33     1    30    1
    34     1    31    1
    35     2    32    1
    36     3    33    1
    37     3    34    1
    38     3    35    1
    39     6    36    1
    40     9    37    1
    41    12    38    1
    42    13    39    1
    43    15    40    1
    44    16    41    1
    45    17    42    1
    46    17    43    1
    47    17    44    1
    48    19    45    1
    49    20    46    1
    50    23    47    1
    51    28    48    1
