@<TRIPOS>MOLECULE
*****
 47 50 0 0 0
SMALL
GASTEIGER

@<TRIPOS>ATOM
      1 O           1.5373   -0.1870    0.8960 O.2     1  UNL1       -0.2755
      2 C           2.1026   -0.9989    0.1485 C.2     1  UNL1        0.2175
      3 C           1.3715   -2.2410   -0.2586 C.3     1  UNL1        0.0284
      4 C          -0.0229   -2.2681    0.2615 C.3     1  UNL1       -0.0162
      5 C          -0.8405   -1.1425   -0.2298 C.ar    1  UNL1       -0.0059
      6 C          -0.4806   -0.1419   -1.1046 C.ar    1  UNL1        0.0532
      7 N          -1.5779    0.6317   -1.2324 N.ar    1  UNL1       -0.1743
      8 N          -2.5542    0.1371   -0.4816 N.ar    1  UNL1       -0.2362
      9 C          -2.1761   -0.9577    0.1671 C.ar    1  UNL1        0.0484
     10 C          -3.0640   -1.7106    1.0540 C.3     1  UNL1       -0.0060
     11 C          -4.3979   -1.1726    1.2869 C.3     1  UNL1       -0.0201
     12 C          -4.7551    0.0120    0.5178 C.ar    1  UNL1       -0.0182
     13 C          -6.0574    0.5060    0.6684 C.ar    1  UNL1       -0.0150
     14 C          -6.4479    1.6320   -0.0217 C.ar    1  UNL1        0.1172
     15 O          -7.7535    2.1225    0.1325 O.3     1  UNL1       -0.5068
     16 C          -5.5739    2.2810   -0.8599 C.ar    1  UNL1       -0.0182
     17 C          -4.2775    1.7847   -1.0068 C.ar    1  UNL1       -0.0325
     18 C          -3.8844    0.6530   -0.3138 C.ar    1  UNL1        0.0690
     19 N           3.4229   -0.7376   -0.3052 N.am    1  UNL1       -0.2848
     20 C           4.2143    0.3913   -0.0019 C.ar    1  UNL1        0.0474
     21 C           3.7357    1.5046    0.6551 C.ar    1  UNL1       -0.0397
     22 C           4.5466    2.6095    0.9558 C.ar    1  UNL1       -0.0600
     23 C           5.8611    2.6127    0.5975 C.ar    1  UNL1       -0.0609
     24 C           6.3510    1.5290   -0.0487 C.ar    1  UNL1       -0.0460
     25 C           5.5519    0.4174   -0.3549 C.ar    1  UNL1        0.0800
     26 C           6.2310   -0.6671   -1.0239 C.2     1  UNL1        0.3386
     27 O           5.7423   -1.7598   -1.3594 O.2     1  UNL1       -0.2451
     28 O           7.6067   -0.5337   -1.3636 O.3     1  UNL1       -0.4771
     29 H           1.8909   -3.1496    0.0566 H       1  UNL1        0.0362
     30 H           1.3275   -2.2347   -1.3658 H       1  UNL1        0.0362
     31 H          -0.0588   -2.3165    1.3771 H       1  UNL1        0.0319
     32 H          -0.4928   -3.2031   -0.1116 H       1  UNL1        0.0319
     33 H           0.4620    0.0220   -1.6034 H       1  UNL1        0.0851
     34 H          -2.5370   -1.9153    2.0414 H       1  UNL1        0.0331
     35 H          -3.2023   -2.7755    0.6408 H       1  UNL1        0.0331
     36 H          -4.5113   -0.9012    2.3976 H       1  UNL1        0.0317
     37 H          -5.1896   -1.9797    1.1976 H       1  UNL1        0.0317
     38 H          -6.7793    0.0257    1.3185 H       1  UNL1        0.0657
     39 H          -8.4962    1.4684   -0.0547 H       1  UNL1        0.2921
     40 H          -5.9044    3.1719   -1.3964 H       1  UNL1        0.0655
     41 H          -3.5782    2.2969   -1.6719 H       1  UNL1        0.0640
     42 H           3.7889   -1.5044   -0.9513 H       1  UNL1        0.1548
     43 H           2.6911    1.5449    0.9478 H       1  UNL1        0.0636
     44 H           4.1349    3.4544    1.4684 H       1  UNL1        0.0618
     45 H           6.5306    3.4529    0.8113 H       1  UNL1        0.0618
     46 H           7.4132    1.5382   -0.3352 H       1  UNL1        0.0626
     47 H           8.1001   -1.3013   -1.7978 H       1  UNL1        0.2954
@<TRIPOS>BOND
     1     1     2    2
     2     2     3    1
     3     3     4    1
     4     4     5    1
     5     5     6   ar
     6     6     7   ar
     7     7     8   ar
     8     8     9   ar
     9     9    10    1
    10    10    11    1
    11    11    12    1
    12    12    13   ar
    13    13    14   ar
    14    14    15    1
    15    14    16   ar
    16    16    17   ar
    17    17    18   ar
    18     2    19   am
    19    19    20    1
    20    20    21   ar
    21    21    22   ar
    22    22    23   ar
    23    23    24   ar
    24    24    25   ar
    25    25    26    1
    26    26    27    2
    27    26    28    1
    28     9     5   ar
    29    18    12   ar
    30    25    20   ar
    31    18     8    1
    32     3    29    1
    33     3    30    1
    34     4    31    1
    35     4    32    1
    36     6    33    1
    37    10    34    1
    38    10    35    1
    39    11    36    1
    40    11    37    1
    41    13    38    1
    42    15    39    1
    43    16    40    1
    44    17    41    1
    45    19    42    1
    46    21    43    1
    47    22    44    1
    48    23    45    1
    49    24    46    1
    50    28    47    1
