
     RDKit          3D

 47 50  0  0  0  0  0  0  0  0999 V2000
    1.5373   -0.1870    0.8960 O   0  0  0  0  0  0  0  0  0  0  0  0
    2.1026   -0.9989    0.1485 C   0  0  0  0  0  0  0  0  0  0  0  0
    1.3715   -2.2410   -0.2586 C   0  0  0  0  0  0  0  0  0  0  0  0
   -0.0229   -2.2681    0.2615 C   0  0  0  0  0  0  0  0  0  0  0  0
   -0.8405   -1.1425   -0.2298 C   0  0  0  0  0  0  0  0  0  0  0  0
   -0.4806   -0.1419   -1.1046 C   0  0  0  0  0  0  0  0  0  0  0  0
   -1.5779    0.6317   -1.2324 N   0  0  0  0  0  0  0  0  0  0  0  0
   -2.5542    0.1371   -0.4816 N   0  0  0  0  0  0  0  0  0  0  0  0
   -2.1761   -0.9577    0.1671 C   0  0  0  0  0  0  0  0  0  0  0  0
   -3.0640   -1.7106    1.0540 C   0  0  0  0  0  0  0  0  0  0  0  0
   -4.3979   -1.1726    1.2869 C   0  0  0  0  0  0  0  0  0  0  0  0
   -4.7551    0.0120    0.5178 C   0  0  0  0  0  0  0  0  0  0  0  0
   -6.0574    0.5060    0.6684 C   0  0  0  0  0  0  0  0  0  0  0  0
   -6.4479    1.6320   -0.0217 C   0  0  0  0  0  0  0  0  0  0  0  0
   -7.7535    2.1225    0.1325 O   0  0  0  0  0  0  0  0  0  0  0  0
   -5.5739    2.2810   -0.8599 C   0  0  0  0  0  0  0  0  0  0  0  0
   -4.2775    1.7847   -1.0068 C   0  0  0  0  0  0  0  0  0  0  0  0
   -3.8844    0.6530   -0.3138 C   0  0  0  0  0  0  0  0  0  0  0  0
    3.4229   -0.7376   -0.3052 N   0  0  0  0  0  0  0  0  0  0  0  0
    4.2143    0.3913   -0.0019 C   0  0  0  0  0  0  0  0  0  0  0  0
    3.7357    1.5046    0.6551 C   0  0  0  0  0  0  0  0  0  0  0  0
    4.5466    2.6095    0.9558 C   0  0  0  0  0  0  0  0  0  0  0  0
    5.8611    2.6127    0.5975 C   0  0  0  0  0  0  0  0  0  0  0  0
    6.3510    1.5290   -0.0487 C   0  0  0  0  0  0  0  0  0  0  0  0
    5.5519    0.4174   -0.3549 C   0  0  0  0  0  0  0  0  0  0  0  0
    6.2310   -0.6671   -1.0239 C   0  0  0  0  0  0  0  0  0  0  0  0
    5.7423   -1.7598   -1.3594 O   0  0  0  0  0  0  0  0  0  0  0  0
    7.6067   -0.5337   -1.3636 O   0  0  0  0  0  0  0  0  0  0  0  0
    1.8909   -3.1496    0.0566 H   0  0  0  0  0  0  0  0  0  0  0  0
    1.3275   -2.2347   -1.3658 H   0  0  0  0  0  0  0  0  0  0  0  0
   -0.0588   -2.3165    1.3771 H   0  0  0  0  0  0  0  0  0  0  0  0
   -0.4928   -3.2031   -0.1116 H   0  0  0  0  0  0  0  0  0  0  0  0
    0.4620    0.0220   -1.6034 H   0  0  0  0  0  0  0  0  0  0  0  0
   -2.5370   -1.9153    2.0414 H   0  0  0  0  0  0  0  0  0  0  0  0
   -3.2023   -2.7755    0.6408 H   0  0  0  0  0  0  0  0  0  0  0  0
   -4.5113   -0.9012    2.3976 H   0  0  0  0  0  0  0  0  0  0  0  0
   -5.1896   -1.9797    1.1976 H   0  0  0  0  0  0  0  0  0  0  0  0
   -6.7793    0.0257    1.3185 H   0  0  0  0  0  0  0  0  0  0  0  0
   -8.4962    1.4684   -0.0547 H   0  0  0  0  0  0  0  0  0  0  0  0
   -5.9044    3.1719   -1.3964 H   0  0  0  0  0  0  0  0  0  0  0  0
   -3.5782    2.2969   -1.6719 H   0  0  0  0  0  0  0  0  0  0  0  0
    3.7889   -1.5044   -0.9513 H   0  0  0  0  0  0  0  0  0  0  0  0
    2.6911    1.5449    0.9478 H   0  0  0  0  0  0  0  0  0  0  0  0
    4.1349    3.4544    1.4684 H   0  0  0  0  0  0  0  0  0  0  0  0
    6.5306    3.4529    0.8113 H   0  0  0  0  0  0  0  0  0  0  0  0
    7.4132    1.5382   -0.3352 H   0  0  0  0  0  0  0  0  0  0  0  0
    8.1001   -1.3013   -1.7978 H   0  0  0  0  0  0  0  0  0  0  0  0
  1  2  2  0
  2  3  1  0
  3  4  1  0
  4  5  1  0
  5  6  1  0
  6  7  2  0
  7  8  1  0
  8  9  1  0
  9 10  1  0
 10 11  1  0
 11 12  1  0
 12 13  2  0
 13 14  1  0
 14 15  1  0
 14 16  2  0
 16 17  1  0
 17 18  2  0
  2 19  1  0
 19 20  1  0
 20 21  2  0
 21 22  1  0
 22 23  2  0
 23 24  1  0
 24 25  2  0
 25 26  1  0
 26 27  2  0
 26 28  1  0
  9  5  2  0
 18 12  1  0
 25 20  1  0
 18  8  1  0
  3 29  1  0
  3 30  1  0
  4 31  1  0
  4 32  1  0
  6 33  1  0
 10 34  1  0
 10 35  1  0
 11 36  1  0
 11 37  1  0
 13 38  1  0
 15 39  1  0
 16 40  1  0
 17 41  1  0
 19 42  1  0
 21 43  1  0
 22 44  1  0
 23 45  1  0
 24 46  1  0
 28 47  1  0
M  END
$$$$
