@<TRIPOS>MOLECULE
*****
 83 87 0 0 0
SMALL
GASTEIGER

@<TRIPOS>ATOM
      1 C           7.3802    0.3386   -1.9088 C.3     1  UNL1        0.0114
      2 C           7.2893   -1.1833   -1.8317 C.3     1  UNL1       -0.0359
      3 C           7.2910   -1.4967   -0.3566 C.3     1  UNL1       -0.0359
      4 C           7.3172   -0.1113    0.2938 C.3     1  UNL1        0.0114
      5 C           5.8832    0.3494    0.4418 C.3     1  UNL1       -0.0254
      6 C           5.1598    0.2454   -0.8874 C.3     1  UNL1        0.0086
      7 C           5.9750    0.9019   -1.9657 C.3     1  UNL1       -0.0254
      8 S           3.4934    0.9454   -0.7538 S.3     1  UNL1       -0.1460
      9 C           2.5519   -0.0944    0.3981 C.3     1  UNL1        0.0913
     10 C           1.1593    0.3165    0.5745 C.2     1  UNL1        0.3173
     11 O           1.0003    1.4666    1.0588 O.2     1  UNL1       -0.2499
     12 O           0.1498   -0.5555    0.2120 O.3     1  UNL1       -0.4602
     13 C          -1.2210   -0.2200    0.3565 C.3     1  UNL1        0.1102
     14 C          -1.7645   -1.0455    1.4993 C.3     1  UNL1       -0.0039
     15 C          -2.8837   -0.4453    2.2647 C.3     1  UNL1        0.0152
     16 C          -2.9192   -1.2487    3.5825 C.3     1  UNL1       -0.0536
     17 C          -2.6293    0.9426    2.6715 C.2     1  UNL1       -0.0826
     18 C          -1.7125    1.1314    3.6140 C.2     1  UNL1       -0.1020
     19 C          -4.2646   -0.5993    1.7186 C.3     1  UNL1        0.0672
     20 O          -5.1176   -0.3008    2.8148 O.3     1  UNL1       -0.3907
     21 C          -4.6413    0.3769    0.6488 C.3     1  UNL1       -0.0107
     22 C          -6.1617    0.6077    0.7253 C.3     1  UNL1       -0.0595
     23 C          -4.4026   -0.1414   -0.7408 C.3     1  UNL1       -0.0138
     24 C          -5.5706   -1.0830   -1.0771 C.3     1  UNL1       -0.0397
     25 C          -5.0552   -1.7519   -2.3282 C.3     1  UNL1        0.0067
     26 C          -3.5540   -1.7969   -2.1587 C.2     1  UNL1        0.1376
     27 O          -3.0675   -2.4201   -3.1157 O.2     1  UNL1       -0.2971
     28 C          -3.2537   -1.0552   -0.8755 C.3     1  UNL1        0.0324
     29 C          -1.8923   -0.4128   -0.9530 C.3     1  UNL1        0.0176
     30 C          -1.0492   -1.4492   -1.7285 C.3     1  UNL1       -0.0553
     31 C          -1.9208    0.8123   -1.8153 C.3     1  UNL1       -0.0344
     32 C          -1.6844    2.1124   -1.0876 C.3     1  UNL1       -0.0618
     33 C          -3.1884    0.9782   -2.6247 C.3     1  UNL1       -0.0493
     34 C          -4.4241    0.9380   -1.7582 C.3     1  UNL1       -0.0461
     35 N           8.0458    0.6381   -0.6795 N.3     1  UNL1       -0.2994
     36 C           8.2304    2.0230   -0.3928 C.3     1  UNL1       -0.0122
     37 H           7.9527    0.5860   -2.8080 H       1  UNL1        0.0463
     38 H           8.2210   -1.5944   -2.2762 H       1  UNL1        0.0281
     39 H           6.4457   -1.5935   -2.3815 H       1  UNL1        0.0281
     40 H           8.1821   -2.0997   -0.0732 H       1  UNL1        0.0281
     41 H           6.3598   -1.9804   -0.0560 H       1  UNL1        0.0281
     42 H           7.7975   -0.1077    1.2717 H       1  UNL1        0.0463
     43 H           5.8052    1.3371    0.9032 H       1  UNL1        0.0291
     44 H           5.3890   -0.3751    1.1282 H       1  UNL1        0.0291
     45 H           5.0530   -0.8380   -1.1133 H       1  UNL1        0.0413
     46 H           5.9622    1.9844   -1.8195 H       1  UNL1        0.0291
     47 H           5.5860    0.6473   -2.9710 H       1  UNL1        0.0291
     48 H           2.6017   -1.1310    0.0273 H       1  UNL1        0.0490
     49 H           3.0750    0.0079    1.3821 H       1  UNL1        0.0490
     50 H          -1.2032    0.8226    0.7479 H       1  UNL1        0.0740
     51 H          -0.9112   -1.0457    2.2561 H       1  UNL1        0.0310
     52 H          -1.8824   -2.1124    1.2900 H       1  UNL1        0.0310
     53 H          -3.4448   -2.2126    3.3935 H       1  UNL1        0.0239
     54 H          -3.4456   -0.7015    4.3688 H       1  UNL1        0.0239
     55 H          -1.8773   -1.5073    3.8955 H       1  UNL1        0.0239
     56 H          -2.9552    1.9498    2.4529 H       1  UNL1        0.0573
     57 H          -0.9561    0.7809    4.3364 H       1  UNL1        0.0532
     58 H          -1.2583    1.9442    4.1624 H       1  UNL1        0.0532
     59 H          -4.5209   -1.6252    1.4648 H       1  UNL1        0.0604
     60 H          -4.7207    0.5150    3.2217 H       1  UNL1        0.2098
     61 H          -4.2229    1.3733    0.8418 H       1  UNL1        0.0329
     62 H          -6.5248    1.1782   -0.1412 H       1  UNL1        0.0233
     63 H          -6.6349   -0.3722    0.8375 H       1  UNL1        0.0233
     64 H          -6.4402    1.1950    1.6251 H       1  UNL1        0.0233
     65 H          -6.5097   -0.5487   -1.2591 H       1  UNL1        0.0275
     66 H          -5.6772   -1.8061   -0.2411 H       1  UNL1        0.0275
     67 H          -5.4695   -2.7907   -2.2942 H       1  UNL1        0.0342
     68 H          -5.3158   -1.1972   -3.2321 H       1  UNL1        0.0342
     69 H          -3.2775   -1.8659   -0.1280 H       1  UNL1        0.0389
     70 H          -1.1037   -1.2302   -2.8150 H       1  UNL1        0.0237
     71 H          -1.4007   -2.4626   -1.4612 H       1  UNL1        0.0237
     72 H           0.0115   -1.4056   -1.4669 H       1  UNL1        0.0237
     73 H          -1.1020    0.7876   -2.6000 H       1  UNL1        0.0305
     74 H          -2.2746    2.2621   -0.1855 H       1  UNL1        0.0233
     75 H          -0.6082    2.3439   -0.9724 H       1  UNL1        0.0233
     76 H          -2.0458    2.9225   -1.7938 H       1  UNL1        0.0233
     77 H          -3.1396    1.9976   -3.0621 H       1  UNL1        0.0268
     78 H          -3.2410    0.2972   -3.4992 H       1  UNL1        0.0268
     79 H          -5.2891    0.8624   -2.4731 H       1  UNL1        0.0271
     80 H          -4.5358    1.9396   -1.2960 H       1  UNL1        0.0271
     81 H           8.7288    2.1122    0.6003 H       1  UNL1        0.0391
     82 H           8.9531    2.4248   -1.1565 H       1  UNL1        0.0391
     83 H           7.3158    2.6192   -0.4336 H       1  UNL1        0.0391
@<TRIPOS>BOND
     1     1     2    1
     2     2     3    1
     3     3     4    1
     4     4     5    1
     5     5     6    1
     6     6     7    1
     7     6     8    1
     8     8     9    1
     9     9    10    1
    10    10    11    2
    11    10    12    1
    12    12    13    1
    13    13    14    1
    14    14    15    1
    15    15    16    1
    16    15    17    1
    17    17    18    2
    18    15    19    1
    19    19    20    1
    20    19    21    1
    21    21    22    1
    22    21    23    1
    23    23    24    1
    24    24    25    1
    25    25    26    1
    26    26    27    2
    27    26    28    1
    28    28    29    1
    29    29    30    1
    30    29    31    1
    31    31    32    1
    32    31    33    1
    33    33    34    1
    34     4    35    1
    35    35    36    1
    36     7     1    1
    37    29    13    1
    38    35     1    1
    39    28    23    1
    40    34    23    1
    41     1    37    1
    42     2    38    1
    43     2    39    1
    44     3    40    1
    45     3    41    1
    46     4    42    1
    47     5    43    1
    48     5    44    1
    49     6    45    1
    50     7    46    1
    51     7    47    1
    52     9    48    1
    53     9    49    1
    54    13    50    1
    55    14    51    1
    56    14    52    1
    57    16    53    1
    58    16    54    1
    59    16    55    1
    60    17    56    1
    61    18    57    1
    62    18    58    1
    63    19    59    1
    64    20    60    1
    65    21    61    1
    66    22    62    1
    67    22    63    1
    68    22    64    1
    69    24    65    1
    70    24    66    1
    71    25    67    1
    72    25    68    1
    73    28    69    1
    74    30    70    1
    75    30    71    1
    76    30    72    1
    77    31    73    1
    78    32    74    1
    79    32    75    1
    80    32    76    1
    81    33    77    1
    82    33    78    1
    83    34    79    1
    84    34    80    1
    85    36    81    1
    86    36    82    1
    87    36    83    1
