@<TRIPOS>MOLECULE
*****
 53 57 0 0 0
SMALL
GASTEIGER

@<TRIPOS>ATOM
      1 C          -6.7996    2.7347   -1.1607 C.3     1  UNL1        0.0132
      2 N          -5.8810    1.7028   -0.7119 N.ar    1  UNL1       -0.3342
      3 C          -4.5473    1.7504   -0.8254 C.ar    1  UNL1        0.0146
      4 C          -3.9729    0.5849   -0.2880 C.ar    1  UNL1        0.0122
      5 C          -2.5558    0.2615   -0.2576 C.ar    1  UNL1       -0.0153
      6 C          -1.6192    1.0882    0.3316 C.ar    1  UNL1       -0.0522
      7 C          -0.2860    0.7354    0.3060 C.ar    1  UNL1       -0.0394
      8 C           0.1753   -0.4360   -0.2960 C.ar    1  UNL1        0.0395
      9 C          -0.7699   -1.2513   -0.8805 C.ar    1  UNL1       -0.0239
     10 C          -2.1226   -0.8923   -0.8542 C.ar    1  UNL1       -0.0490
     11 C          -0.0555   -2.4215   -1.4521 C.3     1  UNL1       -0.0097
     12 C           1.2268   -2.4432   -0.6617 C.3     1  UNL1        0.0238
     13 N           1.4665   -1.0156   -0.4526 N.am    1  UNL1       -0.2706
     14 C           2.6874   -0.3114   -0.4064 C.2     1  UNL1        0.2241
     15 O           2.6840    0.9220   -0.2149 O.2     1  UNL1       -0.2749
     16 C           3.9484   -1.0618   -0.5880 C.3     1  UNL1        0.0496
     17 C           5.0711   -0.0965   -0.4962 C.ar    1  UNL1       -0.0381
     18 C           5.5579    0.5535   -1.6107 C.ar    1  UNL1       -0.0581
     19 C           6.6158    1.4521   -1.4693 C.ar    1  UNL1       -0.0610
     20 C           7.1786    1.6981   -0.2363 C.ar    1  UNL1       -0.0501
     21 C           6.6659    1.0307    0.8524 C.ar    1  UNL1        0.0551
     22 C           7.2466    1.2691    2.2011 C.3     1  UNL1        0.4174
     23 F           7.1315    0.0942    2.9106 F       1  UNL1       -0.1659
     24 F           8.5928    1.5625    2.1182 F       1  UNL1       -0.1659
     25 F           6.5374    2.3039    2.8161 F       1  UNL1       -0.1659
     26 C           5.6195    0.1347    0.7480 C.ar    1  UNL1       -0.0465
     27 C          -5.0122   -0.1870    0.1649 C.ar    1  UNL1        0.0660
     28 C          -5.0822   -1.4219    0.7894 C.ar    1  UNL1        0.1292
     29 N          -3.8993   -2.1448    1.0888 N.pl3   1  UNL1       -0.3425
     30 N          -6.3030   -1.8880    1.1083 N.ar    1  UNL1       -0.2204
     31 C          -7.4387   -1.2166    0.8511 C.ar    1  UNL1        0.1204
     32 N          -7.3343   -0.0215    0.2454 N.ar    1  UNL1       -0.2176
     33 C          -6.1665    0.5359   -0.1153 C.ar    1  UNL1        0.1461
     34 H          -6.3314    3.7384   -1.1546 H       1  UNL1        0.0456
     35 H          -7.2391    2.4881   -2.1529 H       1  UNL1        0.0456
     36 H          -7.6757    2.8129   -0.4593 H       1  UNL1        0.0456
     37 H          -3.9218    2.5248   -1.2503 H       1  UNL1        0.0816
     38 H          -1.9066    2.0105    0.8154 H       1  UNL1        0.0624
     39 H           0.4841    1.3576    0.7574 H       1  UNL1        0.0636
     40 H          -2.8178   -1.5569   -1.3382 H       1  UNL1        0.0627
     41 H          -0.5931   -3.3799   -1.1956 H       1  UNL1        0.0329
     42 H           0.1101   -2.3438   -2.5360 H       1  UNL1        0.0329
     43 H           2.0724   -2.8751   -1.2369 H       1  UNL1        0.0472
     44 H           1.1270   -2.9674    0.2968 H       1  UNL1        0.0472
     45 H           4.0717   -1.8441    0.2018 H       1  UNL1        0.0407
     46 H           3.9535   -1.5963   -1.5668 H       1  UNL1        0.0407
     47 H           5.1429    0.3880   -2.5993 H       1  UNL1        0.0620
     48 H           7.0160    1.9743   -2.3246 H       1  UNL1        0.0618
     49 H           7.9947    2.3932   -0.1362 H       1  UNL1        0.0623
     50 H           5.2734   -0.3492    1.6491 H       1  UNL1        0.0626
     51 H          -3.2837   -1.7449    1.8423 H       1  UNL1        0.1437
     52 H          -3.6111   -3.0173    0.6253 H       1  UNL1        0.1437
     53 H          -8.4253   -1.6182    1.1208 H       1  UNL1        0.1048
@<TRIPOS>BOND
     1     1     2    1
     2     2     3   ar
     3     3     4   ar
     4     4     5    1
     5     5     6   ar
     6     6     7   ar
     7     7     8   ar
     8     8     9   ar
     9     9    10   ar
    10     9    11    1
    11    11    12    1
    12    12    13    1
    13    13    14   am
    14    14    15    2
    15    14    16    1
    16    16    17    1
    17    17    18   ar
    18    18    19   ar
    19    19    20   ar
    20    20    21   ar
    21    21    22    1
    22    22    23    1
    23    22    24    1
    24    22    25    1
    25    21    26   ar
    26     4    27   ar
    27    27    28   ar
    28    28    29    1
    29    28    30   ar
    30    30    31   ar
    31    31    32   ar
    32    32    33   ar
    33    33     2   ar
    34    10     5   ar
    35    26    17   ar
    36    33    27   ar
    37    13     8    1
    38     1    34    1
    39     1    35    1
    40     1    36    1
    41     3    37    1
    42     6    38    1
    43     7    39    1
    44    10    40    1
    45    11    41    1
    46    11    42    1
    47    12    43    1
    48    12    44    1
    49    16    45    1
    50    16    46    1
    51    18    47    1
    52    19    48    1
    53    20    49    1
    54    26    50    1
    55    29    51    1
    56    29    52    1
    57    31    53    1
