
     RDKit          3D

 31 32  0  0  0  0  0  0  0  0999 V2000
    5.9940   -0.8981   -0.4558 O   0  0  0  0  0  0  0  0  0  0  0  0
    4.8705   -0.3176   -0.4014 C   0  0  0  0  0  0  0  0  0  0  0  0
    4.7636    0.9350   -0.9377 O   0  0  0  0  0  0  0  0  0  0  0  0
    3.7591   -1.0608    0.2482 C   0  0  0  0  0  0  0  0  0  0  0  0
    2.5686   -0.2157    0.2019 N   0  0  0  0  0  0  0  0  0  0  0  0
    2.2069    0.7091    1.2003 C   0  0  0  0  0  0  0  0  0  0  0  0
    2.8433    0.9491    2.2734 O   0  0  0  0  0  0  0  0  0  0  0  0
    0.9611    1.3298    0.7523 C   0  0  0  0  0  0  0  0  0  0  0  0
    0.3387    2.2238    1.4135 O   0  0  0  0  0  0  0  0  0  0  0  0
    0.5765    0.7840   -0.5037 N   0  0  0  0  0  0  0  0  0  0  0  0
   -0.5896    1.1179   -1.2974 C   0  0  0  0  0  0  0  0  0  0  0  0
   -1.7601    0.2617   -0.9522 C   0  0  0  0  0  0  0  0  0  0  0  0
   -1.9484   -0.9247   -1.6317 C   0  0  0  0  0  0  0  0  0  0  0  0
   -3.0228   -1.6971   -1.3055 C   0  0  0  0  0  0  0  0  0  0  0  0
   -3.8948   -1.2911   -0.3168 C   0  0  0  0  0  0  0  0  0  0  0  0
   -3.7340   -0.1105    0.3808 C   0  0  0  0  0  0  0  0  0  0  0  0
   -4.6563    0.2777    1.3977 N   0  0  0  0  0  4  0  0  0  0  0  0
   -5.6205   -0.4669    1.6544 O   0  0  0  0  0  0  0  0  0  0  0  0
   -4.5012    1.4410    2.0878 O   0  0  0  0  0  1  0  0  0  0  0  0
   -2.6435    0.6612    0.0410 C   0  0  0  0  0  0  0  0  0  0  0  0
    1.5910   -0.1772   -0.8296 C   0  0  0  0  0  0  0  0  0  0  0  0
    1.5695   -0.8615   -1.8906 O   0  0  0  0  0  0  0  0  0  0  0  0
    5.5241    1.6229   -0.8319 H   0  0  0  0  0  0  0  0  0  0  0  0
    3.5682   -2.0322   -0.2629 H   0  0  0  0  0  0  0  0  0  0  0  0
    4.0376   -1.2686    1.2836 H   0  0  0  0  0  0  0  0  0  0  0  0
   -0.8437    2.2095   -1.2140 H   0  0  0  0  0  0  0  0  0  0  0  0
   -0.3219    0.9523   -2.3617 H   0  0  0  0  0  0  0  0  0  0  0  0
   -1.2326   -1.2152   -2.4133 H   0  0  0  0  0  0  0  0  0  0  0  0
   -3.1573   -2.6240   -1.8465 H   0  0  0  0  0  0  0  0  0  0  0  0
   -4.7546   -1.9126   -0.0580 H   0  0  0  0  0  0  0  0  0  0  0  0
   -2.4913    1.5989    0.5754 H   0  0  0  0  0  0  0  0  0  0  0  0
  1  2  2  0
  2  3  1  0
  2  4  1  0
  4  5  1  0
  5  6  1  0
  6  7  2  0
  6  8  1  0
  8  9  2  0
  8 10  1  0
 10 11  1  0
 11 12  1  0
 12 13  2  0
 13 14  1  0
 14 15  2  0
 15 16  1  0
 16 17  1  0
 17 18  2  0
 17 19  1  0
 16 20  2  0
 10 21  1  0
 21 22  2  0
 21  5  1  0
 20 12  1  0
  3 23  1  0
  4 24  1  0
  4 25  1  0
 11 26  1  0
 11 27  1  0
 13 28  1  0
 14 29  1  0
 15 30  1  0
 20 31  1  0
M  CHG  2  17   1  19  -1
M  END
$$$$
