@<TRIPOS>MOLECULE
*****
 31 32 0 0 0
SMALL
GASTEIGER

@<TRIPOS>ATOM
      1 O           5.9940   -0.8981   -0.4558 O.2     1  UNL1       -0.2492
      2 C           4.8705   -0.3176   -0.4014 C.2     1  UNL1        0.3228
      3 O           4.7636    0.9350   -0.9377 O.3     1  UNL1       -0.4795
      4 C           3.7591   -1.0608    0.2482 C.3     1  UNL1        0.1212
      5 N           2.5686   -0.2157    0.2019 N.am    1  UNL1       -0.2069
      6 C           2.2069    0.7091    1.2003 C.2     1  UNL1        0.3101
      7 O           2.8433    0.9491    2.2734 O.2     1  UNL1       -0.2645
      8 C           0.9611    1.3298    0.7523 C.2     1  UNL1        0.3099
      9 O           0.3387    2.2238    1.4135 O.2     1  UNL1       -0.2645
     10 N           0.5765    0.7840   -0.5037 N.am    1  UNL1       -0.2133
     11 C          -0.5896    1.1179   -1.2974 C.3     1  UNL1        0.0495
     12 C          -1.7601    0.2617   -0.9522 C.ar    1  UNL1       -0.0232
     13 C          -1.9484   -0.9247   -1.6317 C.ar    1  UNL1       -0.0566
     14 C          -3.0228   -1.6971   -1.3055 C.ar    1  UNL1       -0.0550
     15 C          -3.8948   -1.2911   -0.3168 C.ar    1  UNL1        0.0156
     16 C          -3.7340   -0.1105    0.3808 C.ar    1  UNL1        0.2735
     17 N          -4.6563    0.2777    1.3977 N.pl3   1  UNL1        0.0796
     18 O          -5.6205   -0.4669    1.6544 O.2     1  UNL1        0.0414
     19 O          -4.5012    1.4410    2.0878 O.co2   1  UNL1       -0.5760
     20 C          -2.6435    0.6612    0.0410 C.ar    1  UNL1        0.0203
     21 C           1.5910   -0.1772   -0.8296 C.2     1  UNL1        0.3189
     22 O           1.5695   -0.8615   -1.8906 O.2     1  UNL1       -0.2515
     23 H           5.5241    1.6229   -0.8319 H       1  UNL1        0.2951
     24 H           3.5682   -2.0322   -0.2629 H       1  UNL1        0.0585
     25 H           4.0376   -1.2686    1.2836 H       1  UNL1        0.0585
     26 H          -0.8437    2.2095   -1.2140 H       1  UNL1        0.0519
     27 H          -0.3219    0.9523   -2.3617 H       1  UNL1        0.0519
     28 H          -1.2326   -1.2152   -2.4133 H       1  UNL1        0.0621
     29 H          -3.1573   -2.6240   -1.8465 H       1  UNL1        0.0620
     30 H          -4.7546   -1.9126   -0.0580 H       1  UNL1        0.0685
     31 H          -2.4913    1.5989    0.5754 H       1  UNL1        0.0688
@<TRIPOS>UNITY_ATOM_ATTR
17 1
charge 1
19 1
charge -1
@<TRIPOS>BOND
     1     1     2    2
     2     2     3    1
     3     2     4    1
     4     4     5    1
     5     5     6   am
     6     6     7    2
     7     6     8    1
     8     8     9    2
     9     8    10   am
    10    10    11    1
    11    11    12    1
    12    12    13   ar
    13    13    14   ar
    14    14    15   ar
    15    15    16   ar
    16    16    17    1
    17    17    18    2
    18    17    19    1
    19    16    20   ar
    20    10    21   am
    21    21    22    2
    22    21     5   am
    23    20    12   ar
    24     3    23    1
    25     4    24    1
    26     4    25    1
    27    11    26    1
    28    11    27    1
    29    13    28    1
    30    14    29    1
    31    15    30    1
    32    20    31    1
