@<TRIPOS>MOLECULE
*****
 93 98 0 0 0
SMALL
GASTEIGER

@<TRIPOS>ATOM
      1 C          -9.4753   -0.7827    2.1051 C.3     1  UNL1        0.0790
      2 O          -8.7421   -0.7176    0.9101 O.3     1  UNL1       -0.4914
      3 C          -7.4545   -0.2149    0.8738 C.ar    1  UNL1        0.1618
      4 C          -6.8865    0.2385    2.0748 C.ar    1  UNL1       -0.0123
      5 C          -5.6110    0.7498    2.1143 C.ar    1  UNL1       -0.0297
      6 C          -4.9285    0.7927    0.9242 C.ar    1  UNL1       -0.0150
      7 C          -5.4679    0.3544   -0.2586 C.ar    1  UNL1       -0.0107
      8 C          -6.7752   -0.1744   -0.3224 C.ar    1  UNL1        0.1626
      9 O          -7.2652   -0.5976   -1.5231 O.3     1  UNL1       -0.4857
     10 C          -8.4438   -1.1379   -1.9333 C.3     1  UNL1        0.0948
     11 C          -9.0590   -0.2642   -3.0354 C.3     1  UNL1       -0.0281
     12 C          -8.2859   -2.5132   -2.5879 C.3     1  UNL1       -0.0281
     13 C          -3.5254    1.3536    0.9523 C.3     1  UNL1        0.0816
     14 C          -2.8683    1.1412   -0.3446 C.ar    1  UNL1       -0.0222
     15 C          -2.5546    2.2877   -1.0877 C.ar    1  UNL1       -0.0551
     16 C          -1.9570    2.2429   -2.3195 C.ar    1  UNL1       -0.0431
     17 C          -1.6435    1.0242   -2.8669 C.ar    1  UNL1        0.0410
     18 CL         -0.8747    0.9207   -4.4468 Cl      1  UNL1       -0.0835
     19 C          -1.9518   -0.1199   -2.1358 C.ar    1  UNL1       -0.0431
     20 C          -2.5538   -0.0592   -0.8970 C.ar    1  UNL1       -0.0551
     21 N          -2.8587    0.7786    2.0865 N.am    1  UNL1       -0.2581
     22 C          -1.5492    0.2555    2.0754 C.ar    1  UNL1        0.0555
     23 C          -0.4829    1.1267    2.2449 C.ar    1  UNL1       -0.0355
     24 C           0.8444    0.6751    2.2680 C.ar    1  UNL1       -0.0199
     25 C           1.1308   -0.6582    2.1220 C.ar    1  UNL1        0.1211
     26 N           2.4524   -1.1808    2.1358 N.pl3   1  UNL1       -0.3180
     27 C           2.6755   -2.6302    1.9714 C.3     1  UNL1        0.0020
     28 C           3.6455   -0.3963    2.2991 C.3     1  UNL1        0.0160
     29 C           4.4722   -0.3700    1.0026 C.3     1  UNL1       -0.0252
     30 C           3.6483    0.2261   -0.0781 C.3     1  UNL1       -0.0474
     31 C           4.3380    0.7378   -1.2734 C.3     1  UNL1       -0.0370
     32 C           5.7528    1.2238   -1.0869 C.3     1  UNL1        0.0110
     33 N           6.6875    0.5819   -1.9489 N.3     1  UNL1       -0.2895
     34 C           6.8415   -0.7977   -1.8892 C.3     1  UNL1        0.0155
     35 C           8.1494   -1.3170   -1.3377 C.3     1  UNL1        0.0272
     36 N           9.1930   -0.3270   -1.3955 N.am    1  UNL1       -0.3023
     37 C          10.4130   -0.5067   -0.6196 C.3     1  UNL1        0.0032
     38 C           9.0650    0.8336   -2.1996 C.2     1  UNL1        0.2295
     39 O          10.0639    1.4329   -2.6879 O.2     1  UNL1       -0.2742
     40 C           7.7263    1.3683   -2.4821 C.3     1  UNL1        0.0762
     41 C           6.1748    1.3571    0.3322 C.3     1  UNL1       -0.0370
     42 C           5.8020    0.2268    1.2273 C.3     1  UNL1       -0.0474
     43 N           0.0642   -1.4970    1.9564 N.ar    1  UNL1       -0.2385
     44 C          -1.2064   -1.0678    1.9338 C.ar    1  UNL1        0.0511
     45 C          -3.5815    0.7743    3.3299 C.2     1  UNL1        0.2249
     46 O          -3.0118    0.3853    4.3632 O.2     1  UNL1       -0.2749
     47 C          -4.9943    1.2291    3.3844 C.3     1  UNL1        0.0501
     48 H         -10.3343   -1.4869    1.9640 H       1  UNL1        0.0660
     49 H          -9.8402    0.2043    2.4400 H       1  UNL1        0.0660
     50 H          -8.8063   -1.2687    2.8723 H       1  UNL1        0.0660
     51 H          -7.4227    0.2061    3.0078 H       1  UNL1        0.0658
     52 H          -4.9384    0.3898   -1.1851 H       1  UNL1        0.0659
     53 H          -9.2534   -1.2761   -1.1959 H       1  UNL1        0.0727
     54 H          -8.3841   -0.2204   -3.9044 H       1  UNL1        0.0265
     55 H         -10.0302   -0.7654   -3.2808 H       1  UNL1        0.0265
     56 H          -9.2965    0.6987   -2.5779 H       1  UNL1        0.0265
     57 H          -7.7139   -2.4574   -3.5255 H       1  UNL1        0.0265
     58 H          -7.8906   -3.2438   -1.8693 H       1  UNL1        0.0265
     59 H          -9.3143   -2.8408   -2.8560 H       1  UNL1        0.0265
     60 H          -3.6204    2.4527    1.1738 H       1  UNL1        0.0604
     61 H          -2.7926    3.2758   -0.6778 H       1  UNL1        0.0621
     62 H          -1.7364    3.1782   -2.8538 H       1  UNL1        0.0632
     63 H          -1.6809   -1.0596   -2.6178 H       1  UNL1        0.0632
     64 H          -2.7865   -0.9557   -0.3800 H       1  UNL1        0.0621
     65 H          -0.6913    2.1986    2.3639 H       1  UNL1        0.0638
     66 H           1.6394    1.4013    2.4024 H       1  UNL1        0.0652
     67 H           1.6993   -3.1264    1.9987 H       1  UNL1        0.0428
     68 H           3.1584   -2.8637    1.0102 H       1  UNL1        0.0428
     69 H           3.2954   -2.9741    2.8397 H       1  UNL1        0.0428
     70 H           4.2369   -0.9113    3.1031 H       1  UNL1        0.0467
     71 H           3.4357    0.6086    2.6490 H       1  UNL1        0.0467
     72 H           4.6204   -1.4559    0.7489 H       1  UNL1        0.0316
     73 H           3.0750    1.0870    0.3820 H       1  UNL1        0.0269
     74 H           2.8218   -0.4670   -0.4209 H       1  UNL1        0.0269
     75 H           3.6737    1.5280   -1.7329 H       1  UNL1        0.0280
     76 H           4.3617   -0.0625   -2.0487 H       1  UNL1        0.0280
     77 H           5.7220    2.2935   -1.4758 H       1  UNL1        0.0463
     78 H           6.7818   -1.2010   -2.9462 H       1  UNL1        0.0442
     79 H           5.9802   -1.2655   -1.3785 H       1  UNL1        0.0442
     80 H           8.5219   -2.1866   -1.9563 H       1  UNL1        0.0477
     81 H           8.0302   -1.7528   -0.3234 H       1  UNL1        0.0477
     82 H          10.1274   -0.3324    0.4594 H       1  UNL1        0.0428
     83 H          10.7720   -1.5422   -0.7312 H       1  UNL1        0.0428
     84 H          11.1891    0.2177   -0.8924 H       1  UNL1        0.0428
     85 H           7.6323    2.4160   -2.1233 H       1  UNL1        0.0522
     86 H           7.6172    1.3984   -3.6064 H       1  UNL1        0.0522
     87 H           5.8079    2.3027    0.7841 H       1  UNL1        0.0280
     88 H           7.2941    1.4373    0.3424 H       1  UNL1        0.0280
     89 H           5.8367    0.6082    2.2752 H       1  UNL1        0.0269
     90 H           6.6310   -0.5396    1.1999 H       1  UNL1        0.0269
     91 H          -2.0448   -1.7659    1.7990 H       1  UNL1        0.0849
     92 H          -5.0589    2.3316    3.4815 H       1  UNL1        0.0407
     93 H          -5.4567    0.7988    4.2754 H       1  UNL1        0.0407
@<TRIPOS>BOND
     1     1     2    1
     2     2     3    1
     3     3     4   ar
     4     4     5   ar
     5     5     6   ar
     6     6     7   ar
     7     7     8   ar
     8     8     9    1
     9     9    10    1
    10    10    11    1
    11    10    12    1
    12     6    13    1
    13    13    14    1
    14    14    15   ar
    15    15    16   ar
    16    16    17   ar
    17    17    18    1
    18    17    19   ar
    19    19    20   ar
    20    13    21    1
    21    21    22    1
    22    22    23   ar
    23    23    24   ar
    24    24    25   ar
    25    25    26    1
    26    26    27    1
    27    26    28    1
    28    28    29    1
    29    29    30    1
    30    30    31    1
    31    31    32    1
    32    32    33    1
    33    33    34    1
    34    34    35    1
    35    35    36    1
    36    36    37    1
    37    36    38   am
    38    38    39    2
    39    38    40    1
    40    32    41    1
    41    41    42    1
    42    25    43   ar
    43    43    44   ar
    44    21    45   am
    45    45    46    2
    46    45    47    1
    47     8     3   ar
    48    20    14   ar
    49    44    22   ar
    50    47     5    1
    51    42    29    1
    52    40    33    1
    53     1    48    1
    54     1    49    1
    55     1    50    1
    56     4    51    1
    57     7    52    1
    58    10    53    1
    59    11    54    1
    60    11    55    1
    61    11    56    1
    62    12    57    1
    63    12    58    1
    64    12    59    1
    65    13    60    1
    66    15    61    1
    67    16    62    1
    68    19    63    1
    69    20    64    1
    70    23    65    1
    71    24    66    1
    72    27    67    1
    73    27    68    1
    74    27    69    1
    75    28    70    1
    76    28    71    1
    77    29    72    1
    78    30    73    1
    79    30    74    1
    80    31    75    1
    81    31    76    1
    82    32    77    1
    83    34    78    1
    84    34    79    1
    85    35    80    1
    86    35    81    1
    87    37    82    1
    88    37    83    1
    89    37    84    1
    90    40    85    1
    91    40    86    1
    92    41    87    1
    93    41    88    1
    94    42    89    1
    95    42    90    1
    96    44    91    1
    97    47    92    1
    98    47    93    1
