
     RDKit          3D

 93 98  0  0  0  0  0  0  0  0999 V2000
   -9.4753   -0.7827    2.1051 C   0  0  0  0  0  0  0  0  0  0  0  0
   -8.7421   -0.7176    0.9101 O   0  0  0  0  0  0  0  0  0  0  0  0
   -7.4545   -0.2149    0.8738 C   0  0  0  0  0  0  0  0  0  0  0  0
   -6.8865    0.2385    2.0748 C   0  0  0  0  0  0  0  0  0  0  0  0
   -5.6110    0.7498    2.1143 C   0  0  0  0  0  0  0  0  0  0  0  0
   -4.9285    0.7927    0.9242 C   0  0  0  0  0  0  0  0  0  0  0  0
   -5.4679    0.3544   -0.2586 C   0  0  0  0  0  0  0  0  0  0  0  0
   -6.7752   -0.1744   -0.3224 C   0  0  0  0  0  0  0  0  0  0  0  0
   -7.2652   -0.5976   -1.5231 O   0  0  0  0  0  0  0  0  0  0  0  0
   -8.4438   -1.1379   -1.9333 C   0  0  0  0  0  0  0  0  0  0  0  0
   -9.0590   -0.2642   -3.0354 C   0  0  0  0  0  0  0  0  0  0  0  0
   -8.2859   -2.5132   -2.5879 C   0  0  0  0  0  0  0  0  0  0  0  0
   -3.5254    1.3536    0.9523 C   0  0  2  0  0  0  0  0  0  0  0  0
   -2.8683    1.1412   -0.3446 C   0  0  0  0  0  0  0  0  0  0  0  0
   -2.5546    2.2877   -1.0877 C   0  0  0  0  0  0  0  0  0  0  0  0
   -1.9570    2.2429   -2.3195 C   0  0  0  0  0  0  0  0  0  0  0  0
   -1.6435    1.0242   -2.8669 C   0  0  0  0  0  0  0  0  0  0  0  0
   -0.8747    0.9207   -4.4468 Cl  0  0  0  0  0  0  0  0  0  0  0  0
   -1.9518   -0.1199   -2.1358 C   0  0  0  0  0  0  0  0  0  0  0  0
   -2.5538   -0.0592   -0.8970 C   0  0  0  0  0  0  0  0  0  0  0  0
   -2.8587    0.7786    2.0865 N   0  0  0  0  0  0  0  0  0  0  0  0
   -1.5492    0.2555    2.0754 C   0  0  0  0  0  0  0  0  0  0  0  0
   -0.4829    1.1267    2.2449 C   0  0  0  0  0  0  0  0  0  0  0  0
    0.8444    0.6751    2.2680 C   0  0  0  0  0  0  0  0  0  0  0  0
    1.1308   -0.6582    2.1220 C   0  0  0  0  0  0  0  0  0  0  0  0
    2.4524   -1.1808    2.1358 N   0  0  0  0  0  0  0  0  0  0  0  0
    2.6755   -2.6302    1.9714 C   0  0  0  0  0  0  0  0  0  0  0  0
    3.6455   -0.3963    2.2991 C   0  0  0  0  0  0  0  0  0  0  0  0
    4.4722   -0.3700    1.0026 C   0  0  1  0  0  0  0  0  0  0  0  0
    3.6483    0.2261   -0.0781 C   0  0  0  0  0  0  0  0  0  0  0  0
    4.3380    0.7378   -1.2734 C   0  0  0  0  0  0  0  0  0  0  0  0
    5.7528    1.2238   -1.0869 C   0  0  2  0  0  0  0  0  0  0  0  0
    6.6875    0.5819   -1.9489 N   0  0  0  0  0  0  0  0  0  0  0  0
    6.8415   -0.7977   -1.8892 C   0  0  0  0  0  0  0  0  0  0  0  0
    8.1494   -1.3170   -1.3377 C   0  0  0  0  0  0  0  0  0  0  0  0
    9.1930   -0.3270   -1.3955 N   0  0  0  0  0  0  0  0  0  0  0  0
   10.4130   -0.5067   -0.6196 C   0  0  0  0  0  0  0  0  0  0  0  0
    9.0650    0.8336   -2.1996 C   0  0  0  0  0  0  0  0  0  0  0  0
   10.0639    1.4329   -2.6879 O   0  0  0  0  0  0  0  0  0  0  0  0
    7.7263    1.3683   -2.4821 C   0  0  0  0  0  0  0  0  0  0  0  0
    6.1748    1.3571    0.3322 C   0  0  0  0  0  0  0  0  0  0  0  0
    5.8020    0.2268    1.2273 C   0  0  0  0  0  0  0  0  0  0  0  0
    0.0642   -1.4970    1.9564 N   0  0  0  0  0  0  0  0  0  0  0  0
   -1.2064   -1.0678    1.9338 C   0  0  0  0  0  0  0  0  0  0  0  0
   -3.5815    0.7743    3.3299 C   0  0  0  0  0  0  0  0  0  0  0  0
   -3.0118    0.3853    4.3632 O   0  0  0  0  0  0  0  0  0  0  0  0
   -4.9943    1.2291    3.3844 C   0  0  0  0  0  0  0  0  0  0  0  0
  -10.3343   -1.4869    1.9640 H   0  0  0  0  0  0  0  0  0  0  0  0
   -9.8402    0.2043    2.4400 H   0  0  0  0  0  0  0  0  0  0  0  0
   -8.8063   -1.2687    2.8723 H   0  0  0  0  0  0  0  0  0  0  0  0
   -7.4227    0.2061    3.0078 H   0  0  0  0  0  0  0  0  0  0  0  0
   -4.9384    0.3898   -1.1851 H   0  0  0  0  0  0  0  0  0  0  0  0
   -9.2534   -1.2761   -1.1959 H   0  0  0  0  0  0  0  0  0  0  0  0
   -8.3841   -0.2204   -3.9044 H   0  0  0  0  0  0  0  0  0  0  0  0
  -10.0302   -0.7654   -3.2808 H   0  0  0  0  0  0  0  0  0  0  0  0
   -9.2965    0.6987   -2.5779 H   0  0  0  0  0  0  0  0  0  0  0  0
   -7.7139   -2.4574   -3.5255 H   0  0  0  0  0  0  0  0  0  0  0  0
   -7.8906   -3.2438   -1.8693 H   0  0  0  0  0  0  0  0  0  0  0  0
   -9.3143   -2.8408   -2.8560 H   0  0  0  0  0  0  0  0  0  0  0  0
   -3.6204    2.4527    1.1738 H   0  0  0  0  0  0  0  0  0  0  0  0
   -2.7926    3.2758   -0.6778 H   0  0  0  0  0  0  0  0  0  0  0  0
   -1.7364    3.1782   -2.8538 H   0  0  0  0  0  0  0  0  0  0  0  0
   -1.6809   -1.0596   -2.6178 H   0  0  0  0  0  0  0  0  0  0  0  0
   -2.7865   -0.9557   -0.3800 H   0  0  0  0  0  0  0  0  0  0  0  0
   -0.6913    2.1986    2.3639 H   0  0  0  0  0  0  0  0  0  0  0  0
    1.6394    1.4013    2.4024 H   0  0  0  0  0  0  0  0  0  0  0  0
    1.6993   -3.1264    1.9987 H   0  0  0  0  0  0  0  0  0  0  0  0
    3.1584   -2.8637    1.0102 H   0  0  0  0  0  0  0  0  0  0  0  0
    3.2954   -2.9741    2.8397 H   0  0  0  0  0  0  0  0  0  0  0  0
    4.2369   -0.9113    3.1031 H   0  0  0  0  0  0  0  0  0  0  0  0
    3.4357    0.6086    2.6490 H   0  0  0  0  0  0  0  0  0  0  0  0
    4.6204   -1.4559    0.7489 H   0  0  0  0  0  0  0  0  0  0  0  0
    3.0750    1.0870    0.3820 H   0  0  0  0  0  0  0  0  0  0  0  0
    2.8218   -0.4670   -0.4209 H   0  0  0  0  0  0  0  0  0  0  0  0
    3.6737    1.5280   -1.7329 H   0  0  0  0  0  0  0  0  0  0  0  0
    4.3617   -0.0625   -2.0487 H   0  0  0  0  0  0  0  0  0  0  0  0
    5.7220    2.2935   -1.4758 H   0  0  0  0  0  0  0  0  0  0  0  0
    6.7818   -1.2010   -2.9462 H   0  0  0  0  0  0  0  0  0  0  0  0
    5.9802   -1.2655   -1.3785 H   0  0  0  0  0  0  0  0  0  0  0  0
    8.5219   -2.1866   -1.9563 H   0  0  0  0  0  0  0  0  0  0  0  0
    8.0302   -1.7528   -0.3234 H   0  0  0  0  0  0  0  0  0  0  0  0
   10.1274   -0.3324    0.4594 H   0  0  0  0  0  0  0  0  0  0  0  0
   10.7720   -1.5422   -0.7312 H   0  0  0  0  0  0  0  0  0  0  0  0
   11.1891    0.2177   -0.8924 H   0  0  0  0  0  0  0  0  0  0  0  0
    7.6323    2.4160   -2.1233 H   0  0  0  0  0  0  0  0  0  0  0  0
    7.6172    1.3984   -3.6064 H   0  0  0  0  0  0  0  0  0  0  0  0
    5.8079    2.3027    0.7841 H   0  0  0  0  0  0  0  0  0  0  0  0
    7.2941    1.4373    0.3424 H   0  0  0  0  0  0  0  0  0  0  0  0
    5.8367    0.6082    2.2752 H   0  0  0  0  0  0  0  0  0  0  0  0
    6.6310   -0.5396    1.1999 H   0  0  0  0  0  0  0  0  0  0  0  0
   -2.0448   -1.7659    1.7990 H   0  0  0  0  0  0  0  0  0  0  0  0
   -5.0589    2.3316    3.4815 H   0  0  0  0  0  0  0  0  0  0  0  0
   -5.4567    0.7988    4.2754 H   0  0  0  0  0  0  0  0  0  0  0  0
  1  2  1  0
  2  3  1  0
  3  4  2  0
  4  5  1  0
  5  6  2  0
  6  7  1  0
  7  8  2  0
  8  9  1  0
  9 10  1  0
 10 11  1  0
 10 12  1  0
  6 13  1  0
 13 14  1  0
 14 15  2  0
 15 16  1  0
 16 17  2  0
 17 18  1  0
 17 19  1  0
 19 20  2  0
 13 21  1  0
 21 22  1  0
 22 23  2  0
 23 24  1  0
 24 25  2  0
 25 26  1  0
 26 27  1  0
 26 28  1  0
 28 29  1  0
 29 30  1  0
 30 31  1  0
 31 32  1  0
 32 33  1  0
 33 34  1  0
 34 35  1  0
 35 36  1  0
 36 37  1  0
 36 38  1  0
 38 39  2  0
 38 40  1  0
 32 41  1  0
 41 42  1  0
 25 43  1  0
 43 44  2  0
 21 45  1  0
 45 46  2  0
 45 47  1  0
  8  3  1  0
 20 14  1  0
 44 22  1  0
 47  5  1  0
 42 29  1  0
 40 33  1  0
  1 48  1  0
  1 49  1  0
  1 50  1  0
  4 51  1  0
  7 52  1  0
 10 53  1  0
 11 54  1  0
 11 55  1  0
 11 56  1  0
 12 57  1  0
 12 58  1  0
 12 59  1  0
 13 60  1  1
 15 61  1  0
 16 62  1  0
 19 63  1  0
 20 64  1  0
 23 65  1  0
 24 66  1  0
 27 67  1  0
 27 68  1  0
 27 69  1  0
 28 70  1  0
 28 71  1  0
 29 72  1  6
 30 73  1  0
 30 74  1  0
 31 75  1  0
 31 76  1  0
 32 77  1  6
 34 78  1  0
 34 79  1  0
 35 80  1  0
 35 81  1  0
 37 82  1  0
 37 83  1  0
 37 84  1  0
 40 85  1  0
 40 86  1  0
 41 87  1  0
 41 88  1  0
 42 89  1  0
 42 90  1  0
 44 91  1  0
 47 92  1  0
 47 93  1  0
M  END
$$$$
