
     RDKit          3D

 39 40  0  0  0  0  0  0  0  0999 V2000
   -4.7973   -1.0724    0.5096 C   0  0  0  0  0  0  0  0  0  0  0  0
   -3.9119    0.1084    0.0950 C   0  0  1  0  0  0  0  0  0  0  0  0
   -4.4945    1.3151    0.5987 N   0  0  0  0  0  0  0  0  0  0  0  0
   -2.5733   -0.1205    0.7825 C   0  0  1  0  0  0  0  0  0  0  0  0
   -2.0401   -1.4336    0.2898 C   0  0  0  0  0  0  0  0  0  0  0  0
   -0.5614   -1.4772    0.6904 C   0  0  0  0  0  0  0  0  0  0  0  0
    0.1389   -0.5159   -0.2503 C   0  0  2  0  0  0  0  0  0  0  0  0
    1.5730   -0.4475    0.1266 C   0  0  0  0  0  0  0  0  0  0  0  0
    2.0430   -1.1253    1.0987 O   0  0  0  0  0  0  0  0  0  0  0  0
    2.4699    0.3915   -0.6028 N   0  0  0  0  0  0  0  0  0  0  0  0
    3.8362    0.4253   -0.2057 C   0  0  0  0  0  0  0  0  0  0  0  0
    4.2835    1.3424    0.7362 C   0  0  0  0  0  0  0  0  0  0  0  0
    5.6113    1.3543    1.1032 C   0  0  0  0  0  0  0  0  0  0  0  0
    6.4587    0.4797    0.5468 N   0  0  0  0  0  0  0  0  0  0  0  0
    6.0845   -0.4349   -0.3731 C   0  0  0  0  0  0  0  0  0  0  0  0
    4.7652   -0.4444   -0.7357 C   0  0  0  0  0  0  0  0  0  0  0  0
   -0.5253    0.8104   -0.3372 C   0  0  0  0  0  0  0  0  0  0  0  0
   -1.6472    1.0275    0.6105 C   0  0  0  0  0  0  0  0  0  0  0  0
   -4.5555   -1.9322   -0.1565 H   0  0  0  0  0  0  0  0  0  0  0  0
   -4.5087   -1.3818    1.5498 H   0  0  0  0  0  0  0  0  0  0  0  0
   -5.8612   -0.8104    0.4581 H   0  0  0  0  0  0  0  0  0  0  0  0
   -3.7238    0.0943   -0.9814 H   0  0  0  0  0  0  0  0  0  0  0  0
   -4.8339    1.9619   -0.1346 H   0  0  0  0  0  0  0  0  0  0  0  0
   -3.9477    1.7960    1.3296 H   0  0  0  0  0  0  0  0  0  0  0  0
   -2.8301   -0.2733    1.8719 H   0  0  0  0  0  0  0  0  0  0  0  0
   -2.5722   -2.2783    0.7402 H   0  0  0  0  0  0  0  0  0  0  0  0
   -2.0988   -1.4437   -0.8313 H   0  0  0  0  0  0  0  0  0  0  0  0
   -0.4679   -1.1772    1.7393 H   0  0  0  0  0  0  0  0  0  0  0  0
   -0.1313   -2.4814    0.5662 H   0  0  0  0  0  0  0  0  0  0  0  0
    0.0658   -0.9928   -1.2715 H   0  0  0  0  0  0  0  0  0  0  0  0
    2.1172    0.9712   -1.4184 H   0  0  0  0  0  0  0  0  0  0  0  0
    3.5537    2.0329    1.1590 H   0  0  0  0  0  0  0  0  0  0  0  0
    5.9528    2.0832    1.8480 H   0  0  0  0  0  0  0  0  0  0  0  0
    6.7905   -1.1352   -0.8112 H   0  0  0  0  0  0  0  0  0  0  0  0
    4.4359   -1.1653   -1.4701 H   0  0  0  0  0  0  0  0  0  0  0  0
   -0.8851    1.0531   -1.3770 H   0  0  0  0  0  0  0  0  0  0  0  0
    0.2457    1.6101   -0.1316 H   0  0  0  0  0  0  0  0  0  0  0  0
   -1.2332    1.3596    1.6067 H   0  0  0  0  0  0  0  0  0  0  0  0
   -2.2254    1.9266    0.2437 H   0  0  0  0  0  0  0  0  0  0  0  0
  1  2  1  0
  2  3  1  0
  2  4  1  0
  4  5  1  0
  5  6  1  0
  6  7  1  0
  7  8  1  0
  8  9  2  0
  8 10  1  0
 10 11  1  0
 11 12  2  0
 12 13  1  0
 13 14  2  0
 14 15  1  0
 15 16  2  0
  7 17  1  0
 17 18  1  0
 18  4  1  0
 16 11  1  0
  1 19  1  0
  1 20  1  0
  1 21  1  0
  2 22  1  6
  3 23  1  0
  3 24  1  0
  4 25  1  1
  5 26  1  0
  5 27  1  0
  6 28  1  0
  6 29  1  0
  7 30  1  6
 10 31  1  0
 12 32  1  0
 13 33  1  0
 15 34  1  0
 16 35  1  0
 17 36  1  0
 17 37  1  0
 18 38  1  0
 18 39  1  0
M  END
$$$$
