@<TRIPOS>MOLECULE
*****
 39 40 0 0 0
SMALL
GASTEIGER

@<TRIPOS>ATOM
      1 C          -4.7973   -1.0724    0.5096 C.3     1  UNL1       -0.0496
      2 C          -3.9119    0.1084    0.0950 C.3     1  UNL1        0.0048
      3 N          -4.4945    1.3151    0.5987 N.3     1  UNL1       -0.3272
      4 C          -2.5733   -0.1205    0.7825 C.3     1  UNL1       -0.0260
      5 C          -2.0401   -1.4336    0.2898 C.3     1  UNL1       -0.0481
      6 C          -0.5614   -1.4772    0.6904 C.3     1  UNL1       -0.0416
      7 C           0.1389   -0.5159   -0.2503 C.3     1  UNL1        0.0359
      8 C           1.5730   -0.4475    0.1266 C.2     1  UNL1        0.2203
      9 O           2.0430   -1.1253    1.0987 O.2     1  UNL1       -0.2752
     10 N           2.4699    0.3915   -0.6028 N.am    1  UNL1       -0.2852
     11 C           3.8362    0.4253   -0.2057 C.ar    1  UNL1        0.0363
     12 C           4.2835    1.3424    0.7362 C.ar    1  UNL1       -0.0223
     13 C           5.6113    1.3543    1.1032 C.ar    1  UNL1        0.0293
     14 N           6.4587    0.4797    0.5468 N.ar    1  UNL1       -0.2631
     15 C           6.0845   -0.4349   -0.3731 C.ar    1  UNL1        0.0293
     16 C           4.7652   -0.4444   -0.7357 C.ar    1  UNL1       -0.0223
     17 C          -0.5253    0.8104   -0.3372 C.3     1  UNL1       -0.0416
     18 C          -1.6472    1.0275    0.6105 C.3     1  UNL1       -0.0481
     19 H          -4.5555   -1.9322   -0.1565 H       1  UNL1        0.0245
     20 H          -4.5087   -1.3818    1.5498 H       1  UNL1        0.0245
     21 H          -5.8612   -0.8104    0.4581 H       1  UNL1        0.0245
     22 H          -3.7238    0.0943   -0.9814 H       1  UNL1        0.0458
     23 H          -4.8339    1.9619   -0.1346 H       1  UNL1        0.1185
     24 H          -3.9477    1.7960    1.3296 H       1  UNL1        0.1185
     25 H          -2.8301   -0.2733    1.8719 H       1  UNL1        0.0316
     26 H          -2.5722   -2.2783    0.7402 H       1  UNL1        0.0269
     27 H          -2.0988   -1.4437   -0.8313 H       1  UNL1        0.0269
     28 H          -0.4679   -1.1772    1.7393 H       1  UNL1        0.0273
     29 H          -0.1313   -2.4814    0.5662 H       1  UNL1        0.0273
     30 H           0.0658   -0.9928   -1.2715 H       1  UNL1        0.0394
     31 H           2.1172    0.9712   -1.4184 H       1  UNL1        0.1548
     32 H           3.5537    2.0329    1.1590 H       1  UNL1        0.0651
     33 H           5.9528    2.0832    1.8480 H       1  UNL1        0.0830
     34 H           6.7905   -1.1352   -0.8112 H       1  UNL1        0.0830
     35 H           4.4359   -1.1653   -1.4701 H       1  UNL1        0.0651
     36 H          -0.8851    1.0531   -1.3770 H       1  UNL1        0.0273
     37 H           0.2457    1.6101   -0.1316 H       1  UNL1        0.0273
     38 H          -1.2332    1.3596    1.6067 H       1  UNL1        0.0269
     39 H          -2.2254    1.9266    0.2437 H       1  UNL1        0.0269
@<TRIPOS>BOND
     1     1     2    1
     2     2     3    1
     3     2     4    1
     4     4     5    1
     5     5     6    1
     6     6     7    1
     7     7     8    1
     8     8     9    2
     9     8    10   am
    10    10    11    1
    11    11    12   ar
    12    12    13   ar
    13    13    14   ar
    14    14    15   ar
    15    15    16   ar
    16     7    17    1
    17    17    18    1
    18    18     4    1
    19    16    11   ar
    20     1    19    1
    21     1    20    1
    22     1    21    1
    23     2    22    1
    24     3    23    1
    25     3    24    1
    26     4    25    1
    27     5    26    1
    28     5    27    1
    29     6    28    1
    30     6    29    1
    31     7    30    1
    32    10    31    1
    33    12    32    1
    34    13    33    1
    35    15    34    1
    36    16    35    1
    37    17    36    1
    38    17    37    1
    39    18    38    1
    40    18    39    1
