@<TRIPOS>MOLECULE
*****
 46 50 0 0 0
SMALL
GASTEIGER

@<TRIPOS>ATOM
      1 C          -1.0803   -2.7270   -1.8262 C.3     1  UNL1       -0.0445
      2 C          -2.0119   -2.0884   -0.9066 C.3     1  UNL1        0.0295
      3 C          -2.0934   -2.9585    0.3591 C.3     1  UNL1       -0.0445
      4 N          -1.7381   -0.7665   -0.4628 N.ar    1  UNL1       -0.3372
      5 C          -2.6997    0.1569   -0.2898 C.ar    1  UNL1        0.0506
      6 C          -4.0796    0.1189   -0.4650 C.ar    1  UNL1       -0.0341
      7 C          -4.9122    1.1808   -0.2336 C.ar    1  UNL1       -0.0182
      8 C          -4.3648    2.3490    0.1944 C.ar    1  UNL1        0.1176
      9 O          -5.1452    3.4724    0.4511 O.3     1  UNL1       -0.5067
     10 C          -2.9860    2.4365    0.3848 C.ar    1  UNL1       -0.0104
     11 C          -2.1594    1.3559    0.1469 C.ar    1  UNL1        0.0118
     12 C          -0.8157    1.1621    0.2461 C.ar    1  UNL1        0.0206
     13 C           0.2470    1.9719    0.6244 C.ar    1  UNL1        0.0595
     14 C           1.5226    1.4009    0.5989 C.ar    1  UNL1        0.0576
     15 C           1.7384    0.0900    0.2172 C.ar    1  UNL1       -0.0017
     16 C           3.0627   -0.5032    0.1907 C.ar    1  UNL1        0.0012
     17 C           3.6095   -1.1494    1.2790 C.ar    1  UNL1       -0.0526
     18 C           4.8864   -1.6991    1.1926 C.ar    1  UNL1       -0.0611
     19 C           5.6046   -1.6026    0.0324 C.ar    1  UNL1       -0.0603
     20 C           5.0735   -0.9546   -1.0803 C.ar    1  UNL1       -0.0428
     21 C           3.8167   -0.4243   -0.9657 C.ar    1  UNL1        0.0487
     22 CL          3.1346    0.3918   -2.3508 Cl      1  UNL1       -0.0829
     23 C           0.6715   -0.6960   -0.1542 C.ar    1  UNL1       -0.0290
     24 C          -0.5939   -0.1564   -0.1373 C.ar    1  UNL1        0.0517
     25 C           2.4769    2.4043    1.0244 C.2     1  UNL1        0.2518
     26 O           3.7181    2.2392    1.1209 O.2     1  UNL1       -0.2697
     27 N           1.7655    3.5859    1.3068 N.am    1  UNL1       -0.2483
     28 C           0.3801    3.3383    1.0648 C.2     1  UNL1        0.2519
     29 O          -0.4969    4.1895    1.2249 O.2     1  UNL1       -0.2697
     30 H          -0.4754   -2.0257   -2.4446 H       1  UNL1        0.0249
     31 H          -0.4301   -3.5263   -1.3568 H       1  UNL1        0.0249
     32 H          -1.6676   -3.3064   -2.5757 H       1  UNL1        0.0249
     33 H          -3.0362   -2.1287   -1.3271 H       1  UNL1        0.0522
     34 H          -2.3327   -2.3305    1.2511 H       1  UNL1        0.0249
     35 H          -1.1526   -3.5111    0.5255 H       1  UNL1        0.0249
     36 H          -2.9011   -3.7150    0.2692 H       1  UNL1        0.0249
     37 H          -4.5190   -0.8366   -0.8138 H       1  UNL1        0.0639
     38 H          -5.9835    1.0761   -0.3930 H       1  UNL1        0.0655
     39 H          -4.9520    4.3253   -0.0755 H       1  UNL1        0.2921
     40 H          -2.6034    3.3758    0.7221 H       1  UNL1        0.0661
     41 H           3.0138   -1.2080    2.1826 H       1  UNL1        0.0624
     42 H           5.2804   -2.1948    2.0589 H       1  UNL1        0.0618
     43 H           6.5968   -2.0356   -0.0190 H       1  UNL1        0.0618
     44 H           5.6647   -0.8937   -1.9845 H       1  UNL1        0.0632
     45 H           0.8069   -1.6968   -0.4483 H       1  UNL1        0.0645
     46 H           2.1603    4.5135    1.6421 H       1  UNL1        0.1581
@<TRIPOS>BOND
     1     1     2    1
     2     2     3    1
     3     2     4    1
     4     4     5   ar
     5     5     6   ar
     6     6     7   ar
     7     7     8   ar
     8     8     9    1
     9     8    10   ar
    10    10    11   ar
    11    11    12   ar
    12    12    13   ar
    13    13    14   ar
    14    14    15   ar
    15    15    16    1
    16    16    17   ar
    17    17    18   ar
    18    18    19   ar
    19    19    20   ar
    20    20    21   ar
    21    21    22    1
    22    15    23   ar
    23    23    24   ar
    24    14    25    1
    25    25    26    2
    26    25    27   am
    27    27    28   am
    28    28    29    2
    29    24     4   ar
    30    11     5   ar
    31    24    12   ar
    32    28    13    1
    33    21    16   ar
    34     1    30    1
    35     1    31    1
    36     1    32    1
    37     2    33    1
    38     3    34    1
    39     3    35    1
    40     3    36    1
    41     6    37    1
    42     7    38    1
    43     9    39    1
    44    10    40    1
    45    17    41    1
    46    18    42    1
    47    19    43    1
    48    20    44    1
    49    23    45    1
    50    27    46    1
