
     RDKit          3D

 46 50  0  0  0  0  0  0  0  0999 V2000
   -1.0803   -2.7270   -1.8262 C   0  0  0  0  0  0  0  0  0  0  0  0
   -2.0119   -2.0884   -0.9066 C   0  0  0  0  0  0  0  0  0  0  0  0
   -2.0934   -2.9585    0.3591 C   0  0  0  0  0  0  0  0  0  0  0  0
   -1.7381   -0.7665   -0.4628 N   0  0  0  0  0  0  0  0  0  0  0  0
   -2.6997    0.1569   -0.2898 C   0  0  0  0  0  0  0  0  0  0  0  0
   -4.0796    0.1189   -0.4650 C   0  0  0  0  0  0  0  0  0  0  0  0
   -4.9122    1.1808   -0.2336 C   0  0  0  0  0  0  0  0  0  0  0  0
   -4.3648    2.3490    0.1944 C   0  0  0  0  0  0  0  0  0  0  0  0
   -5.1452    3.4724    0.4511 O   0  0  0  0  0  0  0  0  0  0  0  0
   -2.9860    2.4365    0.3848 C   0  0  0  0  0  0  0  0  0  0  0  0
   -2.1594    1.3559    0.1469 C   0  0  0  0  0  0  0  0  0  0  0  0
   -0.8157    1.1621    0.2461 C   0  0  0  0  0  0  0  0  0  0  0  0
    0.2470    1.9719    0.6244 C   0  0  0  0  0  0  0  0  0  0  0  0
    1.5226    1.4009    0.5989 C   0  0  0  0  0  0  0  0  0  0  0  0
    1.7384    0.0900    0.2172 C   0  0  0  0  0  0  0  0  0  0  0  0
    3.0627   -0.5032    0.1907 C   0  0  0  0  0  0  0  0  0  0  0  0
    3.6095   -1.1494    1.2790 C   0  0  0  0  0  0  0  0  0  0  0  0
    4.8864   -1.6991    1.1926 C   0  0  0  0  0  0  0  0  0  0  0  0
    5.6046   -1.6026    0.0324 C   0  0  0  0  0  0  0  0  0  0  0  0
    5.0735   -0.9546   -1.0803 C   0  0  0  0  0  0  0  0  0  0  0  0
    3.8167   -0.4243   -0.9657 C   0  0  0  0  0  0  0  0  0  0  0  0
    3.1346    0.3918   -2.3508 Cl  0  0  0  0  0  0  0  0  0  0  0  0
    0.6715   -0.6960   -0.1542 C   0  0  0  0  0  0  0  0  0  0  0  0
   -0.5939   -0.1564   -0.1373 C   0  0  0  0  0  0  0  0  0  0  0  0
    2.4769    2.4043    1.0244 C   0  0  0  0  0  0  0  0  0  0  0  0
    3.7181    2.2392    1.1209 O   0  0  0  0  0  0  0  0  0  0  0  0
    1.7655    3.5859    1.3068 N   0  0  0  0  0  0  0  0  0  0  0  0
    0.3801    3.3383    1.0648 C   0  0  0  0  0  0  0  0  0  0  0  0
   -0.4969    4.1895    1.2249 O   0  0  0  0  0  0  0  0  0  0  0  0
   -0.4754   -2.0257   -2.4446 H   0  0  0  0  0  0  0  0  0  0  0  0
   -0.4301   -3.5263   -1.3568 H   0  0  0  0  0  0  0  0  0  0  0  0
   -1.6676   -3.3064   -2.5757 H   0  0  0  0  0  0  0  0  0  0  0  0
   -3.0362   -2.1287   -1.3271 H   0  0  0  0  0  0  0  0  0  0  0  0
   -2.3327   -2.3305    1.2511 H   0  0  0  0  0  0  0  0  0  0  0  0
   -1.1526   -3.5111    0.5255 H   0  0  0  0  0  0  0  0  0  0  0  0
   -2.9011   -3.7150    0.2692 H   0  0  0  0  0  0  0  0  0  0  0  0
   -4.5190   -0.8366   -0.8138 H   0  0  0  0  0  0  0  0  0  0  0  0
   -5.9835    1.0761   -0.3930 H   0  0  0  0  0  0  0  0  0  0  0  0
   -4.9520    4.3253   -0.0755 H   0  0  0  0  0  0  0  0  0  0  0  0
   -2.6034    3.3758    0.7221 H   0  0  0  0  0  0  0  0  0  0  0  0
    3.0138   -1.2080    2.1826 H   0  0  0  0  0  0  0  0  0  0  0  0
    5.2804   -2.1948    2.0589 H   0  0  0  0  0  0  0  0  0  0  0  0
    6.5968   -2.0356   -0.0190 H   0  0  0  0  0  0  0  0  0  0  0  0
    5.6647   -0.8937   -1.9845 H   0  0  0  0  0  0  0  0  0  0  0  0
    0.8069   -1.6968   -0.4483 H   0  0  0  0  0  0  0  0  0  0  0  0
    2.1603    4.5135    1.6421 H   0  0  0  0  0  0  0  0  0  0  0  0
  1  2  1  0
  2  3  1  0
  2  4  1  0
  4  5  1  0
  5  6  2  0
  6  7  1  0
  7  8  2  0
  8  9  1  0
  8 10  1  0
 10 11  2  0
 11 12  1  0
 12 13  2  0
 13 14  1  0
 14 15  2  0
 15 16  1  0
 16 17  2  0
 17 18  1  0
 18 19  2  0
 19 20  1  0
 20 21  2  0
 21 22  1  0
 15 23  1  0
 23 24  2  0
 14 25  1  0
 25 26  2  0
 25 27  1  0
 27 28  1  0
 28 29  2  0
 24  4  1  0
 11  5  1  0
 24 12  1  0
 28 13  1  0
 21 16  1  0
  1 30  1  0
  1 31  1  0
  1 32  1  0
  2 33  1  0
  3 34  1  0
  3 35  1  0
  3 36  1  0
  6 37  1  0
  7 38  1  0
  9 39  1  0
 10 40  1  0
 17 41  1  0
 18 42  1  0
 19 43  1  0
 20 44  1  0
 23 45  1  0
 27 46  1  0
M  END
$$$$
