@<TRIPOS>MOLECULE
*****
 50 52 0 0 0
SMALL
GASTEIGER

@<TRIPOS>ATOM
      1 C           6.6973    1.4588    1.0756 C.3     1  UNL1       -0.0652
      2 C           5.4185    0.5935    0.9417 C.3     1  UNL1       -0.0545
      3 C           5.7971   -0.5568    0.0984 C.3     1  UNL1       -0.0370
      4 C           4.7668   -1.5691   -0.2479 C.3     1  UNL1        0.0203
      5 N           3.6286   -1.1057   -0.9613 N.am    1  UNL1       -0.2627
      6 C           3.6024   -1.0046   -2.3967 C.2     1  UNL1        0.2913
      7 O           4.5183   -1.2691   -3.2159 O.2     1  UNL1       -0.2661
      8 C           2.2891   -0.5247   -2.7954 C.2     1  UNL1        0.2496
      9 O           1.8998   -0.3119   -3.9928 O.2     1  UNL1       -0.2817
     10 C           1.5333   -0.3436   -1.5687 C.ar    1  UNL1        0.0516
     11 C           0.2370    0.0789   -1.3983 C.ar    1  UNL1       -0.0225
     12 C          -0.3108    0.1683   -0.1478 C.ar    1  UNL1        0.1077
     13 S          -1.9781    0.7177    0.0828 S.O2    1  UNL1        0.0612
     14 O          -2.0288    1.2596    1.5055 O.2     1  UNL1       -0.1528
     15 O          -2.2205    1.7954   -0.9052 O.2     1  UNL1       -0.1528
     16 N          -3.0473   -0.5935   -0.0409 N.3     1  UNL1       -0.1713
     17 C          -2.7965   -1.5755    0.9639 C.3     1  UNL1        0.0209
     18 C          -4.0773   -1.8073    1.7381 C.3     1  UNL1       -0.0370
     19 C          -4.9366   -0.5950    1.3834 C.3     1  UNL1       -0.0323
     20 C          -4.4244   -0.2728    0.0198 C.3     1  UNL1        0.0552
     21 C          -4.7475    1.1453   -0.3823 C.3     1  UNL1        0.0645
     22 O          -6.1456    1.2893   -0.2642 O.3     1  UNL1       -0.3814
     23 C          -6.5327    2.5840   -0.6204 C.3     1  UNL1        0.0365
     24 C           0.4764   -0.1776    0.9196 C.ar    1  UNL1       -0.0151
     25 C           1.7686   -0.5989    0.7561 C.ar    1  UNL1        0.0649
     26 CL          2.6666   -1.0722    2.1680 Cl      1  UNL1       -0.0815
     27 C           2.3536   -0.6975   -0.4983 C.ar    1  UNL1        0.0661
     28 H           7.0661    1.7599    0.0914 H       1  UNL1        0.0230
     29 H           7.4459    0.8813    1.6662 H       1  UNL1        0.0230
     30 H           6.4016    2.3150    1.7139 H       1  UNL1        0.0230
     31 H           5.1953    0.3306    2.0018 H       1  UNL1        0.0263
     32 H           4.6432    1.2549    0.5603 H       1  UNL1        0.0263
     33 H           6.6497   -1.0848    0.5956 H       1  UNL1        0.0280
     34 H           6.2831   -0.1228   -0.8327 H       1  UNL1        0.0280
     35 H           4.4255   -2.1220    0.6769 H       1  UNL1        0.0469
     36 H           5.3198   -2.3861   -0.8116 H       1  UNL1        0.0469
     37 H          -0.3685    0.3466   -2.2501 H       1  UNL1        0.0645
     38 H          -2.5362   -2.5273    0.4299 H       1  UNL1        0.0444
     39 H          -2.0139   -1.2518    1.6496 H       1  UNL1        0.0444
     40 H          -3.9272   -1.8515    2.8264 H       1  UNL1        0.0279
     41 H          -4.6090   -2.7031    1.3850 H       1  UNL1        0.0279
     42 H          -6.0073   -0.8995    1.2889 H       1  UNL1        0.0282
     43 H          -4.8172    0.2261    2.1138 H       1  UNL1        0.0282
     44 H          -4.9644   -0.9385   -0.7118 H       1  UNL1        0.0502
     45 H          -4.4970    1.3569   -1.4196 H       1  UNL1        0.0576
     46 H          -4.3091    1.8386    0.3612 H       1  UNL1        0.0576
     47 H          -7.6332    2.6226   -0.5040 H       1  UNL1        0.0523
     48 H          -6.2105    2.7384   -1.6789 H       1  UNL1        0.0523
     49 H          -6.0022    3.3116    0.0289 H       1  UNL1        0.0523
     50 H           0.0584   -0.1101    1.9127 H       1  UNL1        0.0652
@<TRIPOS>BOND
     1     1     2    1
     2     2     3    1
     3     3     4    1
     4     4     5    1
     5     5     6   am
     6     6     7    2
     7     6     8    1
     8     8     9    2
     9     8    10    1
    10    10    11   ar
    11    11    12   ar
    12    12    13    1
    13    13    14    2
    14    13    15    2
    15    13    16    1
    16    16    17    1
    17    17    18    1
    18    18    19    1
    19    19    20    1
    20    20    21    1
    21    21    22    1
    22    22    23    1
    23    12    24   ar
    24    24    25   ar
    25    25    26    1
    26    25    27   ar
    27    27     5    1
    28    27    10   ar
    29    20    16    1
    30     1    28    1
    31     1    29    1
    32     1    30    1
    33     2    31    1
    34     2    32    1
    35     3    33    1
    36     3    34    1
    37     4    35    1
    38     4    36    1
    39    11    37    1
    40    17    38    1
    41    17    39    1
    42    18    40    1
    43    18    41    1
    44    19    42    1
    45    19    43    1
    46    20    44    1
    47    21    45    1
    48    21    46    1
    49    23    47    1
    50    23    48    1
    51    23    49    1
    52    24    50    1
