
     RDKit          3D

 46 48  0  0  0  0  0  0  0  0999 V2000
   -2.1648   -2.9882    1.4043 C   0  0  0  0  0  0  0  0  0  0  0  0
   -3.0490   -1.9607    0.7295 C   0  0  0  0  0  0  0  0  0  0  0  0
   -2.4337   -1.6298   -0.6050 C   0  0  0  0  0  0  0  0  0  0  0  0
   -2.2155   -0.1640   -0.8036 C   0  0  0  0  0  0  0  0  0  0  0  0
   -1.6319    0.5015    0.3183 N   0  0  0  0  0  0  0  0  0  0  0  0
   -2.0266    0.1475    1.6706 C   0  0  0  0  0  0  0  0  0  0  0  0
   -3.2314   -0.7365    1.5940 C   0  0  0  0  0  0  0  0  0  0  0  0
   -0.6363    1.5477    0.3796 C   0  0  0  0  0  0  0  0  0  0  0  0
   -1.1275    2.7216    0.9130 C   0  0  0  0  0  0  0  0  0  0  0  0
   -0.3344    3.8602    1.0499 C   0  0  0  0  0  0  0  0  0  0  0  0
    0.9691    3.7681    0.6291 C   0  0  0  0  0  0  0  0  0  0  0  0
    1.8403    4.9554    0.7583 C   0  0  0  0  0  0  0  0  0  0  0  0
    2.5151    5.0223    1.9632 O   0  0  0  0  0  0  0  0  0  0  0  0
    1.4106    2.5842    0.1076 C   0  0  0  0  0  0  0  0  0  0  0  0
    0.6675    1.4387   -0.0466 C   0  0  0  0  0  0  0  0  0  0  0  0
    1.1035    0.2037   -0.5789 N   0  0  0  0  0  0  0  0  0  0  0  0
    2.3644   -0.1506   -1.0854 C   0  0  0  0  0  0  0  0  0  0  0  0
    3.2764    0.7011   -1.0964 O   0  0  0  0  0  0  0  0  0  0  0  0
    2.6844   -1.4704   -1.6083 C   0  0  0  0  0  0  0  0  0  0  0  0
    1.8315   -2.5360   -1.6812 C   0  0  0  0  0  0  0  0  0  0  0  0
    2.4909   -3.6196   -2.2351 C   0  0  0  0  0  0  0  0  0  0  0  0
    3.7583   -3.1346   -2.4782 C   0  0  0  0  0  0  0  0  0  0  0  0
    3.8197   -1.8903   -2.0994 O   0  0  0  0  0  0  0  0  0  0  0  0
    4.8488   -3.8521   -3.0504 C   0  0  0  0  0  0  0  0  0  0  0  0
    5.7333   -4.4435   -3.5291 N   0  0  0  0  0  0  0  0  0  0  0  0
   -1.0888   -2.8491    1.1519 H   0  0  0  0  0  0  0  0  0  0  0  0
   -2.3473   -2.9682    2.5145 H   0  0  0  0  0  0  0  0  0  0  0  0
   -2.5120   -4.0002    1.0448 H   0  0  0  0  0  0  0  0  0  0  0  0
   -4.0572   -2.4127    0.6268 H   0  0  0  0  0  0  0  0  0  0  0  0
   -3.1245   -1.9760   -1.4028 H   0  0  0  0  0  0  0  0  0  0  0  0
   -1.4682   -2.1521   -0.7542 H   0  0  0  0  0  0  0  0  0  0  0  0
   -1.6000    0.0159   -1.6988 H   0  0  0  0  0  0  0  0  0  0  0  0
   -3.1837    0.3744   -1.0126 H   0  0  0  0  0  0  0  0  0  0  0  0
   -1.2423   -0.3909    2.2255 H   0  0  0  0  0  0  0  0  0  0  0  0
   -2.3103    1.0319    2.2634 H   0  0  0  0  0  0  0  0  0  0  0  0
   -4.1538   -0.1912    1.2928 H   0  0  0  0  0  0  0  0  0  0  0  0
   -3.4389   -1.0898    2.6315 H   0  0  0  0  0  0  0  0  0  0  0  0
   -2.1432    2.8454    1.2579 H   0  0  0  0  0  0  0  0  0  0  0  0
   -0.7190    4.7741    1.4657 H   0  0  0  0  0  0  0  0  0  0  0  0
    2.6105    4.9519   -0.0533 H   0  0  0  0  0  0  0  0  0  0  0  0
    1.2100    5.8444    0.5636 H   0  0  0  0  0  0  0  0  0  0  0  0
    3.3284    4.4394    1.8635 H   0  0  0  0  0  0  0  0  0  0  0  0
    2.4428    2.5892   -0.1998 H   0  0  0  0  0  0  0  0  0  0  0  0
    0.4330   -0.5935   -0.6224 H   0  0  0  0  0  0  0  0  0  0  0  0
    0.8162   -2.5163   -1.3557 H   0  0  0  0  0  0  0  0  0  0  0  0
    2.0856   -4.6025   -2.4221 H   0  0  0  0  0  0  0  0  0  0  0  0
  1  2  1  0
  2  3  1  0
  3  4  1  0
  4  5  1  0
  5  6  1  0
  6  7  1  0
  5  8  1  0
  8  9  2  0
  9 10  1  0
 10 11  2  0
 11 12  1  0
 12 13  1  0
 11 14  1  0
 14 15  2  0
 15 16  1  0
 16 17  1  0
 17 18  2  0
 17 19  1  0
 19 20  2  0
 20 21  1  0
 21 22  2  0
 22 23  1  0
 22 24  1  0
 24 25  3  0
  7  2  1  0
 15  8  1  0
 23 19  1  0
  1 26  1  0
  1 27  1  0
  1 28  1  0
  2 29  1  0
  3 30  1  0
  3 31  1  0
  4 32  1  0
  4 33  1  0
  6 34  1  0
  6 35  1  0
  7 36  1  0
  7 37  1  0
  9 38  1  0
 10 39  1  0
 12 40  1  0
 12 41  1  0
 13 42  1  0
 14 43  1  0
 16 44  1  0
 20 45  1  0
 21 46  1  0
M  END
$$$$
