@<TRIPOS>MOLECULE
*****
 46 48 0 0 0
SMALL
GASTEIGER

@<TRIPOS>ATOM
      1 C          -2.1648   -2.9882    1.4043 C.3     1  UNL1       -0.0623
      2 C          -3.0490   -1.9607    0.7295 C.3     1  UNL1       -0.0410
      3 C          -2.4337   -1.6298   -0.6050 C.3     1  UNL1       -0.0346
      4 C          -2.2155   -0.1640   -0.8036 C.3     1  UNL1        0.0125
      5 N          -1.6319    0.5015    0.3183 N.pl3   1  UNL1       -0.3284
      6 C          -2.0266    0.1475    1.6706 C.3     1  UNL1        0.0125
      7 C          -3.2314   -0.7365    1.5940 C.3     1  UNL1       -0.0346
      8 C          -0.6363    1.5477    0.3796 C.ar    1  UNL1        0.0512
      9 C          -1.1275    2.7216    0.9130 C.ar    1  UNL1       -0.0385
     10 C          -0.3344    3.8602    1.0499 C.ar    1  UNL1       -0.0545
     11 C           0.9691    3.7681    0.6291 C.ar    1  UNL1       -0.0203
     12 C           1.8403    4.9554    0.7583 C.3     1  UNL1        0.0693
     13 O           2.5151    5.0223    1.9632 O.3     1  UNL1       -0.3904
     14 C           1.4106    2.5842    0.1076 C.ar    1  UNL1       -0.0333
     15 C           0.6675    1.4387   -0.0466 C.ar    1  UNL1        0.0553
     16 N           1.1035    0.2037   -0.5789 N.am    1  UNL1       -0.2774
     17 C           2.3644   -0.1506   -1.0854 C.2     1  UNL1        0.2836
     18 O           3.2764    0.7011   -1.0964 O.2     1  UNL1       -0.2665
     19 C           2.6844   -1.4704   -1.6083 C.ar    1  UNL1        0.1912
     20 C           1.8315   -2.5360   -1.6812 C.ar    1  UNL1       -0.0099
     21 C           2.4909   -3.6196   -2.2351 C.ar    1  UNL1       -0.0050
     22 C           3.7583   -3.1346   -2.4782 C.ar    1  UNL1        0.2045
     23 O           3.8197   -1.8903   -2.0994 O.2     1  UNL1       -0.4400
     24 C           4.8488   -3.8521   -3.0504 C.1     1  UNL1        0.1377
     25 N           5.7333   -4.4435   -3.5291 N.1     1  UNL1       -0.1877
     26 H          -1.0888   -2.8491    1.1519 H       1  UNL1        0.0232
     27 H          -2.3473   -2.9682    2.5145 H       1  UNL1        0.0232
     28 H          -2.5120   -4.0002    1.0448 H       1  UNL1        0.0232
     29 H          -4.0572   -2.4127    0.6268 H       1  UNL1        0.0299
     30 H          -3.1245   -1.9760   -1.4028 H       1  UNL1        0.0283
     31 H          -1.4682   -2.1521   -0.7542 H       1  UNL1        0.0283
     32 H          -1.6000    0.0159   -1.6988 H       1  UNL1        0.0464
     33 H          -3.1837    0.3744   -1.0126 H       1  UNL1        0.0464
     34 H          -1.2423   -0.3909    2.2255 H       1  UNL1        0.0464
     35 H          -2.3103    1.0319    2.2634 H       1  UNL1        0.0464
     36 H          -4.1538   -0.1912    1.2928 H       1  UNL1        0.0283
     37 H          -3.4389   -1.0898    2.6315 H       1  UNL1        0.0283
     38 H          -2.1432    2.8454    1.2579 H       1  UNL1        0.0637
     39 H          -0.7190    4.7741    1.4657 H       1  UNL1        0.0622
     40 H           2.6105    4.9519   -0.0533 H       1  UNL1        0.0607
     41 H           1.2100    5.8444    0.5636 H       1  UNL1        0.0607
     42 H           3.3284    4.4394    1.8635 H       1  UNL1        0.2098
     43 H           2.4428    2.5892   -0.1998 H       1  UNL1        0.0640
     44 H           0.4330   -0.5935   -0.6224 H       1  UNL1        0.1553
     45 H           0.8162   -2.5163   -1.3557 H       1  UNL1        0.0657
     46 H           2.0856   -4.6025   -2.4221 H       1  UNL1        0.0663
@<TRIPOS>BOND
     1     1     2    1
     2     2     3    1
     3     3     4    1
     4     4     5    1
     5     5     6    1
     6     6     7    1
     7     5     8    1
     8     8     9   ar
     9     9    10   ar
    10    10    11   ar
    11    11    12    1
    12    12    13    1
    13    11    14   ar
    14    14    15   ar
    15    15    16    1
    16    16    17   am
    17    17    18    2
    18    17    19    1
    19    19    20   ar
    20    20    21   ar
    21    21    22   ar
    22    22    23   ar
    23    22    24    1
    24    24    25    3
    25     7     2    1
    26    15     8   ar
    27    23    19   ar
    28     1    26    1
    29     1    27    1
    30     1    28    1
    31     2    29    1
    32     3    30    1
    33     3    31    1
    34     4    32    1
    35     4    33    1
    36     6    34    1
    37     6    35    1
    38     7    36    1
    39     7    37    1
    40     9    38    1
    41    10    39    1
    42    12    40    1
    43    12    41    1
    44    13    42    1
    45    14    43    1
    46    16    44    1
    47    20    45    1
    48    21    46    1
