@<TRIPOS>MOLECULE
*****
 43 46 0 0 0
SMALL
GASTEIGER

@<TRIPOS>ATOM
      1 C          -6.7110    1.5704   -0.1685 C.3     1  UNL1       -0.0453
      2 C          -6.7561    0.1398    0.3189 C.3     1  UNL1        0.0681
      3 S          -5.8760   -0.9519   -0.7654 S.O2    1  UNL1       -0.0033
      4 O          -6.5655   -0.9383   -2.1055 O.2     1  UNL1       -0.1694
      5 O          -5.9720   -2.3359   -0.1869 O.2     1  UNL1       -0.1694
      6 C          -4.2027   -0.5317   -0.9168 C.ar    1  UNL1        0.0902
      7 C          -3.7169    0.3322   -1.8706 C.ar    1  UNL1       -0.0347
      8 C          -2.3701    0.6258   -1.9377 C.ar    1  UNL1       -0.0324
      9 C          -1.4702    0.0659   -1.0553 C.ar    1  UNL1        0.0896
     10 N          -0.1417    0.1563   -0.8771 N.ar    1  UNL1       -0.2262
     11 C           0.2470   -0.6159    0.1544 C.ar    1  UNL1        0.1577
     12 C           1.6187   -0.7917    0.6685 C.ar    1  UNL1        0.1067
     13 C           1.8089   -1.6375    1.7472 C.ar    1  UNL1       -0.0327
     14 C           3.0657   -1.8277    2.2539 C.ar    1  UNL1       -0.0576
     15 C           4.1088   -1.1277    1.6224 C.ar    1  UNL1       -0.0357
     16 C           3.9126   -0.2988    0.5631 C.ar    1  UNL1        0.0718
     17 C           5.0219    0.3982   -0.0504 C.ar    1  UNL1        0.0004
     18 C           4.7708    1.2264   -1.1209 C.ar    1  UNL1       -0.0526
     19 C           5.7849    1.9286   -1.7615 C.ar    1  UNL1       -0.0611
     20 C           7.0566    1.7559   -1.2729 C.ar    1  UNL1       -0.0617
     21 C           7.3579    0.9410   -0.2079 C.ar    1  UNL1       -0.0611
     22 C           6.2931    0.2555    0.4012 C.ar    1  UNL1       -0.0526
     23 N           2.6456   -0.1471    0.1012 N.ar    1  UNL1       -0.2436
     24 N          -0.8639   -1.1890    0.6156 N.ar    1  UNL1       -0.3366
     25 C          -1.9494   -0.8116   -0.0833 C.ar    1  UNL1        0.0683
     26 C          -3.3040   -1.0895   -0.0372 C.ar    1  UNL1       -0.0114
     27 H          -6.0519    2.1357    0.5232 H       1  UNL1        0.0245
     28 H          -6.3793    1.6488   -1.2263 H       1  UNL1        0.0245
     29 H          -7.7171    2.0566   -0.1268 H       1  UNL1        0.0245
     30 H          -7.8216   -0.1848    0.3057 H       1  UNL1        0.0501
     31 H          -6.3985    0.0337    1.3598 H       1  UNL1        0.0501
     32 H          -4.4183    0.7671   -2.5564 H       1  UNL1        0.0637
     33 H          -1.9666    1.3058   -2.6837 H       1  UNL1        0.0640
     34 H           0.9749   -2.1545    2.1999 H       1  UNL1        0.0640
     35 H           3.2750   -2.4809    3.1005 H       1  UNL1        0.0619
     36 H           5.0776   -1.3068    2.0528 H       1  UNL1        0.0639
     37 H           3.7712    1.3788   -1.5254 H       1  UNL1        0.0624
     38 H           5.5987    2.5830   -2.6047 H       1  UNL1        0.0618
     39 H           7.8593    2.2954   -1.7599 H       1  UNL1        0.0618
     40 H           8.3796    0.8211    0.1616 H       1  UNL1        0.0618
     41 H           6.5696   -0.3724    1.2314 H       1  UNL1        0.0624
     42 H          -0.9031   -1.8492    1.4167 H       1  UNL1        0.1674
     43 H          -3.6424   -1.7791    0.7348 H       1  UNL1        0.0658
@<TRIPOS>BOND
     1     1     2    1
     2     2     3    1
     3     3     4    2
     4     3     5    2
     5     3     6    1
     6     6     7   ar
     7     7     8   ar
     8     8     9   ar
     9     9    10   ar
    10    10    11   ar
    11    11    12    1
    12    12    13   ar
    13    13    14   ar
    14    14    15   ar
    15    15    16   ar
    16    16    17    1
    17    17    18   ar
    18    18    19   ar
    19    19    20   ar
    20    20    21   ar
    21    21    22   ar
    22    16    23   ar
    23    11    24   ar
    24    24    25   ar
    25    25    26   ar
    26    26     6   ar
    27    25     9   ar
    28    23    12   ar
    29    22    17   ar
    30     1    27    1
    31     1    28    1
    32     1    29    1
    33     2    30    1
    34     2    31    1
    35     7    32    1
    36     8    33    1
    37    13    34    1
    38    14    35    1
    39    15    36    1
    40    18    37    1
    41    19    38    1
    42    20    39    1
    43    21    40    1
    44    22    41    1
    45    24    42    1
    46    26    43    1
