
     RDKit          3D

 43 46  0  0  0  0  0  0  0  0999 V2000
   -6.7110    1.5704   -0.1685 C   0  0  0  0  0  0  0  0  0  0  0  0
   -6.7561    0.1398    0.3189 C   0  0  0  0  0  0  0  0  0  0  0  0
   -5.8760   -0.9519   -0.7654 S   0  0  0  0  0  6  0  0  0  0  0  0
   -6.5655   -0.9383   -2.1055 O   0  0  0  0  0  0  0  0  0  0  0  0
   -5.9720   -2.3359   -0.1869 O   0  0  0  0  0  0  0  0  0  0  0  0
   -4.2027   -0.5317   -0.9168 C   0  0  0  0  0  0  0  0  0  0  0  0
   -3.7169    0.3322   -1.8706 C   0  0  0  0  0  0  0  0  0  0  0  0
   -2.3701    0.6258   -1.9377 C   0  0  0  0  0  0  0  0  0  0  0  0
   -1.4702    0.0659   -1.0553 C   0  0  0  0  0  0  0  0  0  0  0  0
   -0.1417    0.1563   -0.8771 N   0  0  0  0  0  0  0  0  0  0  0  0
    0.2470   -0.6159    0.1544 C   0  0  0  0  0  0  0  0  0  0  0  0
    1.6187   -0.7917    0.6685 C   0  0  0  0  0  0  0  0  0  0  0  0
    1.8089   -1.6375    1.7472 C   0  0  0  0  0  0  0  0  0  0  0  0
    3.0657   -1.8277    2.2539 C   0  0  0  0  0  0  0  0  0  0  0  0
    4.1088   -1.1277    1.6224 C   0  0  0  0  0  0  0  0  0  0  0  0
    3.9126   -0.2988    0.5631 C   0  0  0  0  0  0  0  0  0  0  0  0
    5.0219    0.3982   -0.0504 C   0  0  0  0  0  0  0  0  0  0  0  0
    4.7708    1.2264   -1.1209 C   0  0  0  0  0  0  0  0  0  0  0  0
    5.7849    1.9286   -1.7615 C   0  0  0  0  0  0  0  0  0  0  0  0
    7.0566    1.7559   -1.2729 C   0  0  0  0  0  0  0  0  0  0  0  0
    7.3579    0.9410   -0.2079 C   0  0  0  0  0  0  0  0  0  0  0  0
    6.2931    0.2555    0.4012 C   0  0  0  0  0  0  0  0  0  0  0  0
    2.6456   -0.1471    0.1012 N   0  0  0  0  0  0  0  0  0  0  0  0
   -0.8639   -1.1890    0.6156 N   0  0  0  0  0  0  0  0  0  0  0  0
   -1.9494   -0.8116   -0.0833 C   0  0  0  0  0  0  0  0  0  0  0  0
   -3.3040   -1.0895   -0.0372 C   0  0  0  0  0  0  0  0  0  0  0  0
   -6.0519    2.1357    0.5232 H   0  0  0  0  0  0  0  0  0  0  0  0
   -6.3793    1.6488   -1.2263 H   0  0  0  0  0  0  0  0  0  0  0  0
   -7.7171    2.0566   -0.1268 H   0  0  0  0  0  0  0  0  0  0  0  0
   -7.8216   -0.1848    0.3057 H   0  0  0  0  0  0  0  0  0  0  0  0
   -6.3985    0.0337    1.3598 H   0  0  0  0  0  0  0  0  0  0  0  0
   -4.4183    0.7671   -2.5564 H   0  0  0  0  0  0  0  0  0  0  0  0
   -1.9666    1.3058   -2.6837 H   0  0  0  0  0  0  0  0  0  0  0  0
    0.9749   -2.1545    2.1999 H   0  0  0  0  0  0  0  0  0  0  0  0
    3.2750   -2.4809    3.1005 H   0  0  0  0  0  0  0  0  0  0  0  0
    5.0776   -1.3068    2.0528 H   0  0  0  0  0  0  0  0  0  0  0  0
    3.7712    1.3788   -1.5254 H   0  0  0  0  0  0  0  0  0  0  0  0
    5.5987    2.5830   -2.6047 H   0  0  0  0  0  0  0  0  0  0  0  0
    7.8593    2.2954   -1.7599 H   0  0  0  0  0  0  0  0  0  0  0  0
    8.3796    0.8211    0.1616 H   0  0  0  0  0  0  0  0  0  0  0  0
    6.5696   -0.3724    1.2314 H   0  0  0  0  0  0  0  0  0  0  0  0
   -0.9031   -1.8492    1.4167 H   0  0  0  0  0  0  0  0  0  0  0  0
   -3.6424   -1.7791    0.7348 H   0  0  0  0  0  0  0  0  0  0  0  0
  1  2  1  0
  2  3  1  0
  3  4  2  0
  3  5  2  0
  3  6  1  0
  6  7  2  0
  7  8  1  0
  8  9  2  0
  9 10  1  0
 10 11  2  0
 11 12  1  0
 12 13  2  0
 13 14  1  0
 14 15  2  0
 15 16  1  0
 16 17  1  0
 17 18  2  0
 18 19  1  0
 19 20  2  0
 20 21  1  0
 21 22  2  0
 16 23  2  0
 11 24  1  0
 24 25  1  0
 25 26  2  0
 26  6  1  0
 25  9  1  0
 23 12  1  0
 22 17  1  0
  1 27  1  0
  1 28  1  0
  1 29  1  0
  2 30  1  0
  2 31  1  0
  7 32  1  0
  8 33  1  0
 13 34  1  0
 14 35  1  0
 15 36  1  0
 18 37  1  0
 19 38  1  0
 20 39  1  0
 21 40  1  0
 22 41  1  0
 24 42  1  0
 26 43  1  0
M  END
$$$$
