@<TRIPOS>MOLECULE
*****
 20 21 0 0 0
SMALL
GASTEIGER

@<TRIPOS>ATOM
      1 N           4.2631    0.5193    0.7267 N.3     1  UNL1       -0.2016
      2 S           3.4269   -0.9055    0.2457 S.O2    1  UNL1        0.0798
      3 O           3.5902   -1.9642    1.3091 O.2     1  UNL1       -0.1512
      4 O           3.7944   -1.3868   -1.1031 O.2     1  UNL1       -0.1512
      5 C           1.6804   -0.5874    0.1308 C.ar    1  UNL1        0.2332
      6 N           0.9583   -0.2311   -0.6835 N.ar    1  UNL1       -0.2206
      7 C          -0.3380   -0.0316   -0.6490 C.ar    1  UNL1        0.0806
      8 C          -0.9163   -0.2900    0.5480 C.ar    1  UNL1        0.0443
      9 S           0.4948   -0.8281    1.6017 S.2     1  UNL1       -0.0472
     10 C          -2.2645   -0.1688    0.8774 C.ar    1  UNL1       -0.0043
     11 C          -3.1407    0.2591   -0.0958 C.ar    1  UNL1        0.1180
     12 O          -4.4732    0.3829    0.2161 O.3     1  UNL1       -0.5067
     13 C          -2.5572    0.5303   -1.3392 C.ar    1  UNL1       -0.0181
     14 C          -1.2240    0.3960   -1.6157 C.ar    1  UNL1       -0.0317
     15 H           4.4144    0.5605    1.7568 H       1  UNL1        0.1443
     16 H           3.8408    1.3893    0.3464 H       1  UNL1        0.1443
     17 H          -2.5325   -0.4228    1.8886 H       1  UNL1        0.0666
     18 H          -4.8388    1.2569    0.6012 H       1  UNL1        0.2921
     19 H          -3.2557    0.8736   -2.1225 H       1  UNL1        0.0655
     20 H          -0.9224    0.6482   -2.6395 H       1  UNL1        0.0640
@<TRIPOS>BOND
     1     1     2    1
     2     2     3    2
     3     2     4    2
     4     2     5    1
     5     5     6   ar
     6     6     7   ar
     7     7     8   ar
     8     8     9   ar
     9     8    10   ar
    10    10    11   ar
    11    11    12    1
    12    11    13   ar
    13    13    14   ar
    14     9     5   ar
    15    14     7   ar
    16     1    15    1
    17     1    16    1
    18    10    17    1
    19    12    18    1
    20    13    19    1
    21    14    20    1
