@<TRIPOS>MOLECULE
*****
 72 75 0 0 0
SMALL
GASTEIGER

@<TRIPOS>ATOM
      1 C           5.5885    0.2438    0.7082 C.3     1  UNL1       -0.0353
      2 C           5.7003    1.2406   -0.3892 C.ar    1  UNL1        0.0112
      3 C           4.6966    1.8019   -1.1148 C.ar    1  UNL1        0.1938
      4 C           3.2521    1.5204   -1.0886 C.2     1  UNL1        0.2839
      5 O           2.4765    2.4124   -1.5997 O.2     1  UNL1       -0.2665
      6 N           2.6361    0.3803   -0.5699 N.am    1  UNL1       -0.2790
      7 C           1.2564    0.0744   -0.5209 C.ar    1  UNL1        0.0338
      8 C           0.9029   -1.1395    0.0879 C.ar    1  UNL1       -0.0399
      9 C          -0.4128   -1.5577    0.1890 C.ar    1  UNL1       -0.0523
     10 C          -1.4310   -0.7847   -0.3117 C.ar    1  UNL1       -0.0178
     11 C          -2.8257   -1.2063   -0.2236 C.ar    1  UNL1       -0.0178
     12 C          -3.7231   -0.8256   -1.2189 C.ar    1  UNL1       -0.0522
     13 C          -5.0531   -1.2054   -1.1795 C.ar    1  UNL1       -0.0348
     14 C          -5.5412   -1.9765   -0.1520 C.ar    1  UNL1        0.1053
     15 S          -7.2240   -2.4265   -0.1549 S.O2    1  UNL1        0.0591
     16 O          -7.3274   -3.7621    0.5514 O.2     1  UNL1       -0.1530
     17 O          -7.7476   -2.6205   -1.5448 O.2     1  UNL1       -0.1530
     18 N          -8.1143   -1.2439    0.7224 N.3     1  UNL1       -0.1759
     19 C          -8.0557    0.0716    0.1705 C.3     1  UNL1        0.1276
     20 C          -7.4044    1.0375    1.1199 C.2     1  UNL1        0.3238
     21 O          -7.2740    2.2393    0.7743 O.2     1  UNL1       -0.2492
     22 O          -6.9522    0.6275    2.3534 O.3     1  UNL1       -0.4795
     23 C          -9.4673    0.5299   -0.1439 C.3     1  UNL1       -0.0194
     24 C         -10.2863    0.5461    1.1350 C.3     1  UNL1       -0.0607
     25 C         -10.0954   -0.5130   -1.0459 C.3     1  UNL1       -0.0607
     26 C          -4.6669   -2.3613    0.8404 C.ar    1  UNL1       -0.0348
     27 C          -3.3301   -1.9789    0.7999 C.ar    1  UNL1       -0.0522
     28 C          -1.0791    0.3987   -0.9041 C.ar    1  UNL1       -0.0523
     29 C           0.2591    0.8317   -1.0110 C.ar    1  UNL1       -0.0399
     30 O           5.2426    2.7127   -1.9268 O.2     1  UNL1       -0.4498
     31 C           6.5340    2.7543   -1.7559 C.ar    1  UNL1        0.1398
     32 C           7.5240    3.5364   -2.3622 C.ar    1  UNL1       -0.0171
     33 C           8.8157    3.3436   -1.9550 C.ar    1  UNL1       -0.0363
     34 C           9.1657    2.4238   -0.9903 C.ar    1  UNL1        0.0834
     35 CL         10.8389    2.2485   -0.5016 Cl      1  UNL1       -0.0797
     36 C           8.1754    1.6362   -0.3825 C.ar    1  UNL1        0.1501
     37 O           8.5507    0.7031    0.5884 O.3     1  UNL1       -0.4872
     38 C           8.9608   -0.5991    0.2085 C.3     1  UNL1        0.0947
     39 C          10.4341   -0.7676    0.5685 C.3     1  UNL1       -0.0281
     40 C           8.2300   -1.7245    0.8505 C.3     1  UNL1       -0.0281
     41 C           6.8896    1.8367   -0.7907 C.ar    1  UNL1        0.0669
     42 H           6.4406    0.4002    1.4281 H       1  UNL1        0.0279
     43 H           4.6876    0.4695    1.3537 H       1  UNL1        0.0279
     44 H           5.5220   -0.7649    0.3461 H       1  UNL1        0.0279
     45 H           3.3081   -0.3694   -0.1844 H       1  UNL1        0.1552
     46 H           1.6656   -1.7977    0.5052 H       1  UNL1        0.0636
     47 H          -0.6382   -2.5011    0.6659 H       1  UNL1        0.0624
     48 H          -3.3183   -0.2118   -2.0291 H       1  UNL1        0.0624
     49 H          -5.6661   -0.8527   -2.0147 H       1  UNL1        0.0637
     50 H          -7.9908   -1.3188    1.7416 H       1  UNL1        0.1489
     51 H          -7.4546    0.0632   -0.7410 H       1  UNL1        0.0595
     52 H          -6.1801    1.1230    2.8151 H       1  UNL1        0.2951
     53 H          -9.5047    1.5294   -0.5829 H       1  UNL1        0.0316
     54 H         -10.2738    1.5544    1.6083 H       1  UNL1        0.0233
     55 H         -11.3342    0.3314    0.8596 H       1  UNL1        0.0233
     56 H          -9.9292   -0.1819    1.8831 H       1  UNL1        0.0233
     57 H          -9.5142   -0.5678   -1.9639 H       1  UNL1        0.0233
     58 H         -11.1575   -0.2464   -1.2415 H       1  UNL1        0.0233
     59 H         -10.0121   -1.4769   -0.5145 H       1  UNL1        0.0233
     60 H          -5.0230   -2.9770    1.6757 H       1  UNL1        0.0637
     61 H          -2.6289   -2.2796    1.5841 H       1  UNL1        0.0624
     62 H          -1.8115    1.0549   -1.3160 H       1  UNL1        0.0624
     63 H           0.4603    1.7756   -1.4923 H       1  UNL1        0.0636
     64 H           7.2315    4.2524   -3.1180 H       1  UNL1        0.0655
     65 H           9.5962    3.9490   -2.4211 H       1  UNL1        0.0634
     66 H           8.8626   -0.6758   -0.9019 H       1  UNL1        0.0727
     67 H          10.6840   -0.0383    1.3567 H       1  UNL1        0.0265
     68 H          11.0475   -0.6767   -0.3460 H       1  UNL1        0.0265
     69 H          10.5799   -1.8203    0.9525 H       1  UNL1        0.0265
     70 H           7.4359   -2.1641    0.2101 H       1  UNL1        0.0265
     71 H           7.8303   -1.4795    1.8648 H       1  UNL1        0.0265
     72 H           8.9669   -2.5606    1.0352 H       1  UNL1        0.0265
@<TRIPOS>BOND
     1     1     2    1
     2     2     3   ar
     3     3     4    1
     4     4     5    2
     5     4     6   am
     6     6     7    1
     7     7     8   ar
     8     8     9   ar
     9     9    10   ar
    10    10    11    1
    11    11    12   ar
    12    12    13   ar
    13    13    14   ar
    14    14    15    1
    15    15    16    2
    16    15    17    2
    17    15    18    1
    18    18    19    1
    19    19    20    1
    20    20    21    2
    21    20    22    1
    22    19    23    1
    23    23    24    1
    24    23    25    1
    25    14    26   ar
    26    26    27   ar
    27    10    28   ar
    28    28    29   ar
    29     3    30   ar
    30    30    31   ar
    31    31    32   ar
    32    32    33   ar
    33    33    34   ar
    34    34    35    1
    35    34    36   ar
    36    36    37    1
    37    37    38    1
    38    38    39    1
    39    38    40    1
    40    36    41   ar
    41    41     2   ar
    42    29     7   ar
    43    41    31   ar
    44    27    11   ar
    45     1    42    1
    46     1    43    1
    47     1    44    1
    48     6    45    1
    49     8    46    1
    50     9    47    1
    51    12    48    1
    52    13    49    1
    53    18    50    1
    54    19    51    1
    55    22    52    1
    56    23    53    1
    57    24    54    1
    58    24    55    1
    59    24    56    1
    60    25    57    1
    61    25    58    1
    62    25    59    1
    63    26    60    1
    64    27    61    1
    65    28    62    1
    66    29    63    1
    67    32    64    1
    68    33    65    1
    69    38    66    1
    70    39    67    1
    71    39    68    1
    72    39    69    1
    73    40    70    1
    74    40    71    1
    75    40    72    1
