@<TRIPOS>MOLECULE
*****
 74 77 0 0 0
SMALL
GASTEIGER

@<TRIPOS>ATOM
      1 C          -7.1315    0.8536    2.0935 C.3     1  UNL1       -0.0607
      2 C          -6.1355    1.1397    0.9963 C.3     1  UNL1       -0.0194
      3 C          -5.2390    2.2740    1.4405 C.3     1  UNL1       -0.0607
      4 C          -6.8082    1.5182   -0.3046 C.3     1  UNL1        0.1276
      5 N          -7.6664    0.4938   -0.8059 N.3     1  UNL1       -0.1759
      6 S          -7.1333    0.0223   -2.3740 S.O2    1  UNL1        0.0591
      7 O          -8.0296   -1.0455   -2.9539 O.2     1  UNL1       -0.1530
      8 O          -7.1661    1.1772   -3.3356 O.2     1  UNL1       -0.1530
      9 C          -5.5163   -0.6234   -2.2743 C.ar    1  UNL1        0.1053
     10 C          -5.4200   -1.9789   -1.9511 C.ar    1  UNL1       -0.0348
     11 C          -4.1530   -2.5098   -1.8738 C.ar    1  UNL1       -0.0522
     12 C          -3.0064   -1.7898   -2.0935 C.ar    1  UNL1       -0.0178
     13 C          -1.6694   -2.3653   -2.0070 C.ar    1  UNL1       -0.0179
     14 C          -1.4080   -3.3772   -1.1325 C.ar    1  UNL1       -0.0537
     15 C          -0.1450   -3.9239   -1.0489 C.ar    1  UNL1       -0.0548
     16 C           0.9112   -3.4739   -1.8442 C.ar    1  UNL1       -0.0104
     17 C           2.2372   -4.1132   -1.7496 C.3     1  UNL1        0.1146
     18 O           2.9776   -3.6715   -0.7279 O.3     1  UNL1       -0.4874
     19 C           3.5603   -2.5495   -0.2564 C.ar    1  UNL1        0.1210
     20 C           3.5242   -1.3216   -0.8733 C.ar    1  UNL1       -0.0193
     21 C           4.1449   -0.2267   -0.3228 C.ar    1  UNL1       -0.0478
     22 C           4.8351   -0.2756    0.8620 C.ar    1  UNL1        0.0179
     23 C           5.4661    0.8836    1.4397 C.2     1  UNL1        0.1662
     24 O           5.2647    1.9912    0.8135 O.2     1  UNL1       -0.2918
     25 C           6.3029    0.8757    2.6688 C.3     1  UNL1        0.0221
     26 C           7.6107    0.1783    2.3890 C.3     1  UNL1       -0.0432
     27 C           8.1040    0.8003    1.0807 C.3     1  UNL1       -0.0524
     28 C           8.3105    2.2630    1.1956 C.3     1  UNL1       -0.0530
     29 C           7.7385    2.9401    2.3852 C.3     1  UNL1       -0.0524
     30 C           6.6343    2.2655    3.0990 C.3     1  UNL1       -0.0432
     31 C           4.8780   -1.4966    1.4881 C.ar    1  UNL1       -0.0478
     32 C           4.2706   -2.6083    0.9673 C.ar    1  UNL1       -0.0193
     33 C           0.6485   -2.4607   -2.7199 C.ar    1  UNL1       -0.0548
     34 C          -0.6362   -1.9120   -2.7976 C.ar    1  UNL1       -0.0537
     35 C          -3.1551   -0.4576   -2.4093 C.ar    1  UNL1       -0.0522
     36 C          -4.3981    0.1400   -2.5037 C.ar    1  UNL1       -0.0348
     37 C          -7.6323    2.7537   -0.1369 C.2     1  UNL1        0.3238
     38 O          -7.0669    3.7912    0.2982 O.2     1  UNL1       -0.2492
     39 O          -8.9828    2.7856   -0.4436 O.3     1  UNL1       -0.4795
     40 H          -7.8546    0.0719    1.8194 H       1  UNL1        0.0233
     41 H          -6.5626    0.5488    2.9948 H       1  UNL1        0.0233
     42 H          -7.7143    1.7602    2.3510 H       1  UNL1        0.0233
     43 H          -5.4821    0.2597    0.8341 H       1  UNL1        0.0316
     44 H          -5.7898    2.9989    2.0816 H       1  UNL1        0.0233
     45 H          -4.4480    1.8141    2.0958 H       1  UNL1        0.0233
     46 H          -4.7893    2.7420    0.5454 H       1  UNL1        0.0233
     47 H          -6.0248    1.7614   -1.0328 H       1  UNL1        0.0595
     48 H          -7.6548   -0.3805   -0.2148 H       1  UNL1        0.1489
     49 H          -6.2726   -2.6091   -1.7649 H       1  UNL1        0.0637
     50 H          -4.0489   -3.5544   -1.6261 H       1  UNL1        0.0624
     51 H          -2.1862   -3.7808   -0.4785 H       1  UNL1        0.0624
     52 H           0.0578   -4.7157   -0.3642 H       1  UNL1        0.0622
     53 H           2.8024   -3.9670   -2.7335 H       1  UNL1        0.0748
     54 H           2.0829   -5.2469   -1.7277 H       1  UNL1        0.0748
     55 H           2.9943   -1.2230   -1.8343 H       1  UNL1        0.0654
     56 H           4.0958    0.7297   -0.8378 H       1  UNL1        0.0626
     57 H           5.7787    0.3686    3.5128 H       1  UNL1        0.0381
     58 H           7.5771   -0.8894    2.2549 H       1  UNL1        0.0272
     59 H           8.3025    0.4809    3.2289 H       1  UNL1        0.0272
     60 H           9.0525    0.2938    0.8161 H       1  UNL1        0.0265
     61 H           7.3658    0.4995    0.3087 H       1  UNL1        0.0265
     62 H           7.8508    2.7463    0.2822 H       1  UNL1        0.0265
     63 H           9.4100    2.4953    1.0635 H       1  UNL1        0.0265
     64 H           8.5946    3.0671    3.1157 H       1  UNL1        0.0265
     65 H           7.4566    4.0136    2.1604 H       1  UNL1        0.0265
     66 H           6.8271    2.2407    4.1967 H       1  UNL1        0.0272
     67 H           5.6907    2.8698    2.9418 H       1  UNL1        0.0272
     68 H           5.3958   -1.6245    2.4486 H       1  UNL1        0.0626
     69 H           4.2891   -3.5785    1.4370 H       1  UNL1        0.0654
     70 H           1.4287   -2.0793   -3.3661 H       1  UNL1        0.0622
     71 H          -0.7799   -1.1123   -3.5107 H       1  UNL1        0.0624
     72 H          -2.2714    0.1392   -2.5890 H       1  UNL1        0.0624
     73 H          -4.5001    1.1889   -2.7569 H       1  UNL1        0.0637
     74 H          -9.5941    3.4128    0.0709 H       1  UNL1        0.2951
@<TRIPOS>BOND
     1     1     2    1
     2     2     3    1
     3     2     4    1
     4     4     5    1
     5     5     6    1
     6     6     7    2
     7     6     8    2
     8     6     9    1
     9     9    10   ar
    10    10    11   ar
    11    11    12   ar
    12    12    13    1
    13    13    14   ar
    14    14    15   ar
    15    15    16   ar
    16    16    17    1
    17    17    18    1
    18    18    19    1
    19    19    20   ar
    20    20    21   ar
    21    21    22   ar
    22    22    23    1
    23    23    24    2
    24    23    25    1
    25    25    26    1
    26    26    27    1
    27    27    28    1
    28    28    29    1
    29    29    30    1
    30    22    31   ar
    31    31    32   ar
    32    16    33   ar
    33    33    34   ar
    34    12    35   ar
    35    35    36   ar
    36     4    37    1
    37    37    38    2
    38    37    39    1
    39    36     9   ar
    40    34    13   ar
    41    32    19   ar
    42    30    25    1
    43     1    40    1
    44     1    41    1
    45     1    42    1
    46     2    43    1
    47     3    44    1
    48     3    45    1
    49     3    46    1
    50     4    47    1
    51     5    48    1
    52    10    49    1
    53    11    50    1
    54    14    51    1
    55    15    52    1
    56    17    53    1
    57    17    54    1
    58    20    55    1
    59    21    56    1
    60    25    57    1
    61    26    58    1
    62    26    59    1
    63    27    60    1
    64    27    61    1
    65    28    62    1
    66    28    63    1
    67    29    64    1
    68    29    65    1
    69    30    66    1
    70    30    67    1
    71    31    68    1
    72    32    69    1
    73    33    70    1
    74    34    71    1
    75    35    72    1
    76    36    73    1
    77    39    74    1
