
     RDKit          3D

 74 77  0  0  0  0  0  0  0  0999 V2000
   -7.1315    0.8536    2.0935 C   0  0  0  0  0  0  0  0  0  0  0  0
   -6.1355    1.1397    0.9963 C   0  0  0  0  0  0  0  0  0  0  0  0
   -5.2390    2.2740    1.4405 C   0  0  0  0  0  0  0  0  0  0  0  0
   -6.8082    1.5182   -0.3046 C   0  0  1  0  0  0  0  0  0  0  0  0
   -7.6664    0.4938   -0.8059 N   0  0  0  0  0  0  0  0  0  0  0  0
   -7.1333    0.0223   -2.3740 S   0  0  0  0  0  6  0  0  0  0  0  0
   -8.0296   -1.0455   -2.9539 O   0  0  0  0  0  0  0  0  0  0  0  0
   -7.1661    1.1772   -3.3356 O   0  0  0  0  0  0  0  0  0  0  0  0
   -5.5163   -0.6234   -2.2743 C   0  0  0  0  0  0  0  0  0  0  0  0
   -5.4200   -1.9789   -1.9511 C   0  0  0  0  0  0  0  0  0  0  0  0
   -4.1530   -2.5098   -1.8738 C   0  0  0  0  0  0  0  0  0  0  0  0
   -3.0064   -1.7898   -2.0935 C   0  0  0  0  0  0  0  0  0  0  0  0
   -1.6694   -2.3653   -2.0070 C   0  0  0  0  0  0  0  0  0  0  0  0
   -1.4080   -3.3772   -1.1325 C   0  0  0  0  0  0  0  0  0  0  0  0
   -0.1450   -3.9239   -1.0489 C   0  0  0  0  0  0  0  0  0  0  0  0
    0.9112   -3.4739   -1.8442 C   0  0  0  0  0  0  0  0  0  0  0  0
    2.2372   -4.1132   -1.7496 C   0  0  0  0  0  0  0  0  0  0  0  0
    2.9776   -3.6715   -0.7279 O   0  0  0  0  0  0  0  0  0  0  0  0
    3.5603   -2.5495   -0.2564 C   0  0  0  0  0  0  0  0  0  0  0  0
    3.5242   -1.3216   -0.8733 C   0  0  0  0  0  0  0  0  0  0  0  0
    4.1449   -0.2267   -0.3228 C   0  0  0  0  0  0  0  0  0  0  0  0
    4.8351   -0.2756    0.8620 C   0  0  0  0  0  0  0  0  0  0  0  0
    5.4661    0.8836    1.4397 C   0  0  0  0  0  0  0  0  0  0  0  0
    5.2647    1.9912    0.8135 O   0  0  0  0  0  0  0  0  0  0  0  0
    6.3029    0.8757    2.6688 C   0  0  0  0  0  0  0  0  0  0  0  0
    7.6107    0.1783    2.3890 C   0  0  0  0  0  0  0  0  0  0  0  0
    8.1040    0.8003    1.0807 C   0  0  0  0  0  0  0  0  0  0  0  0
    8.3105    2.2630    1.1956 C   0  0  0  0  0  0  0  0  0  0  0  0
    7.7385    2.9401    2.3852 C   0  0  0  0  0  0  0  0  0  0  0  0
    6.6343    2.2655    3.0990 C   0  0  0  0  0  0  0  0  0  0  0  0
    4.8780   -1.4966    1.4881 C   0  0  0  0  0  0  0  0  0  0  0  0
    4.2706   -2.6083    0.9673 C   0  0  0  0  0  0  0  0  0  0  0  0
    0.6485   -2.4607   -2.7199 C   0  0  0  0  0  0  0  0  0  0  0  0
   -0.6362   -1.9120   -2.7976 C   0  0  0  0  0  0  0  0  0  0  0  0
   -3.1551   -0.4576   -2.4093 C   0  0  0  0  0  0  0  0  0  0  0  0
   -4.3981    0.1400   -2.5037 C   0  0  0  0  0  0  0  0  0  0  0  0
   -7.6323    2.7537   -0.1369 C   0  0  0  0  0  0  0  0  0  0  0  0
   -7.0669    3.7912    0.2982 O   0  0  0  0  0  0  0  0  0  0  0  0
   -8.9828    2.7856   -0.4436 O   0  0  0  0  0  0  0  0  0  0  0  0
   -7.8546    0.0719    1.8194 H   0  0  0  0  0  0  0  0  0  0  0  0
   -6.5626    0.5488    2.9948 H   0  0  0  0  0  0  0  0  0  0  0  0
   -7.7143    1.7602    2.3510 H   0  0  0  0  0  0  0  0  0  0  0  0
   -5.4821    0.2597    0.8341 H   0  0  0  0  0  0  0  0  0  0  0  0
   -5.7898    2.9989    2.0816 H   0  0  0  0  0  0  0  0  0  0  0  0
   -4.4480    1.8141    2.0958 H   0  0  0  0  0  0  0  0  0  0  0  0
   -4.7893    2.7420    0.5454 H   0  0  0  0  0  0  0  0  0  0  0  0
   -6.0248    1.7614   -1.0328 H   0  0  0  0  0  0  0  0  0  0  0  0
   -7.6548   -0.3805   -0.2148 H   0  0  0  0  0  0  0  0  0  0  0  0
   -6.2726   -2.6091   -1.7649 H   0  0  0  0  0  0  0  0  0  0  0  0
   -4.0489   -3.5544   -1.6261 H   0  0  0  0  0  0  0  0  0  0  0  0
   -2.1862   -3.7808   -0.4785 H   0  0  0  0  0  0  0  0  0  0  0  0
    0.0578   -4.7157   -0.3642 H   0  0  0  0  0  0  0  0  0  0  0  0
    2.8024   -3.9670   -2.7335 H   0  0  0  0  0  0  0  0  0  0  0  0
    2.0829   -5.2469   -1.7277 H   0  0  0  0  0  0  0  0  0  0  0  0
    2.9943   -1.2230   -1.8343 H   0  0  0  0  0  0  0  0  0  0  0  0
    4.0958    0.7297   -0.8378 H   0  0  0  0  0  0  0  0  0  0  0  0
    5.7787    0.3686    3.5128 H   0  0  0  0  0  0  0  0  0  0  0  0
    7.5771   -0.8894    2.2549 H   0  0  0  0  0  0  0  0  0  0  0  0
    8.3025    0.4809    3.2289 H   0  0  0  0  0  0  0  0  0  0  0  0
    9.0525    0.2938    0.8161 H   0  0  0  0  0  0  0  0  0  0  0  0
    7.3658    0.4995    0.3087 H   0  0  0  0  0  0  0  0  0  0  0  0
    7.8508    2.7463    0.2822 H   0  0  0  0  0  0  0  0  0  0  0  0
    9.4100    2.4953    1.0635 H   0  0  0  0  0  0  0  0  0  0  0  0
    8.5946    3.0671    3.1157 H   0  0  0  0  0  0  0  0  0  0  0  0
    7.4566    4.0136    2.1604 H   0  0  0  0  0  0  0  0  0  0  0  0
    6.8271    2.2407    4.1967 H   0  0  0  0  0  0  0  0  0  0  0  0
    5.6907    2.8698    2.9418 H   0  0  0  0  0  0  0  0  0  0  0  0
    5.3958   -1.6245    2.4486 H   0  0  0  0  0  0  0  0  0  0  0  0
    4.2891   -3.5785    1.4370 H   0  0  0  0  0  0  0  0  0  0  0  0
    1.4287   -2.0793   -3.3661 H   0  0  0  0  0  0  0  0  0  0  0  0
   -0.7799   -1.1123   -3.5107 H   0  0  0  0  0  0  0  0  0  0  0  0
   -2.2714    0.1392   -2.5890 H   0  0  0  0  0  0  0  0  0  0  0  0
   -4.5001    1.1889   -2.7569 H   0  0  0  0  0  0  0  0  0  0  0  0
   -9.5941    3.4128    0.0709 H   0  0  0  0  0  0  0  0  0  0  0  0
  1  2  1  0
  2  3  1  0
  2  4  1  0
  4  5  1  0
  5  6  1  0
  6  7  2  0
  6  8  2  0
  6  9  1  0
  9 10  2  0
 10 11  1  0
 11 12  2  0
 12 13  1  0
 13 14  2  0
 14 15  1  0
 15 16  2  0
 16 17  1  0
 17 18  1  0
 18 19  1  0
 19 20  2  0
 20 21  1  0
 21 22  2  0
 22 23  1  0
 23 24  2  0
 23 25  1  0
 25 26  1  0
 26 27  1  0
 27 28  1  0
 28 29  1  0
 29 30  1  0
 22 31  1  0
 31 32  2  0
 16 33  1  0
 33 34  2  0
 12 35  1  0
 35 36  2  0
  4 37  1  0
 37 38  2  0
 37 39  1  0
 36  9  1  0
 34 13  1  0
 32 19  1  0
 30 25  1  0
  1 40  1  0
  1 41  1  0
  1 42  1  0
  2 43  1  0
  3 44  1  0
  3 45  1  0
  3 46  1  0
  4 47  1  6
  5 48  1  0
 10 49  1  0
 11 50  1  0
 14 51  1  0
 15 52  1  0
 17 53  1  0
 17 54  1  0
 20 55  1  0
 21 56  1  0
 25 57  1  0
 26 58  1  0
 26 59  1  0
 27 60  1  0
 27 61  1  0
 28 62  1  0
 28 63  1  0
 29 64  1  0
 29 65  1  0
 30 66  1  0
 30 67  1  0
 31 68  1  0
 32 69  1  0
 33 70  1  0
 34 71  1  0
 35 72  1  0
 36 73  1  0
 39 74  1  0
M  END
$$$$
