
     RDKit          3D

 80 81  0  0  0  0  0  0  0  0999 V2000
   -2.9006    0.1722    1.3754 C   0  0  2  0  0  0  0  0  0  0  0  0
   -1.8939   -0.0492    2.4609 C   0  0  0  0  0  0  0  0  0  0  0  0
   -2.6037    0.0721    3.7579 C   0  0  0  0  0  0  0  0  0  0  0  0
   -3.1776   -1.0484    4.3983 C   0  0  0  0  0  0  0  0  0  0  0  0
   -3.8252   -0.7959    5.6119 C   0  0  0  0  0  0  0  0  0  0  0  0
   -3.9196    0.4341    6.1753 C   0  0  0  0  0  0  0  0  0  0  0  0
   -3.3443    1.4716    5.5072 C   0  0  0  0  0  0  0  0  0  0  0  0
   -2.6789    1.3610    4.3084 C   0  0  0  0  0  0  0  0  0  0  0  0
   -3.9893   -0.6990    1.2979 N   0  0  0  0  0  0  0  0  0  0  0  0
   -4.1202   -1.6785    0.5271 C   0  0  0  0  0  0  0  0  0  0  0  0
   -3.2229   -2.1370   -0.4302 O   0  0  0  0  0  0  0  0  0  0  0  0
   -5.4136   -2.3385    0.7589 C   0  0  0  0  0  0  0  0  0  0  0  0
   -6.2821   -2.1936   -0.4649 C   0  0  0  0  0  0  0  0  0  0  0  0
   -5.7287   -2.7987   -1.6809 C   0  0  0  0  0  0  0  0  0  0  0  0
   -6.5978   -2.6152   -2.7629 O   0  0  0  0  0  0  0  0  0  0  0  0
   -4.7138   -3.4476   -2.1100 O   0  0  0  0  0  0  0  0  0  0  0  0
   -2.2896    0.3512    0.0097 C   0  0  0  0  0  0  0  0  0  0  0  0
   -2.9184    0.4555   -1.2219 O   0  0  0  0  0  0  0  0  0  0  0  0
   -1.0253    0.3988    0.1515 N   0  0  0  0  0  0  0  0  0  0  0  0
   -0.1390    0.5637   -0.9431 C   0  0  1  0  0  0  0  0  0  0  0  0
    0.0696    2.0795   -1.0727 C   0  0  0  0  0  0  0  0  0  0  0  0
    0.9755    2.4677   -2.1436 C   0  0  0  0  0  0  0  0  0  0  0  0
    0.7476    2.7271   -3.4616 C   0  0  0  0  0  0  0  0  0  0  0  0
    1.7291    3.0930   -4.3358 C   0  0  0  0  0  0  0  0  0  0  0  0
    1.3823    3.3474   -5.7204 C   0  0  0  0  0  0  0  0  0  0  0  0
    0.0577    3.2013   -6.1582 O   0  0  0  0  0  0  0  0  0  0  0  0
    2.1182    3.6983   -6.6452 O   0  0  0  0  0  0  0  0  0  0  0  0
    3.0293    3.2161   -3.8972 C   0  0  0  0  0  0  0  0  0  0  0  0
    3.9808    3.6008   -4.8650 O   0  0  0  0  0  0  0  0  0  0  0  0
    5.3202    3.7189   -4.4710 C   0  0  0  0  0  0  0  0  0  0  0  0
    5.8908    2.4389   -4.0349 C   0  0  0  0  0  0  0  0  0  0  0  0
    6.5776    1.3009   -3.5830 O   0  0  0  0  0  0  0  0  0  0  0  0
    5.2564    1.3215   -4.0594 O   0  0  0  0  0  0  0  0  0  0  0  0
    3.3427    2.9709   -2.5765 C   0  0  0  0  0  0  0  0  0  0  0  0
    2.3078    2.6023   -1.7324 C   0  0  0  0  0  0  0  0  0  0  0  0
    1.2303   -0.0048   -0.6508 C   0  0  0  0  0  0  0  0  0  0  0  0
    2.3064   -0.1331   -1.5513 O   0  0  0  0  0  0  0  0  0  0  0  0
    1.4571   -0.4215    0.5461 N   0  0  0  0  0  0  0  0  0  0  0  0
    2.6399   -0.9908    1.0785 C   0  0  0  0  0  0  0  0  0  0  0  0
    2.8016   -2.4715    0.9424 C   0  0  0  0  0  0  0  0  0  0  0  0
    4.0661   -3.0140    1.5210 C   0  0  0  0  0  0  0  0  0  0  0  0
    4.2099   -2.7542    3.0011 C   0  0  0  0  0  0  0  0  0  0  0  0
    3.0758   -3.3880    3.7787 C   0  0  0  0  0  0  0  0  0  0  0  0
   -3.3385    1.2107    1.6256 H   0  0  0  0  0  0  0  0  0  0  0  0
   -1.2922   -0.9710    2.3591 H   0  0  0  0  0  0  0  0  0  0  0  0
   -1.1740    0.8174    2.3673 H   0  0  0  0  0  0  0  0  0  0  0  0
   -3.0660   -2.0011    3.8961 H   0  0  0  0  0  0  0  0  0  0  0  0
   -4.2168   -1.7440    5.9838 H   0  0  0  0  0  0  0  0  0  0  0  0
   -4.4539    0.4462    7.1123 H   0  0  0  0  0  0  0  0  0  0  0  0
   -3.4296    2.4547    5.9773 H   0  0  0  0  0  0  0  0  0  0  0  0
   -2.2350    2.1819    3.8033 H   0  0  0  0  0  0  0  0  0  0  0  0
   -2.2127   -2.0734   -0.2675 H   0  0  0  0  0  0  0  0  0  0  0  0
   -5.1887   -3.4511    0.8150 H   0  0  0  0  0  0  0  0  0  0  0  0
   -5.9376   -2.0562    1.6795 H   0  0  0  0  0  0  0  0  0  0  0  0
   -7.2933   -2.6014   -0.2303 H   0  0  0  0  0  0  0  0  0  0  0  0
   -6.4849   -1.1043   -0.6862 H   0  0  0  0  0  0  0  0  0  0  0  0
   -6.3751   -2.7704   -3.7262 H   0  0  0  0  0  0  0  0  0  0  0  0
   -2.4445    0.8315   -2.0418 H   0  0  0  0  0  0  0  0  0  0  0  0
   -0.5425    0.1312   -1.8537 H   0  0  0  0  0  0  0  0  0  0  0  0
   -0.9370    2.5585   -1.2721 H   0  0  0  0  0  0  0  0  0  0  0  0
    0.3598    2.4838   -0.0835 H   0  0  0  0  0  0  0  0  0  0  0  0
   -0.3166    2.6090   -3.7273 H   0  0  0  0  0  0  0  0  0  0  0  0
   -0.1924    2.9727   -7.1064 H   0  0  0  0  0  0  0  0  0  0  0  0
    5.4312    4.4108   -3.5834 H   0  0  0  0  0  0  0  0  0  0  0  0
    5.9468    4.2141   -5.2529 H   0  0  0  0  0  0  0  0  0  0  0  0
    7.5270    1.4184   -3.2288 H   0  0  0  0  0  0  0  0  0  0  0  0
    4.3530    3.0744   -2.2303 H   0  0  0  0  0  0  0  0  0  0  0  0
    2.6357    2.4344   -0.7099 H   0  0  0  0  0  0  0  0  0  0  0  0
    3.2756   -0.1803   -1.2670 H   0  0  0  0  0  0  0  0  0  0  0  0
    3.5148   -0.4143    0.7390 H   0  0  0  0  0  0  0  0  0  0  0  0
    2.5966   -0.7764    2.1926 H   0  0  0  0  0  0  0  0  0  0  0  0
    1.9512   -3.0094    1.4097 H   0  0  0  0  0  0  0  0  0  0  0  0
    2.7822   -2.7295   -0.1399 H   0  0  0  0  0  0  0  0  0  0  0  0
    4.9843   -2.6874    1.0329 H   0  0  0  0  0  0  0  0  0  0  0  0
    4.0440   -4.1180    1.4149 H   0  0  0  0  0  0  0  0  0  0  0  0
    5.1419   -3.3111    3.2942 H   0  0  0  0  0  0  0  0  0  0  0  0
    4.4054   -1.7169    3.2646 H   0  0  0  0  0  0  0  0  0  0  0  0
    2.5362   -4.0728    3.0655 H   0  0  0  0  0  0  0  0  0  0  0  0
    3.4659   -3.9622    4.6262 H   0  0  0  0  0  0  0  0  0  0  0  0
    2.3918   -2.5834    4.1132 H   0  0  0  0  0  0  0  0  0  0  0  0
  1  2  1  0
  2  3  1  0
  3  4  2  0
  4  5  1  0
  5  6  2  0
  6  7  1  0
  7  8  2  0
  1  9  1  0
  9 10  2  3
 10 11  1  0
 10 12  1  0
 12 13  1  0
 13 14  1  0
 14 15  1  0
 14 16  2  0
  1 17  1  0
 17 18  1  0
 17 19  2  3
 19 20  1  0
 20 21  1  0
 21 22  1  0
 22 23  2  0
 23 24  1  0
 24 25  1  0
 25 26  1  0
 25 27  2  0
 24 28  2  0
 28 29  1  0
 29 30  1  0
 30 31  1  0
 31 32  1  0
 31 33  2  0
 28 34  1  0
 34 35  2  0
 20 36  1  0
 36 37  1  0
 36 38  2  3
 38 39  1  0
 39 40  1  0
 40 41  1  0
 41 42  1  0
 42 43  1  0
  8  3  1  0
 35 22  1  0
  1 44  1  1
  2 45  1  0
  2 46  1  0
  4 47  1  0
  5 48  1  0
  6 49  1  0
  7 50  1  0
  8 51  1  0
 11 52  1  0
 12 53  1  0
 12 54  1  0
 13 55  1  0
 13 56  1  0
 15 57  1  0
 18 58  1  0
 20 59  1  6
 21 60  1  0
 21 61  1  0
 23 62  1  0
 26 63  1  0
 30 64  1  0
 30 65  1  0
 32 66  1  0
 34 67  1  0
 35 68  1  0
 37 69  1  0
 39 70  1  0
 39 71  1  0
 40 72  1  0
 40 73  1  0
 41 74  1  0
 41 75  1  0
 42 76  1  0
 42 77  1  0
 43 78  1  0
 43 79  1  0
 43 80  1  0
M  END
$$$$
