
     RDKit          3D

 47 50  0  0  0  0  0  0  0  0999 V2000
   -4.5092    3.3669   -0.8890 C   0  0  0  0  0  0  0  0  0  0  0  0
   -4.5919    1.9619   -1.0050 O   0  0  0  0  0  0  0  0  0  0  0  0
   -3.5575    1.1130   -0.6532 C   0  0  0  0  0  0  0  0  0  0  0  0
   -2.3480    1.5634   -0.1553 C   0  0  0  0  0  0  0  0  0  0  0  0
   -1.3275    0.7027    0.1903 C   0  0  0  0  0  0  0  0  0  0  0  0
   -0.0951    1.2825    0.7009 C   0  0  0  0  0  0  0  0  0  0  0  0
   -0.0676    2.4502    1.4355 C   0  0  0  0  0  0  0  0  0  0  0  0
    1.0499    3.0038    1.9141 N   0  0  0  0  0  0  0  0  0  0  0  0
    2.2669    2.4333    1.7008 C   0  0  0  0  0  0  0  0  0  0  0  0
    3.5167    2.7773    2.0622 N   0  0  0  0  0  0  0  0  0  0  0  0
    4.3275    1.8287    1.5635 C   0  0  0  0  0  0  0  0  0  0  0  0
    3.5806    0.8779    0.8811 C   0  0  0  0  0  0  0  0  0  0  0  0
    4.1247   -0.2996    0.2134 C   0  0  0  0  0  0  0  0  0  0  0  0
    5.2323   -0.1678   -0.5980 C   0  0  0  0  0  0  0  0  0  0  0  0
    5.7636   -1.2505   -1.2335 N   0  0  0  0  0  0  0  0  0  0  0  0
    5.2335   -2.4749   -1.0946 C   0  0  0  0  0  0  0  0  0  0  0  0
    5.8010   -3.6126   -1.7695 N   0  0  0  0  0  0  0  0  0  0  0  0
    4.1542   -2.6089   -0.3048 N   0  0  0  0  0  0  0  0  0  0  0  0
    3.5884   -1.5627    0.3489 C   0  0  0  0  0  0  0  0  0  0  0  0
    2.2779    1.2635    0.9699 C   0  0  0  0  0  0  0  0  0  0  0  0
    1.1373    0.6752    0.4667 C   0  0  0  0  0  0  0  0  0  0  0  0
   -1.5456   -0.6448    0.0247 C   0  0  0  0  0  0  0  0  0  0  0  0
   -2.7462   -1.1406   -0.4723 C   0  0  0  0  0  0  0  0  0  0  0  0
   -2.9838   -2.4941   -0.6461 O   0  0  0  0  0  0  0  0  0  0  0  0
   -2.0626   -3.5073   -0.3483 C   0  0  0  0  0  0  0  0  0  0  0  0
   -3.7473   -0.2443   -0.8083 C   0  0  0  0  0  0  0  0  0  0  0  0
   -4.9501   -0.7585   -1.3078 O   0  0  0  0  0  0  0  0  0  0  0  0
   -6.0397   -1.1085   -0.5076 C   0  0  0  0  0  0  0  0  0  0  0  0
   -5.5476    3.7539   -0.9460 H   0  0  0  0  0  0  0  0  0  0  0  0
   -3.9482    3.8025   -1.7273 H   0  0  0  0  0  0  0  0  0  0  0  0
   -4.0740    3.7066    0.0613 H   0  0  0  0  0  0  0  0  0  0  0  0
   -2.2139    2.6301   -0.0392 H   0  0  0  0  0  0  0  0  0  0  0  0
   -1.0410    2.9248    1.6179 H   0  0  0  0  0  0  0  0  0  0  0  0
    3.7574    3.6339    2.6265 H   0  0  0  0  0  0  0  0  0  0  0  0
    5.3959    1.8362    1.6925 H   0  0  0  0  0  0  0  0  0  0  0  0
    5.6676    0.8052   -0.7192 H   0  0  0  0  0  0  0  0  0  0  0  0
    6.7952   -3.8862   -1.6677 H   0  0  0  0  0  0  0  0  0  0  0  0
    5.1850   -4.1717   -2.3760 H   0  0  0  0  0  0  0  0  0  0  0  0
    2.7206   -1.6988    0.9795 H   0  0  0  0  0  0  0  0  0  0  0  0
    1.1665   -0.2283   -0.0956 H   0  0  0  0  0  0  0  0  0  0  0  0
   -0.7633   -1.3414    0.2872 H   0  0  0  0  0  0  0  0  0  0  0  0
   -1.9884   -3.6717    0.7477 H   0  0  0  0  0  0  0  0  0  0  0  0
   -2.4997   -4.4640   -0.7561 H   0  0  0  0  0  0  0  0  0  0  0  0
   -1.1046   -3.2682   -0.8317 H   0  0  0  0  0  0  0  0  0  0  0  0
   -6.4458   -2.0720   -0.9328 H   0  0  0  0  0  0  0  0  0  0  0  0
   -6.8381   -0.3699   -0.4416 H   0  0  0  0  0  0  0  0  0  0  0  0
   -5.7061   -1.3461    0.5301 H   0  0  0  0  0  0  0  0  0  0  0  0
  1  2  1  0
  2  3  1  0
  3  4  2  0
  4  5  1  0
  5  6  1  0
  6  7  2  0
  7  8  1  0
  8  9  2  0
  9 10  1  0
 10 11  1  0
 11 12  2  0
 12 13  1  0
 13 14  2  0
 14 15  1  0
 15 16  2  0
 16 17  1  0
 16 18  1  0
 18 19  2  0
 12 20  1  0
 20 21  2  0
  5 22  2  0
 22 23  1  0
 23 24  1  0
 24 25  1  0
 23 26  2  0
 26 27  1  0
 27 28  1  0
 26  3  1  0
 21  6  1  0
 20  9  1  0
 19 13  1  0
  1 29  1  0
  1 30  1  0
  1 31  1  0
  4 32  1  0
  7 33  1  0
 10 34  1  0
 11 35  1  0
 14 36  1  0
 17 37  1  0
 17 38  1  0
 19 39  1  0
 21 40  1  0
 22 41  1  0
 25 42  1  0
 25 43  1  0
 25 44  1  0
 28 45  1  0
 28 46  1  0
 28 47  1  0
M  END
$$$$
