@<TRIPOS>MOLECULE
*****
 47 50 0 0 0
SMALL
GASTEIGER

@<TRIPOS>ATOM
      1 C          -4.5092    3.3669   -0.8890 C.3     1  UNL1        0.0790
      2 O          -4.5919    1.9619   -1.0050 O.3     1  UNL1       -0.4913
      3 C          -3.5575    1.1130   -0.6532 C.ar    1  UNL1        0.1657
      4 C          -2.3480    1.5634   -0.1553 C.ar    1  UNL1       -0.0083
      5 C          -1.3275    0.7027    0.1903 C.ar    1  UNL1       -0.0093
      6 C          -0.0951    1.2825    0.7009 C.ar    1  UNL1        0.0012
      7 C          -0.0676    2.4502    1.4355 C.ar    1  UNL1        0.0376
      8 N           1.0499    3.0038    1.9141 N.ar    1  UNL1       -0.2369
      9 C           2.2669    2.4333    1.7008 C.ar    1  UNL1        0.1387
     10 N           3.5167    2.7773    2.0622 N.ar    1  UNL1       -0.3452
     11 C           4.3275    1.8287    1.5635 C.ar    1  UNL1        0.0119
     12 C           3.5806    0.8779    0.8811 C.ar    1  UNL1        0.0116
     13 C           4.1247   -0.2996    0.2134 C.ar    1  UNL1        0.0205
     14 C           5.2323   -0.1678   -0.5980 C.ar    1  UNL1        0.0404
     15 N           5.7636   -1.2505   -1.2335 N.ar    1  UNL1       -0.2225
     16 C           5.2335   -2.4749   -1.0946 C.ar    1  UNL1        0.2125
     17 N           5.8010   -3.6126   -1.7695 N.pl3   1  UNL1       -0.3275
     18 N           4.1542   -2.6089   -0.3048 N.ar    1  UNL1       -0.2225
     19 C           3.5884   -1.5627    0.3489 C.ar    1  UNL1        0.0404
     20 C           2.2779    1.2635    0.9699 C.ar    1  UNL1        0.0270
     21 C           1.1373    0.6752    0.4667 C.ar    1  UNL1       -0.0413
     22 C          -1.5456   -0.6448    0.0247 C.ar    1  UNL1       -0.0083
     23 C          -2.7462   -1.1406   -0.4723 C.ar    1  UNL1        0.1657
     24 O          -2.9838   -2.4941   -0.6461 O.3     1  UNL1       -0.4913
     25 C          -2.0626   -3.5073   -0.3483 C.3     1  UNL1        0.0790
     26 C          -3.7473   -0.2443   -0.8083 C.ar    1  UNL1        0.2035
     27 O          -4.9501   -0.7585   -1.3078 O.3     1  UNL1       -0.4885
     28 C          -6.0397   -1.1085   -0.5076 C.3     1  UNL1        0.0791
     29 H          -5.5476    3.7539   -0.9460 H       1  UNL1        0.0660
     30 H          -3.9482    3.8025   -1.7273 H       1  UNL1        0.0660
     31 H          -4.0740    3.7066    0.0613 H       1  UNL1        0.0660
     32 H          -2.2139    2.6301   -0.0392 H       1  UNL1        0.0661
     33 H          -1.0410    2.9248    1.6179 H       1  UNL1        0.0836
     34 H           3.7574    3.6339    2.6265 H       1  UNL1        0.1668
     35 H           5.3959    1.8362    1.6925 H       1  UNL1        0.0814
     36 H           5.6676    0.8052   -0.7192 H       1  UNL1        0.0837
     37 H           6.7952   -3.8862   -1.6677 H       1  UNL1        0.1452
     38 H           5.1850   -4.1717   -2.3760 H       1  UNL1        0.1452
     39 H           2.7206   -1.6988    0.9795 H       1  UNL1        0.0837
     40 H           1.1665   -0.2283   -0.0956 H       1  UNL1        0.0631
     41 H          -0.7633   -1.3414    0.2872 H       1  UNL1        0.0661
     42 H          -1.9884   -3.6717    0.7477 H       1  UNL1        0.0660
     43 H          -2.4997   -4.4640   -0.7561 H       1  UNL1        0.0660
     44 H          -1.1046   -3.2682   -0.8317 H       1  UNL1        0.0660
     45 H          -6.4458   -2.0720   -0.9328 H       1  UNL1        0.0660
     46 H          -6.8381   -0.3699   -0.4416 H       1  UNL1        0.0660
     47 H          -5.7061   -1.3461    0.5301 H       1  UNL1        0.0660
@<TRIPOS>BOND
     1     1     2    1
     2     2     3    1
     3     3     4   ar
     4     4     5   ar
     5     5     6    1
     6     6     7   ar
     7     7     8   ar
     8     8     9   ar
     9     9    10   ar
    10    10    11   ar
    11    11    12   ar
    12    12    13    1
    13    13    14   ar
    14    14    15   ar
    15    15    16   ar
    16    16    17    1
    17    16    18   ar
    18    18    19   ar
    19    12    20   ar
    20    20    21   ar
    21     5    22   ar
    22    22    23   ar
    23    23    24    1
    24    24    25    1
    25    23    26   ar
    26    26    27    1
    27    27    28    1
    28    26     3   ar
    29    21     6   ar
    30    20     9   ar
    31    19    13   ar
    32     1    29    1
    33     1    30    1
    34     1    31    1
    35     4    32    1
    36     7    33    1
    37    10    34    1
    38    11    35    1
    39    14    36    1
    40    17    37    1
    41    17    38    1
    42    19    39    1
    43    21    40    1
    44    22    41    1
    45    25    42    1
    46    25    43    1
    47    25    44    1
    48    28    45    1
    49    28    46    1
    50    28    47    1
