
     RDKit          3D

 42 45  0  0  0  0  0  0  0  0999 V2000
   -4.6557    4.0115    0.6873 O   0  0  0  0  0  0  0  0  0  0  0  0
   -4.6652    2.7487    0.0674 C   0  0  0  0  0  0  0  0  0  0  0  0
   -5.8083    2.4343   -0.3535 O   0  0  0  0  0  0  0  0  0  0  0  0
   -3.3931    2.0246    0.0107 C   0  0  0  0  0  0  0  0  0  0  0  0
   -3.3534    0.7798   -0.5887 C   0  0  0  0  0  0  0  0  0  0  0  0
   -2.2444   -0.0067   -0.7141 N   0  0  0  0  0  0  0  0  0  0  0  0
   -2.3051   -1.2929   -1.3573 C   0  0  0  0  0  0  0  0  0  0  0  0
   -3.5846   -2.0878   -1.1702 C   0  0  0  0  0  0  0  0  0  0  0  0
   -2.3527   -2.4804   -0.3913 C   0  0  0  0  0  0  0  0  0  0  0  0
   -1.1172    0.4958   -0.2048 C   0  0  0  0  0  0  0  0  0  0  0  0
    0.0529   -0.1960   -0.2696 C   0  0  0  0  0  0  0  0  0  0  0  0
    1.2280    0.3072    0.2511 C   0  0  0  0  0  0  0  0  0  0  0  0
    2.4432   -0.4288    0.1753 N   0  0  0  0  0  0  0  0  0  0  0  0
    3.5200    0.2176   -0.5430 C   0  0  0  0  0  0  0  0  0  0  0  0
    4.8698   -0.2413   -0.0967 C   0  0  0  0  0  0  0  0  0  0  0  0
    4.8810   -1.6593    0.0466 N   0  0  0  0  0  0  0  0  0  0  0  0
    3.9628   -2.1527    1.0438 C   0  0  0  0  0  0  0  0  0  0  0  0
    2.5407   -1.7265    0.7902 C   0  0  0  0  0  0  0  0  0  0  0  0
    1.2688    1.5487    0.8678 C   0  0  0  0  0  0  0  0  0  0  0  0
    2.3625    2.1184    1.4020 F   0  0  0  0  0  0  0  0  0  0  0  0
    0.0747    2.2368    0.9251 C   0  0  0  0  0  0  0  0  0  0  0  0
   -1.1070    1.7173    0.3948 C   0  0  0  0  0  0  0  0  0  0  0  0
   -2.2290    2.5085    0.5195 C   0  0  0  0  0  0  0  0  0  0  0  0
   -2.2477    3.6392    1.0680 O   0  0  0  0  0  0  0  0  0  0  0  0
   -5.4804    4.3220    1.2106 H   0  0  0  0  0  0  0  0  0  0  0  0
   -4.2779    0.3885   -0.9962 H   0  0  0  0  0  0  0  0  0  0  0  0
   -1.8446   -1.4457   -2.3366 H   0  0  0  0  0  0  0  0  0  0  0  0
   -4.4489   -1.6435   -0.6676 H   0  0  0  0  0  0  0  0  0  0  0  0
   -3.8568   -2.8597   -1.9365 H   0  0  0  0  0  0  0  0  0  0  0  0
   -1.7868   -3.3727   -0.6576 H   0  0  0  0  0  0  0  0  0  0  0  0
   -2.3850   -2.2556    0.6983 H   0  0  0  0  0  0  0  0  0  0  0  0
    0.0762   -1.1639   -0.7375 H   0  0  0  0  0  0  0  0  0  0  0  0
    3.4929    1.3332   -0.4344 H   0  0  0  0  0  0  0  0  0  0  0  0
    3.3824    0.0639   -1.6494 H   0  0  0  0  0  0  0  0  0  0  0  0
    5.5775   -0.0148   -0.9470 H   0  0  0  0  0  0  0  0  0  0  0  0
    5.2063    0.3275    0.7825 H   0  0  0  0  0  0  0  0  0  0  0  0
    5.7872   -2.1058    0.2217 H   0  0  0  0  0  0  0  0  0  0  0  0
    4.3384   -1.8917    2.0561 H   0  0  0  0  0  0  0  0  0  0  0  0
    3.9845   -3.2683    0.9833 H   0  0  0  0  0  0  0  0  0  0  0  0
    1.9873   -2.5078    0.2090 H   0  0  0  0  0  0  0  0  0  0  0  0
    2.0402   -1.6475    1.7819 H   0  0  0  0  0  0  0  0  0  0  0  0
    0.0668    3.2263    1.4071 H   0  0  0  0  0  0  0  0  0  0  0  0
  1  2  1  0
  2  3  2  0
  2  4  1  0
  4  5  2  0
  5  6  1  0
  6  7  1  0
  7  8  1  0
  8  9  1  0
  6 10  1  0
 10 11  2  0
 11 12  1  0
 12 13  1  0
 13 14  1  0
 14 15  1  0
 15 16  1  0
 16 17  1  0
 17 18  1  0
 12 19  2  0
 19 20  1  0
 19 21  1  0
 21 22  2  0
 22 23  1  0
 23 24  2  0
 23  4  1  0
  9  7  1  0
 22 10  1  0
 18 13  1  0
  1 25  1  0
  5 26  1  0
  7 27  1  0
  8 28  1  0
  8 29  1  0
  9 30  1  0
  9 31  1  0
 11 32  1  0
 14 33  1  0
 14 34  1  0
 15 35  1  0
 15 36  1  0
 16 37  1  0
 17 38  1  0
 17 39  1  0
 18 40  1  0
 18 41  1  0
 21 42  1  0
M  END
$$$$
