@<TRIPOS>MOLECULE
*****
 55 59 0 0 0
SMALL
GASTEIGER

@<TRIPOS>ATOM
      1 C           7.6008    1.4803    3.3970 C.3     1  UNL1        0.0366
      2 O           7.8403    0.7406    2.2389 O.3     1  UNL1       -0.3796
      3 C           6.5964    0.2409    1.8255 C.3     1  UNL1        0.0813
      4 C           6.6947   -0.5785    0.5867 C.3     1  UNL1        0.1129
      5 O           5.4785   -1.0623    0.1808 O.3     1  UNL1       -0.4882
      6 C           4.3748   -0.4156   -0.2706 C.ar    1  UNL1        0.1392
      7 C           4.3068    0.9436   -0.4449 C.ar    1  UNL1        0.0699
      8 N           3.1372    1.4675   -0.8988 N.ar    1  UNL1       -0.2514
      9 C           2.0529    0.7256   -1.1842 C.ar    1  UNL1        0.0712
     10 C           0.8917    1.3112   -1.6428 C.ar    1  UNL1       -0.0354
     11 C          -0.2427    0.5449   -1.9432 C.ar    1  UNL1       -0.0545
     12 C          -0.2375   -0.8159   -1.7911 C.ar    1  UNL1       -0.0226
     13 C          -1.3686   -1.6876   -2.0709 C.3     1  UNL1        0.0773
     14 C          -2.3944   -1.2284   -3.0306 C.3     1  UNL1       -0.0384
     15 N          -1.9059   -2.3127   -0.8587 N.ar    1  UNL1       -0.2315
     16 N          -1.6185   -3.5675   -0.4491 N.ar    1  UNL1       -0.0639
     17 N          -2.2403   -3.8571    0.6672 N.ar    1  UNL1       -0.1292
     18 C          -2.9749   -2.7937    1.0495 C.ar    1  UNL1        0.1194
     19 C          -3.8083   -2.5523    2.1269 C.ar    1  UNL1       -0.0156
     20 C          -4.4073   -1.3151    2.1927 C.ar    1  UNL1        0.0159
     21 N          -4.1770   -0.4006    1.2414 N.ar    1  UNL1       -0.2749
     22 C          -4.8183    0.8917    1.3336 C.ar    1  UNL1        0.1071
     23 C          -5.5351    1.5731    0.4418 C.ar    1  UNL1       -0.0078
     24 C          -6.0410    2.7547    0.7262 C.ar    1  UNL1        0.0493
     25 C          -6.8837    3.6556   -0.1930 C.3     1  UNL1       -0.0216
     26 N          -5.7846    3.2645    2.0280 N.ar    1  UNL1       -0.2136
     27 S          -4.7866    1.9384    2.7778 S.2     1  UNL1        0.0299
     28 C          -3.3753   -0.6109    0.1903 C.ar    1  UNL1        0.2835
     29 O          -3.1782    0.2590   -0.6817 O.2     1  UNL1       -0.2649
     30 C          -2.7432   -1.8276    0.0614 C.ar    1  UNL1        0.1542
     31 C           0.9436   -1.4096   -1.3250 C.ar    1  UNL1       -0.0473
     32 C           2.0573   -0.6495   -1.0311 C.ar    1  UNL1        0.0042
     33 C           3.2276   -1.1896   -0.5744 C.ar    1  UNL1       -0.0092
     34 H           6.8982    2.2986    3.1555 H       1  UNL1        0.0524
     35 H           7.0584    0.7887    4.0912 H       1  UNL1        0.0524
     36 H           8.5458    1.8478    3.8439 H       1  UNL1        0.0524
     37 H           6.3212   -0.4847    2.6537 H       1  UNL1        0.0593
     38 H           5.9172    1.0614    1.7515 H       1  UNL1        0.0593
     39 H           7.4077   -1.4359    0.7038 H       1  UNL1        0.0720
     40 H           7.1245    0.0151   -0.2668 H       1  UNL1        0.0720
     41 H           5.1572    1.5857   -0.2561 H       1  UNL1        0.0867
     42 H           0.8083    2.3816   -1.7891 H       1  UNL1        0.0639
     43 H          -1.1312    1.0012   -2.3004 H       1  UNL1        0.0622
     44 H          -0.8883   -2.5759   -2.6254 H       1  UNL1        0.0593
     45 H          -2.3402   -1.7273   -4.0529 H       1  UNL1        0.0253
     46 H          -2.4777   -0.1765   -3.2565 H       1  UNL1        0.0253
     47 H          -3.4025   -1.5803   -2.6665 H       1  UNL1        0.0253
     48 H          -3.9821   -3.2941    2.8792 H       1  UNL1        0.0655
     49 H          -5.0829   -1.0407    3.0136 H       1  UNL1        0.0815
     50 H          -5.7033    1.1100   -0.5800 H       1  UNL1        0.0662
     51 H          -6.6089    4.6985   -0.0363 H       1  UNL1        0.0293
     52 H          -7.9584    3.4346   -0.0360 H       1  UNL1        0.0293
     53 H          -6.6328    3.3372   -1.2251 H       1  UNL1        0.0293
     54 H           1.0087   -2.4880   -1.1839 H       1  UNL1        0.0627
     55 H           3.2801   -2.2740   -0.4371 H       1  UNL1        0.0661
@<TRIPOS>BOND
     1     1     2    1
     2     2     3    1
     3     3     4    1
     4     4     5    1
     5     5     6    1
     6     6     7   ar
     7     7     8   ar
     8     8     9   ar
     9     9    10   ar
    10    10    11   ar
    11    11    12   ar
    12    12    13    1
    13    13    14    1
    14    13    15    1
    15    15    16   ar
    16    16    17   ar
    17    17    18   ar
    18    18    19   ar
    19    19    20   ar
    20    20    21   ar
    21    21    22    1
    22    22    23   ar
    23    23    24   ar
    24    24    25    1
    25    24    26   ar
    26    26    27   ar
    27    21    28   ar
    28    28    29    2
    29    28    30   ar
    30    12    31   ar
    31    31    32   ar
    32    32    33   ar
    33    33     6   ar
    34    32     9   ar
    35    30    15   ar
    36    30    18   ar
    37    27    22   ar
    38     1    34    1
    39     1    35    1
    40     1    36    1
    41     3    37    1
    42     3    38    1
    43     4    39    1
    44     4    40    1
    45     7    41    1
    46    10    42    1
    47    11    43    1
    48    13    44    1
    49    14    45    1
    50    14    46    1
    51    14    47    1
    52    19    48    1
    53    20    49    1
    54    23    50    1
    55    25    51    1
    56    25    52    1
    57    25    53    1
    58    31    54    1
    59    33    55    1
