@<TRIPOS>MOLECULE
*****
 62 64 0 0 0
SMALL
GASTEIGER

@<TRIPOS>ATOM
      1 C          10.2740   -2.5888   -0.1791 C.2     1  UNL1       -0.0938
      2 C           9.0241   -2.6331    0.2291 C.2     1  UNL1       -0.0069
      3 C           8.0942   -1.6000   -0.1813 C.2     1  UNL1        0.2366
      4 O           8.5210   -0.6755   -0.9281 O.2     1  UNL1       -0.2709
      5 N           6.7258   -1.5887    0.2235 N.am    1  UNL1       -0.3089
      6 C           5.8936   -0.5217   -0.2391 C.3     1  UNL1        0.0258
      7 C           5.2812    0.3019    0.8677 C.3     1  UNL1       -0.0200
      8 C           4.3719    1.3263    0.2539 C.3     1  UNL1        0.0222
      9 N           4.5054    1.4103   -1.1798 N.3     1  UNL1       -0.1765
     10 S           3.4614    2.6770   -1.7151 S.O2    1  UNL1        0.0609
     11 O           3.6792    2.8339   -3.2021 O.2     1  UNL1       -0.1528
     12 O           3.9199    3.9395   -1.0289 O.2     1  UNL1       -0.1528
     13 C           1.7917    2.3417   -1.3415 C.ar    1  UNL1        0.1055
     14 C           1.0073    1.6745   -2.2543 C.ar    1  UNL1       -0.0346
     15 C          -0.3150    1.3954   -1.9844 C.ar    1  UNL1       -0.0478
     16 C          -0.9247    1.7684   -0.7868 C.ar    1  UNL1        0.0368
     17 C          -2.3312    1.4512   -0.5447 C.2     1  UNL1        0.2441
     18 O          -2.9756    0.8407   -1.4678 O.2     1  UNL1       -0.2702
     19 N          -3.0410    1.7633    0.6278 N.am    1  UNL1       -0.3110
     20 C          -4.4287    1.4420    0.8628 C.3     1  UNL1        0.0159
     21 C          -4.6029   -0.0436    0.8296 C.3     1  UNL1       -0.0120
     22 C          -6.0343   -0.4299    1.0789 C.ar    1  UNL1       -0.0457
     23 C          -6.4210   -0.6513    2.3882 C.ar    1  UNL1       -0.0551
     24 C          -7.7266   -1.0073    2.6543 C.ar    1  UNL1       -0.0197
     25 C          -8.6506   -1.1452    1.6319 C.ar    1  UNL1        0.1201
     26 O          -9.9477   -1.5011    1.9184 O.3     1  UNL1       -0.4951
     27 C         -10.8916   -1.6435    0.8872 C.3     1  UNL1        0.0788
     28 C          -8.2346   -0.9192    0.3544 C.ar    1  UNL1       -0.0197
     29 C          -6.9444   -0.5638    0.0526 C.ar    1  UNL1       -0.0551
     30 C          -0.1531    2.4326    0.1281 C.ar    1  UNL1       -0.0478
     31 C           1.1921    2.7113   -0.1577 C.ar    1  UNL1       -0.0346
     32 C           4.1063    0.1681   -1.8280 C.3     1  UNL1        0.0222
     33 C           4.7648   -1.0125   -1.1295 C.3     1  UNL1       -0.0200
     34 H          10.5998   -1.7831   -0.8173 H       1  UNL1        0.0536
     35 H          11.0190   -3.3224    0.0865 H       1  UNL1        0.0536
     36 H           8.7002   -3.4408    0.8677 H       1  UNL1        0.0663
     37 H           6.3814   -2.3473    0.8344 H       1  UNL1        0.1493
     38 H           6.4623    0.2066   -0.8867 H       1  UNL1        0.0499
     39 H           6.0634    0.8321    1.4625 H       1  UNL1        0.0296
     40 H           4.7556   -0.3365    1.6151 H       1  UNL1        0.0296
     41 H           3.3157    1.0969    0.5519 H       1  UNL1        0.0444
     42 H           4.6709    2.3357    0.6611 H       1  UNL1        0.0444
     43 H           1.4612    1.3699   -3.2034 H       1  UNL1        0.0637
     44 H          -0.9300    0.8722   -2.7000 H       1  UNL1        0.0626
     45 H          -2.4938    2.2726    1.3812 H       1  UNL1        0.1490
     46 H          -4.9987    1.9470    0.0393 H       1  UNL1        0.0465
     47 H          -4.8019    1.8983    1.8058 H       1  UNL1        0.0465
     48 H          -3.9945   -0.5551    1.6218 H       1  UNL1        0.0328
     49 H          -4.2423   -0.4605   -0.1202 H       1  UNL1        0.0328
     50 H          -5.7091   -0.5495    3.2192 H       1  UNL1        0.0621
     51 H          -8.0441   -1.1844    3.6780 H       1  UNL1        0.0654
     52 H         -10.4742   -2.3076    0.1278 H       1  UNL1        0.0660
     53 H         -11.8238   -2.1225    1.2736 H       1  UNL1        0.0660
     54 H         -11.2187   -0.6585    0.4731 H       1  UNL1        0.0660
     55 H          -8.9330   -1.0195   -0.4540 H       1  UNL1        0.0654
     56 H          -6.5781   -0.3767   -0.9463 H       1  UNL1        0.0621
     57 H          -0.5812    2.7424    1.0712 H       1  UNL1        0.0626
     58 H           1.7702    3.2353    0.5840 H       1  UNL1        0.0637
     59 H           3.0129    0.0504   -1.8978 H       1  UNL1        0.0444
     60 H           4.5067    0.1989   -2.8581 H       1  UNL1        0.0444
     61 H           4.0098   -1.4795   -0.4690 H       1  UNL1        0.0296
     62 H           5.1034   -1.7845   -1.8419 H       1  UNL1        0.0296
@<TRIPOS>BOND
     1     1     2    2
     2     2     3    1
     3     3     4    2
     4     3     5   am
     5     5     6    1
     6     6     7    1
     7     7     8    1
     8     8     9    1
     9     9    10    1
    10    10    11    2
    11    10    12    2
    12    10    13    1
    13    13    14   ar
    14    14    15   ar
    15    15    16   ar
    16    16    17    1
    17    17    18    2
    18    17    19   am
    19    19    20    1
    20    20    21    1
    21    21    22    1
    22    22    23   ar
    23    23    24   ar
    24    24    25   ar
    25    25    26    1
    26    26    27    1
    27    25    28   ar
    28    28    29   ar
    29    16    30   ar
    30    30    31   ar
    31     9    32    1
    32    32    33    1
    33    33     6    1
    34    31    13   ar
    35    29    22   ar
    36     1    34    1
    37     1    35    1
    38     2    36    1
    39     5    37    1
    40     6    38    1
    41     7    39    1
    42     7    40    1
    43     8    41    1
    44     8    42    1
    45    14    43    1
    46    15    44    1
    47    19    45    1
    48    20    46    1
    49    20    47    1
    50    21    48    1
    51    21    49    1
    52    23    50    1
    53    24    51    1
    54    27    52    1
    55    27    53    1
    56    27    54    1
    57    28    55    1
    58    29    56    1
    59    30    57    1
    60    31    58    1
    61    32    59    1
    62    32    60    1
    63    33    61    1
    64    33    62    1
