@<TRIPOS>MOLECULE
*****
 32 33 0 0 0
SMALL
GASTEIGER

@<TRIPOS>ATOM
      1 O           1.3438   -2.7733    0.9322 O.2     1  UNL1       -0.2873
      2 C           1.1479   -1.5269    0.5393 C.2     1  UNL1        0.1861
      3 C          -0.2429   -1.1871    0.3323 C.2     1  UNL1       -0.0138
      4 C          -0.7309   -0.0995   -0.1184 C.2     1  UNL1       -0.0504
      5 C          -2.1131    0.2730   -0.3210 C.ar    1  UNL1       -0.0133
      6 C          -2.3114    1.3301   -1.2558 C.ar    1  UNL1       -0.0541
      7 C          -3.5332    1.8715   -1.5073 C.ar    1  UNL1       -0.0612
      8 C          -4.6041    1.3617   -0.8201 C.ar    1  UNL1       -0.0612
      9 C          -4.4602    0.3463    0.0881 C.ar    1  UNL1       -0.0495
     10 C          -3.1960   -0.2229    0.3582 C.ar    1  UNL1        0.0619
     11 C          -3.1175   -1.2920    1.3710 C.3     1  UNL1        0.4180
     12 F          -2.2141   -1.0160    2.3732 F       1  UNL1       -0.1659
     13 F          -4.3898   -1.2138    2.0758 F       1  UNL1       -0.1659
     14 F          -3.1391   -2.5505    0.9002 F       1  UNL1       -0.1659
     15 C           2.3338   -0.7462    0.3879 C.ar    1  UNL1        0.0219
     16 C           3.5353   -1.4700    0.2452 C.ar    1  UNL1       -0.0475
     17 C           4.7430   -0.8545    0.1622 C.ar    1  UNL1       -0.0195
     18 C           4.8257    0.5334    0.2170 C.ar    1  UNL1        0.1169
     19 O           6.0918    1.0900    0.1246 O.3     1  UNL1       -0.5068
     20 C           3.6987    1.2754    0.3548 C.ar    1  UNL1       -0.0195
     21 C           2.4611    0.6222    0.4402 C.ar    1  UNL1       -0.0475
     22 H          -0.9387   -2.0225    0.5464 H       1  UNL1        0.0656
     23 H           0.0061    0.6877   -0.4359 H       1  UNL1        0.0625
     24 H          -1.4581    1.7359   -1.8106 H       1  UNL1        0.0624
     25 H          -3.6583    2.6836   -2.2308 H       1  UNL1        0.0618
     26 H          -5.5891    1.7875   -1.0140 H       1  UNL1        0.0618
     27 H          -5.2992   -0.0662    0.6318 H       1  UNL1        0.0623
     28 H           3.5247   -2.5475    0.1943 H       1  UNL1        0.0626
     29 H           5.6378   -1.4663    0.0527 H       1  UNL1        0.0654
     30 H           6.3239    1.8989   -0.4278 H       1  UNL1        0.2921
     31 H           3.7265    2.3325    0.3998 H       1  UNL1        0.0654
     32 H           1.5954    1.2254    0.6027 H       1  UNL1        0.0626
@<TRIPOS>BOND
     1     1     2    2
     2     2     3    1
     3     3     4    2
     4     4     5    1
     5     5     6   ar
     6     6     7   ar
     7     7     8   ar
     8     8     9   ar
     9     9    10   ar
    10    10    11    1
    11    11    12    1
    12    11    13    1
    13    11    14    1
    14     2    15    1
    15    15    16   ar
    16    16    17   ar
    17    17    18   ar
    18    18    19    1
    19    18    20   ar
    20    20    21   ar
    21    10     5   ar
    22    21    15   ar
    23     3    22    1
    24     4    23    1
    25     6    24    1
    26     7    25    1
    27     8    26    1
    28     9    27    1
    29    16    28    1
    30    17    29    1
    31    19    30    1
    32    20    31    1
    33    21    32    1
