
     RDKit          3D

 49 52  0  0  0  0  0  0  0  0999 V2000
   -4.8915    1.8821   -1.2194 O   0  0  0  0  0  0  0  0  0  0  0  0
   -4.4432    1.2118   -0.0994 C   0  0  1  0  0  0  0  0  0  0  0  0
   -5.6180    0.6326    0.6277 C   0  0  0  0  0  0  0  0  0  0  0  0
   -6.2052   -0.5039   -0.0098 N   0  0  0  0  0  0  0  0  0  0  0  0
   -5.3050   -1.2225   -0.8786 C   0  0  0  0  0  0  0  0  0  0  0  0
   -3.9409   -1.1998   -0.2570 C   0  0  0  0  0  0  0  0  0  0  0  0
   -3.3705    0.2042   -0.3819 C   0  0  0  0  0  0  0  0  0  0  0  0
   -2.7908    0.3873   -1.7709 C   0  0  0  0  0  0  0  0  0  0  0  0
   -1.4672   -0.3026   -1.6529 C   0  0  0  0  0  0  0  0  0  0  0  0
   -1.0460    0.0325   -0.3057 N   0  0  0  0  0  0  0  0  0  0  0  0
    0.3310    0.0763    0.0749 C   0  0  0  0  0  0  0  0  0  0  0  0
    1.3323   -0.1882   -0.7815 N   0  0  0  0  0  0  0  0  0  0  0  0
    2.6262   -0.1482   -0.4278 C   0  0  0  0  0  0  0  0  0  0  0  0
    3.6346   -0.4261   -1.3343 O   0  0  0  0  0  0  0  0  0  0  0  0
    4.9669   -0.3837   -0.9657 C   0  0  0  0  0  0  0  0  0  0  0  0
    5.7116    0.7865   -1.0728 C   0  0  0  0  0  0  0  0  0  0  0  0
    7.0379    0.8333   -0.7071 C   0  0  0  0  0  0  0  0  0  0  0  0
    7.6720   -0.2884   -0.2197 C   0  0  0  0  0  0  0  0  0  0  0  0
    6.9537   -1.4781   -0.0997 C   0  0  0  0  0  0  0  0  0  0  0  0
    7.6075   -2.5496    0.3796 F   0  0  0  0  0  0  0  0  0  0  0  0
    5.6231   -1.4913   -0.4758 C   0  0  0  0  0  0  0  0  0  0  0  0
    2.9859    0.1745    0.8622 C   0  0  0  0  0  0  0  0  0  0  0  0
    1.9608    0.4497    1.7561 C   0  0  0  0  0  0  0  0  0  0  0  0
    2.3096    0.8015    3.1562 C   0  0  0  0  0  0  0  0  0  0  0  0
    1.7392   -0.1496    3.9780 F   0  0  0  0  0  0  0  0  0  0  0  0
    3.6620    0.7681    3.3430 F   0  0  0  0  0  0  0  0  0  0  0  0
    1.8157    2.0502    3.5011 F   0  0  0  0  0  0  0  0  0  0  0  0
    0.6946    0.3929    1.3427 N   0  0  0  0  0  0  0  0  0  0  0  0
   -2.1929    0.2975    0.5300 C   0  0  0  0  0  0  0  0  0  0  0  0
   -4.6510    1.4332   -2.0675 H   0  0  0  0  0  0  0  0  0  0  0  0
   -3.9905    1.9829    0.5797 H   0  0  0  0  0  0  0  0  0  0  0  0
   -5.3809    0.4539    1.7153 H   0  0  0  0  0  0  0  0  0  0  0  0
   -6.4076    1.4386    0.6513 H   0  0  0  0  0  0  0  0  0  0  0  0
   -6.5704   -1.1681    0.7189 H   0  0  0  0  0  0  0  0  0  0  0  0
   -5.3298   -0.8839   -1.9210 H   0  0  0  0  0  0  0  0  0  0  0  0
   -5.6394   -2.2937   -0.8873 H   0  0  0  0  0  0  0  0  0  0  0  0
   -4.0689   -1.4374    0.8272 H   0  0  0  0  0  0  0  0  0  0  0  0
   -3.3046   -1.9657   -0.7050 H   0  0  0  0  0  0  0  0  0  0  0  0
   -2.6092    1.4515   -1.9925 H   0  0  0  0  0  0  0  0  0  0  0  0
   -3.3874   -0.1297   -2.5453 H   0  0  0  0  0  0  0  0  0  0  0  0
   -1.5181   -1.4005   -1.8052 H   0  0  0  0  0  0  0  0  0  0  0  0
   -0.7122    0.0729   -2.3999 H   0  0  0  0  0  0  0  0  0  0  0  0
    5.1764    1.6526   -1.4622 H   0  0  0  0  0  0  0  0  0  0  0  0
    7.6053    1.7463   -0.7946 H   0  0  0  0  0  0  0  0  0  0  0  0
    8.7205   -0.2192    0.0607 H   0  0  0  0  0  0  0  0  0  0  0  0
    5.1122   -2.4474   -0.3605 H   0  0  0  0  0  0  0  0  0  0  0  0
    4.0258    0.2159    1.1819 H   0  0  0  0  0  0  0  0  0  0  0  0
   -2.2870   -0.4438    1.3573 H   0  0  0  0  0  0  0  0  0  0  0  0
   -2.1767    1.2923    1.0018 H   0  0  0  0  0  0  0  0  0  0  0  0
  1  2  1  0
  2  3  1  0
  3  4  1  0
  4  5  1  0
  5  6  1  0
  6  7  1  0
  7  8  1  0
  8  9  1  0
  9 10  1  0
 10 11  1  0
 11 12  2  0
 12 13  1  0
 13 14  1  0
 14 15  1  0
 15 16  2  0
 16 17  1  0
 17 18  2  0
 18 19  1  0
 19 20  1  0
 19 21  2  0
 13 22  2  0
 22 23  1  0
 23 24  1  0
 24 25  1  0
 24 26  1  0
 24 27  1  0
 23 28  2  0
 10 29  1  0
  7  2  1  0
 28 11  1  0
 29  7  1  0
 21 15  1  0
  1 30  1  0
  2 31  1  1
  3 32  1  0
  3 33  1  0
  4 34  1  0
  5 35  1  0
  5 36  1  0
  6 37  1  0
  6 38  1  0
  8 39  1  0
  8 40  1  0
  9 41  1  0
  9 42  1  0
 16 43  1  0
 17 44  1  0
 18 45  1  0
 21 46  1  0
 22 47  1  0
 29 48  1  0
 29 49  1  0
M  END
$$$$
