@<TRIPOS>MOLECULE
*****
 49 52 0 0 0
SMALL
GASTEIGER

@<TRIPOS>ATOM
      1 O          -4.8915    1.8821   -1.2194 O.3     1  UNL1       -0.3899
      2 C          -4.4432    1.2118   -0.0994 C.3     1  UNL1        0.0748
      3 C          -5.6180    0.6326    0.6277 C.3     1  UNL1        0.0225
      4 N          -6.2052   -0.5039   -0.0098 N.3     1  UNL1       -0.3135
      5 C          -5.3050   -1.2225   -0.8786 C.3     1  UNL1       -0.0034
      6 C          -3.9409   -1.1998   -0.2570 C.3     1  UNL1       -0.0309
      7 C          -3.3705    0.2042   -0.3819 C.3     1  UNL1        0.0162
      8 C          -2.7908    0.3873   -1.7709 C.3     1  UNL1       -0.0276
      9 C          -1.4672   -0.3026   -1.6529 C.3     1  UNL1        0.0155
     10 N          -1.0460    0.0325   -0.3057 N.pl3   1  UNL1       -0.2989
     11 C           0.3310    0.0763    0.0749 C.ar    1  UNL1        0.2214
     12 N           1.3323   -0.1882   -0.7815 N.ar    1  UNL1       -0.1790
     13 C           2.6262   -0.1482   -0.4278 C.ar    1  UNL1        0.2254
     14 O           3.6346   -0.4261   -1.3343 O.3     1  UNL1       -0.4378
     15 C           4.9669   -0.3837   -0.9657 C.ar    1  UNL1        0.1331
     16 C           5.7116    0.7865   -1.0728 C.ar    1  UNL1       -0.0191
     17 C           7.0379    0.8333   -0.7071 C.ar    1  UNL1       -0.0556
     18 C           7.6720   -0.2884   -0.2197 C.ar    1  UNL1       -0.0262
     19 C           6.9537   -1.4781   -0.0997 C.ar    1  UNL1        0.1269
     20 F           7.6075   -2.5496    0.3796 F       1  UNL1       -0.2054
     21 C           5.6231   -1.4913   -0.4758 C.ar    1  UNL1        0.0160
     22 C           2.9859    0.1745    0.8622 C.ar    1  UNL1        0.0305
     23 C           1.9608    0.4497    1.7561 C.ar    1  UNL1        0.1522
     24 C           2.3096    0.8015    3.1562 C.3     1  UNL1        0.4345
     25 F           1.7392   -0.1496    3.9780 F       1  UNL1       -0.1644
     26 F           3.6620    0.7681    3.3430 F       1  UNL1       -0.1644
     27 F           1.8157    2.0502    3.5011 F       1  UNL1       -0.1644
     28 N           0.6946    0.3929    1.3427 N.ar    1  UNL1       -0.2101
     29 C          -2.1929    0.2975    0.5300 C.3     1  UNL1        0.0230
     30 H          -4.6510    1.4332   -2.0675 H       1  UNL1        0.2099
     31 H          -3.9905    1.9829    0.5797 H       1  UNL1        0.0612
     32 H          -5.3809    0.4539    1.7153 H       1  UNL1        0.0449
     33 H          -6.4076    1.4386    0.6513 H       1  UNL1        0.0449
     34 H          -6.5704   -1.1681    0.7189 H       1  UNL1        0.1220
     35 H          -5.3298   -0.8839   -1.9210 H       1  UNL1        0.0424
     36 H          -5.6394   -2.2937   -0.8873 H       1  UNL1        0.0424
     37 H          -4.0689   -1.4374    0.8272 H       1  UNL1        0.0284
     38 H          -3.3046   -1.9657   -0.7050 H       1  UNL1        0.0284
     39 H          -2.6092    1.4515   -1.9925 H       1  UNL1        0.0287
     40 H          -3.3874   -0.1297   -2.5453 H       1  UNL1        0.0287
     41 H          -1.5181   -1.4005   -1.8052 H       1  UNL1        0.0465
     42 H          -0.7122    0.0729   -2.3999 H       1  UNL1        0.0465
     43 H           5.1764    1.6526   -1.4622 H       1  UNL1        0.0654
     44 H           7.6053    1.7463   -0.7946 H       1  UNL1        0.0620
     45 H           8.7205   -0.2192    0.0607 H       1  UNL1        0.0646
     46 H           5.1122   -2.4474   -0.3605 H       1  UNL1        0.0683
     47 H           4.0258    0.2159    1.1819 H       1  UNL1        0.0692
     48 H          -2.2870   -0.4438    1.3573 H       1  UNL1        0.0471
     49 H          -2.1767    1.2923    1.0018 H       1  UNL1        0.0471
@<TRIPOS>BOND
     1     1     2    1
     2     2     3    1
     3     3     4    1
     4     4     5    1
     5     5     6    1
     6     6     7    1
     7     7     8    1
     8     8     9    1
     9     9    10    1
    10    10    11    1
    11    11    12   ar
    12    12    13   ar
    13    13    14    1
    14    14    15    1
    15    15    16   ar
    16    16    17   ar
    17    17    18   ar
    18    18    19   ar
    19    19    20    1
    20    19    21   ar
    21    13    22   ar
    22    22    23   ar
    23    23    24    1
    24    24    25    1
    25    24    26    1
    26    24    27    1
    27    23    28   ar
    28    10    29    1
    29     7     2    1
    30    28    11   ar
    31    29     7    1
    32    21    15   ar
    33     1    30    1
    34     2    31    1
    35     3    32    1
    36     3    33    1
    37     4    34    1
    38     5    35    1
    39     5    36    1
    40     6    37    1
    41     6    38    1
    42     8    39    1
    43     8    40    1
    44     9    41    1
    45     9    42    1
    46    16    43    1
    47    17    44    1
    48    18    45    1
    49    21    46    1
    50    22    47    1
    51    29    48    1
    52    29    49    1
