
     RDKit          3D

 65 68  0  0  0  0  0  0  0  0999 V2000
    7.8013   -1.7750   -1.7126 C   0  0  0  0  0  0  0  0  0  0  0  0
    6.8944   -0.6764   -1.3287 C   0  0  0  0  0  0  0  0  0  0  0  0
    5.7084   -0.8864   -0.6599 C   0  0  0  0  0  0  0  0  0  0  0  0
    4.9060    0.1660   -0.3287 C   0  0  0  0  0  0  0  0  0  0  0  0
    3.6461   -0.0140    0.3774 C   0  0  0  0  0  0  0  0  0  0  0  0
    3.5196   -1.0501    1.2775 C   0  0  0  0  0  0  0  0  0  0  0  0
    2.3257   -1.2444    1.9658 C   0  0  0  0  0  0  0  0  0  0  0  0
    1.2509   -0.4056    1.7598 C   0  0  0  0  0  0  0  0  0  0  0  0
   -0.0107   -0.6091    2.4842 C   0  0  2  0  0  0  0  0  0  0  0  0
   -0.0185   -1.8805    3.2954 C   0  0  0  0  0  0  0  0  0  0  0  0
   -1.1809   -0.4995    1.6356 N   0  0  0  0  0  0  0  0  0  0  0  0
   -2.1963    0.5210    1.8105 C   0  0  0  0  0  0  0  0  0  0  0  0
   -3.4591   -0.0372    1.1747 C   0  0  0  0  0  0  0  0  0  0  0  0
   -3.3157   -0.2153   -0.3033 C   0  0  2  0  0  0  0  0  0  0  0  0
   -2.9128    0.9173   -1.1293 C   0  0  0  0  0  0  0  0  0  0  0  0
   -3.6664    2.1587   -1.2643 C   0  0  0  0  0  0  0  0  0  0  0  0
   -3.9251    2.9744   -0.0315 C   0  0  0  0  0  0  0  0  0  0  0  0
   -4.6528    4.1541   -0.3777 O   0  0  0  0  0  0  0  0  0  0  0  0
   -4.5456   -0.9513   -0.7441 C   0  0  0  0  0  0  0  0  0  0  0  0
   -5.7378   -0.3096   -0.8718 C   0  0  0  0  0  0  0  0  0  0  0  0
   -6.8454   -1.0086   -1.2976 C   0  0  0  0  0  0  0  0  0  0  0  0
   -6.7236   -2.3482   -1.5858 C   0  0  0  0  0  0  0  0  0  0  0  0
   -5.5334   -3.0437   -1.4704 C   0  0  0  0  0  0  0  0  0  0  0  0
   -4.4588   -2.2850   -1.0387 C   0  0  0  0  0  0  0  0  0  0  0  0
   -2.1974   -1.1635   -0.4477 O   0  0  0  0  0  0  0  0  0  0  0  0
   -1.3370   -1.4325    0.5891 C   0  0  0  0  0  0  0  0  0  0  0  0
   -0.6620   -2.5126    0.6419 O   0  0  0  0  0  0  0  0  0  0  0  0
    1.3963    0.6249    0.8558 C   0  0  0  0  0  0  0  0  0  0  0  0
    2.5831    0.8329    0.1595 C   0  0  0  0  0  0  0  0  0  0  0  0
    5.3049    1.4441   -0.6764 C   0  0  0  0  0  0  0  0  0  0  0  0
    6.4924    1.6453   -1.3451 C   0  0  0  0  0  0  0  0  0  0  0  0
    6.9289    3.0222   -1.7236 C   0  0  0  0  0  0  0  0  0  0  0  0
    7.2558    0.5808   -1.6537 N   0  0  0  0  0  0  0  0  0  0  0  0
    7.3284   -2.7711   -1.6203 H   0  0  0  0  0  0  0  0  0  0  0  0
    8.6680   -1.7771   -0.9893 H   0  0  0  0  0  0  0  0  0  0  0  0
    8.1638   -1.5904   -2.7368 H   0  0  0  0  0  0  0  0  0  0  0  0
    5.4375   -1.8825   -0.4106 H   0  0  0  0  0  0  0  0  0  0  0  0
    4.3142   -1.7439    1.4899 H   0  0  0  0  0  0  0  0  0  0  0  0
    2.2072   -2.0523    2.6767 H   0  0  0  0  0  0  0  0  0  0  0  0
   -0.0948    0.2284    3.2378 H   0  0  0  0  0  0  0  0  0  0  0  0
    0.2999   -2.7684    2.7545 H   0  0  0  0  0  0  0  0  0  0  0  0
   -1.0682   -2.0394    3.6315 H   0  0  0  0  0  0  0  0  0  0  0  0
    0.6212   -1.7425    4.1892 H   0  0  0  0  0  0  0  0  0  0  0  0
   -2.4287    0.6290    2.8966 H   0  0  0  0  0  0  0  0  0  0  0  0
   -1.9202    1.4572    1.3339 H   0  0  0  0  0  0  0  0  0  0  0  0
   -4.3847    0.3844    1.5396 H   0  0  0  0  0  0  0  0  0  0  0  0
   -3.4861   -1.1171    1.5805 H   0  0  0  0  0  0  0  0  0  0  0  0
   -2.6104    0.5267   -2.1716 H   0  0  0  0  0  0  0  0  0  0  0  0
   -1.8676    1.2282   -0.7460 H   0  0  0  0  0  0  0  0  0  0  0  0
   -4.5600    2.1192   -1.9379 H   0  0  0  0  0  0  0  0  0  0  0  0
   -2.9769    2.8545   -1.8892 H   0  0  0  0  0  0  0  0  0  0  0  0
   -2.9616    3.3803    0.3681 H   0  0  0  0  0  0  0  0  0  0  0  0
   -4.5553    2.5005    0.7277 H   0  0  0  0  0  0  0  0  0  0  0  0
   -5.5185    3.8042   -0.7571 H   0  0  0  0  0  0  0  0  0  0  0  0
   -5.8776    0.7477   -0.6383 H   0  0  0  0  0  0  0  0  0  0  0  0
   -7.8245   -0.5023   -1.4080 H   0  0  0  0  0  0  0  0  0  0  0  0
   -7.6016   -2.9202   -1.9277 H   0  0  0  0  0  0  0  0  0  0  0  0
   -5.4478   -4.0997   -1.6997 H   0  0  0  0  0  0  0  0  0  0  0  0
   -3.5098   -2.8401   -0.9466 H   0  0  0  0  0  0  0  0  0  0  0  0
    0.5656    1.3178    0.6601 H   0  0  0  0  0  0  0  0  0  0  0  0
    2.7047    1.6429   -0.5543 H   0  0  0  0  0  0  0  0  0  0  0  0
    4.6953    2.3192   -0.4326 H   0  0  0  0  0  0  0  0  0  0  0  0
    6.0107    3.6322   -1.8074 H   0  0  0  0  0  0  0  0  0  0  0  0
    7.4497    2.9162   -2.7053 H   0  0  0  0  0  0  0  0  0  0  0  0
    7.5933    3.4653   -0.9759 H   0  0  0  0  0  0  0  0  0  0  0  0
  1  2  1  0
  2  3  2  0
  3  4  1  0
  4  5  1  0
  5  6  2  0
  6  7  1  0
  7  8  2  0
  8  9  1  0
  9 10  1  0
  9 11  1  0
 11 12  1  0
 12 13  1  0
 13 14  1  0
 14 15  1  6
 15 16  1  0
 16 17  1  0
 17 18  1  0
 14 19  1  0
 19 20  2  0
 20 21  1  0
 21 22  2  0
 22 23  1  0
 23 24  2  0
 14 25  1  0
 25 26  1  0
 26 27  2  0
  8 28  1  0
 28 29  2  0
  4 30  2  0
 30 31  1  0
 31 32  1  0
 31 33  2  0
 33  2  1  0
 29  5  1  0
 26 11  1  0
 24 19  1  0
  1 34  1  0
  1 35  1  0
  1 36  1  0
  3 37  1  0
  6 38  1  0
  7 39  1  0
  9 40  1  1
 10 41  1  0
 10 42  1  0
 10 43  1  0
 12 44  1  0
 12 45  1  0
 13 46  1  0
 13 47  1  0
 15 48  1  0
 15 49  1  0
 16 50  1  0
 16 51  1  0
 17 52  1  0
 17 53  1  0
 18 54  1  0
 20 55  1  0
 21 56  1  0
 22 57  1  0
 23 58  1  0
 24 59  1  0
 28 60  1  0
 29 61  1  0
 30 62  1  0
 32 63  1  0
 32 64  1  0
 32 65  1  0
M  END
$$$$
