@<TRIPOS>MOLECULE
*****
 65 68 0 0 0
SMALL
GASTEIGER

@<TRIPOS>ATOM
      1 C           7.8013   -1.7750   -1.7126 C.3     1  UNL1       -0.0223
      2 C           6.8944   -0.6764   -1.3287 C.ar    1  UNL1        0.0391
      3 C           5.7084   -0.8864   -0.6599 C.ar    1  UNL1       -0.0329
      4 C           4.9060    0.1660   -0.3287 C.ar    1  UNL1       -0.0145
      5 C           3.6461   -0.0140    0.3774 C.ar    1  UNL1       -0.0178
      6 C           3.5196   -1.0501    1.2775 C.ar    1  UNL1       -0.0537
      7 C           2.3257   -1.2444    1.9658 C.ar    1  UNL1       -0.0562
      8 C           1.2509   -0.4056    1.7598 C.ar    1  UNL1       -0.0271
      9 C          -0.0107   -0.6091    2.4842 C.3     1  UNL1        0.0515
     10 C          -0.0185   -1.8805    3.2954 C.3     1  UNL1       -0.0421
     11 N          -1.1809   -0.4995    1.6356 N.am    1  UNL1       -0.2605
     12 C          -2.1963    0.5210    1.8105 C.3     1  UNL1        0.0224
     13 C          -3.4591   -0.0372    1.1747 C.3     1  UNL1        0.0075
     14 C          -3.3157   -0.2153   -0.3033 C.3     1  UNL1        0.1415
     15 C          -2.9128    0.9173   -1.1293 C.3     1  UNL1       -0.0064
     16 C          -3.6664    2.1587   -1.2643 C.3     1  UNL1       -0.0258
     17 C          -3.9251    2.9744   -0.0315 C.3     1  UNL1        0.0443
     18 O          -4.6528    4.1541   -0.3777 O.3     1  UNL1       -0.3950
     19 C          -4.5456   -0.9513   -0.7441 C.ar    1  UNL1       -0.0041
     20 C          -5.7378   -0.3096   -0.8718 C.ar    1  UNL1       -0.0548
     21 C          -6.8454   -1.0086   -1.2976 C.ar    1  UNL1       -0.0614
     22 C          -6.7236   -2.3482   -1.5858 C.ar    1  UNL1       -0.0617
     23 C          -5.5334   -3.0437   -1.4704 C.ar    1  UNL1       -0.0614
     24 C          -4.4588   -2.2850   -1.0387 C.ar    1  UNL1       -0.0548
     25 O          -2.1974   -1.1635   -0.4477 O.3     1  UNL1       -0.4388
     26 C          -1.3370   -1.4325    0.5891 C.2     1  UNL1        0.4042
     27 O          -0.6620   -2.5126    0.6419 O.2     1  UNL1       -0.2262
     28 C           1.3963    0.6249    0.8558 C.ar    1  UNL1       -0.0562
     29 C           2.5831    0.8329    0.1595 C.ar    1  UNL1       -0.0537
     30 C           5.3049    1.4441   -0.6764 C.ar    1  UNL1       -0.0329
     31 C           6.4924    1.6453   -1.3451 C.ar    1  UNL1        0.0391
     32 C           6.9289    3.0222   -1.7236 C.3     1  UNL1       -0.0223
     33 N           7.2558    0.5808   -1.6537 N.ar    1  UNL1       -0.2570
     34 H           7.3284   -2.7711   -1.6203 H       1  UNL1        0.0292
     35 H           8.6680   -1.7771   -0.9893 H       1  UNL1        0.0292
     36 H           8.1638   -1.5904   -2.7368 H       1  UNL1        0.0292
     37 H           5.4375   -1.8825   -0.4106 H       1  UNL1        0.0641
     38 H           4.3142   -1.7439    1.4899 H       1  UNL1        0.0624
     39 H           2.2072   -2.0523    2.6767 H       1  UNL1        0.0621
     40 H          -0.0948    0.2284    3.2378 H       1  UNL1        0.0549
     41 H           0.2999   -2.7684    2.7545 H       1  UNL1        0.0251
     42 H          -1.0682   -2.0394    3.6315 H       1  UNL1        0.0251
     43 H           0.6212   -1.7425    4.1892 H       1  UNL1        0.0251
     44 H          -2.4287    0.6290    2.8966 H       1  UNL1        0.0467
     45 H          -1.9202    1.4572    1.3339 H       1  UNL1        0.0467
     46 H          -4.3847    0.3844    1.5396 H       1  UNL1        0.0322
     47 H          -3.4861   -1.1171    1.5805 H       1  UNL1        0.0322
     48 H          -2.6104    0.5267   -2.1716 H       1  UNL1        0.0308
     49 H          -1.8676    1.2282   -0.7460 H       1  UNL1        0.0308
     50 H          -4.5600    2.1192   -1.9379 H       1  UNL1        0.0289
     51 H          -2.9769    2.8545   -1.8892 H       1  UNL1        0.0289
     52 H          -2.9616    3.3803    0.3681 H       1  UNL1        0.0557
     53 H          -4.5553    2.5005    0.7277 H       1  UNL1        0.0557
     54 H          -5.5185    3.8042   -0.7571 H       1  UNL1        0.2094
     55 H          -5.8776    0.7477   -0.6383 H       1  UNL1        0.0622
     56 H          -7.8245   -0.5023   -1.4080 H       1  UNL1        0.0618
     57 H          -7.6016   -2.9202   -1.9277 H       1  UNL1        0.0618
     58 H          -5.4478   -4.0997   -1.6997 H       1  UNL1        0.0618
     59 H          -3.5098   -2.8401   -0.9466 H       1  UNL1        0.0622
     60 H           0.5656    1.3178    0.6601 H       1  UNL1        0.0621
     61 H           2.7047    1.6429   -0.5543 H       1  UNL1        0.0624
     62 H           4.6953    2.3192   -0.4326 H       1  UNL1        0.0641
     63 H           6.0107    3.6322   -1.8074 H       1  UNL1        0.0292
     64 H           7.4497    2.9162   -2.7053 H       1  UNL1        0.0292
     65 H           7.5933    3.4653   -0.9759 H       1  UNL1        0.0292
@<TRIPOS>BOND
     1     1     2    1
     2     2     3   ar
     3     3     4   ar
     4     4     5    1
     5     5     6   ar
     6     6     7   ar
     7     7     8   ar
     8     8     9    1
     9     9    10    1
    10     9    11    1
    11    11    12    1
    12    12    13    1
    13    13    14    1
    14    14    15    1
    15    15    16    1
    16    16    17    1
    17    17    18    1
    18    14    19    1
    19    19    20   ar
    20    20    21   ar
    21    21    22   ar
    22    22    23   ar
    23    23    24   ar
    24    14    25    1
    25    25    26    1
    26    26    27    2
    27     8    28   ar
    28    28    29   ar
    29     4    30   ar
    30    30    31   ar
    31    31    32    1
    32    31    33   ar
    33    33     2   ar
    34    29     5   ar
    35    26    11   am
    36    24    19   ar
    37     1    34    1
    38     1    35    1
    39     1    36    1
    40     3    37    1
    41     6    38    1
    42     7    39    1
    43     9    40    1
    44    10    41    1
    45    10    42    1
    46    10    43    1
    47    12    44    1
    48    12    45    1
    49    13    46    1
    50    13    47    1
    51    15    48    1
    52    15    49    1
    53    16    50    1
    54    16    51    1
    55    17    52    1
    56    17    53    1
    57    18    54    1
    58    20    55    1
    59    21    56    1
    60    22    57    1
    61    23    58    1
    62    24    59    1
    63    28    60    1
    64    29    61    1
    65    30    62    1
    66    32    63    1
    67    32    64    1
    68    32    65    1
