@<TRIPOS>MOLECULE
*****
 49 51 0 0 0
SMALL
GASTEIGER

@<TRIPOS>ATOM
      1 C          -4.3061    1.3648    0.8087 C.3     1  UNL1       -0.0487
      2 C          -4.1945    0.1285   -0.0307 C.3     1  UNL1        0.0367
      3 C          -5.4794   -0.6520    0.0706 C.3     1  UNL1       -0.0487
      4 S          -3.9627    0.7064   -1.7615 S.3     1  UNL1       -0.1511
      5 C          -3.0543   -0.6662   -2.5793 C.3     1  UNL1        0.0087
      6 C          -1.7892   -0.9401   -1.8047 C.3     1  UNL1        0.0304
      7 N          -1.8218   -0.4205   -0.4773 N.3     1  UNL1       -0.1626
      8 S          -0.9671    0.9774   -0.2619 S.O2    1  UNL1        0.0616
      9 O          -1.1057    1.6501    1.0695 O.2     1  UNL1       -0.1528
     10 O          -1.4992    2.0087   -1.2596 O.2     1  UNL1       -0.1528
     11 C           0.7334    0.8412   -0.5735 C.ar    1  UNL1        0.1057
     12 C           1.2124    1.0800   -1.8351 C.ar    1  UNL1       -0.0319
     13 C           2.5855    0.9807   -2.1113 C.ar    1  UNL1       -0.0175
     14 C           3.4594    0.6401   -1.1062 C.ar    1  UNL1        0.1286
     15 O           4.8185    0.5314   -1.3339 O.3     1  UNL1       -0.4559
     16 C           5.7451    0.1995   -0.3945 C.ar    1  UNL1        0.1313
     17 C           6.3697    1.1436    0.3810 C.ar    1  UNL1       -0.0012
     18 C           7.2995    0.7417    1.3150 C.ar    1  UNL1        0.0310
     19 N           7.6037   -0.5637    1.4773 N.ar    1  UNL1       -0.2630
     20 C           7.0111   -1.5101    0.7351 C.ar    1  UNL1        0.0310
     21 C           6.0785   -1.1239   -0.2035 C.ar    1  UNL1       -0.0012
     22 C           2.9558    0.4033    0.1580 C.ar    1  UNL1       -0.0175
     23 C           1.5988    0.5033    0.4234 C.ar    1  UNL1       -0.0319
     24 C          -2.9759   -0.7031    0.2876 C.3     1  UNL1        0.1237
     25 C          -2.7046   -0.8353    1.7411 C.2     1  UNL1        0.2557
     26 O          -1.5302   -0.6797    2.2217 O.2     1  UNL1       -0.2719
     27 N          -3.6950   -1.1388    2.7114 N.am    1  UNL1       -0.1961
     28 O          -3.4292   -1.2548    4.0342 O.3     1  UNL1       -0.2951
     29 H          -5.3860    1.6582    0.8069 H       1  UNL1        0.0244
     30 H          -4.0382    1.2057    1.8704 H       1  UNL1        0.0244
     31 H          -3.7623    2.1883    0.3352 H       1  UNL1        0.0244
     32 H          -5.2820   -1.7374    0.1506 H       1  UNL1        0.0244
     33 H          -6.0441   -0.5392   -0.9011 H       1  UNL1        0.0244
     34 H          -6.1668   -0.3155    0.8431 H       1  UNL1        0.0244
     35 H          -3.6629   -1.5711   -2.6205 H       1  UNL1        0.0389
     36 H          -2.7820   -0.2998   -3.5819 H       1  UNL1        0.0389
     37 H          -0.9492   -0.4600   -2.3421 H       1  UNL1        0.0452
     38 H          -1.6142   -2.0242   -1.7802 H       1  UNL1        0.0452
     39 H           0.5793    1.3536   -2.6767 H       1  UNL1        0.0638
     40 H           2.9671    1.1685   -3.1009 H       1  UNL1        0.0655
     41 H           6.1652    2.1993    0.2941 H       1  UNL1        0.0669
     42 H           7.8158    1.4645    1.9489 H       1  UNL1        0.0830
     43 H           7.2870   -2.5351    0.9019 H       1  UNL1        0.0830
     44 H           5.6142   -1.9058   -0.7898 H       1  UNL1        0.0669
     45 H           3.6529    0.1407    0.9231 H       1  UNL1        0.0655
     46 H           1.2411    0.3122    1.4169 H       1  UNL1        0.0638
     47 H          -3.2804   -1.7489   -0.0341 H       1  UNL1        0.0590
     48 H          -4.6833   -1.2867    2.4221 H       1  UNL1        0.1822
     49 H          -2.6278   -0.6799    4.2123 H       1  UNL1        0.2414
@<TRIPOS>BOND
     1     1     2    1
     2     2     3    1
     3     2     4    1
     4     4     5    1
     5     5     6    1
     6     6     7    1
     7     7     8    1
     8     8     9    2
     9     8    10    2
    10     8    11    1
    11    11    12   ar
    12    12    13   ar
    13    13    14   ar
    14    14    15    1
    15    15    16    1
    16    16    17   ar
    17    17    18   ar
    18    18    19   ar
    19    19    20   ar
    20    20    21   ar
    21    14    22   ar
    22    22    23   ar
    23     7    24    1
    24    24    25    1
    25    25    26    2
    26    25    27   am
    27    27    28    1
    28    24     2    1
    29    23    11   ar
    30    21    16   ar
    31     1    29    1
    32     1    30    1
    33     1    31    1
    34     3    32    1
    35     3    33    1
    36     3    34    1
    37     5    35    1
    38     5    36    1
    39     6    37    1
    40     6    38    1
    41    12    39    1
    42    13    40    1
    43    17    41    1
    44    18    42    1
    45    20    43    1
    46    21    44    1
    47    22    45    1
    48    23    46    1
    49    24    47    1
    50    27    48    1
    51    28    49    1
