
     RDKit          3D

 49 51  0  0  0  0  0  0  0  0999 V2000
   -4.3061    1.3648    0.8087 C   0  0  0  0  0  0  0  0  0  0  0  0
   -4.1945    0.1285   -0.0307 C   0  0  0  0  0  0  0  0  0  0  0  0
   -5.4794   -0.6520    0.0706 C   0  0  0  0  0  0  0  0  0  0  0  0
   -3.9627    0.7064   -1.7615 S   0  0  0  0  0  0  0  0  0  0  0  0
   -3.0543   -0.6662   -2.5793 C   0  0  0  0  0  0  0  0  0  0  0  0
   -1.7892   -0.9401   -1.8047 C   0  0  0  0  0  0  0  0  0  0  0  0
   -1.8218   -0.4205   -0.4773 N   0  0  0  0  0  0  0  0  0  0  0  0
   -0.9671    0.9774   -0.2619 S   0  0  0  0  0  6  0  0  0  0  0  0
   -1.1057    1.6501    1.0695 O   0  0  0  0  0  0  0  0  0  0  0  0
   -1.4992    2.0087   -1.2596 O   0  0  0  0  0  0  0  0  0  0  0  0
    0.7334    0.8412   -0.5735 C   0  0  0  0  0  0  0  0  0  0  0  0
    1.2124    1.0800   -1.8351 C   0  0  0  0  0  0  0  0  0  0  0  0
    2.5855    0.9807   -2.1113 C   0  0  0  0  0  0  0  0  0  0  0  0
    3.4594    0.6401   -1.1062 C   0  0  0  0  0  0  0  0  0  0  0  0
    4.8185    0.5314   -1.3339 O   0  0  0  0  0  0  0  0  0  0  0  0
    5.7451    0.1995   -0.3945 C   0  0  0  0  0  0  0  0  0  0  0  0
    6.3697    1.1436    0.3810 C   0  0  0  0  0  0  0  0  0  0  0  0
    7.2995    0.7417    1.3150 C   0  0  0  0  0  0  0  0  0  0  0  0
    7.6037   -0.5637    1.4773 N   0  0  0  0  0  0  0  0  0  0  0  0
    7.0111   -1.5101    0.7351 C   0  0  0  0  0  0  0  0  0  0  0  0
    6.0785   -1.1239   -0.2035 C   0  0  0  0  0  0  0  0  0  0  0  0
    2.9558    0.4033    0.1580 C   0  0  0  0  0  0  0  0  0  0  0  0
    1.5988    0.5033    0.4234 C   0  0  0  0  0  0  0  0  0  0  0  0
   -2.9759   -0.7031    0.2876 C   0  0  1  0  0  0  0  0  0  0  0  0
   -2.7046   -0.8353    1.7411 C   0  0  0  0  0  0  0  0  0  0  0  0
   -1.5302   -0.6797    2.2217 O   0  0  0  0  0  0  0  0  0  0  0  0
   -3.6950   -1.1388    2.7114 N   0  0  0  0  0  0  0  0  0  0  0  0
   -3.4292   -1.2548    4.0342 O   0  0  0  0  0  0  0  0  0  0  0  0
   -5.3860    1.6582    0.8069 H   0  0  0  0  0  0  0  0  0  0  0  0
   -4.0382    1.2057    1.8704 H   0  0  0  0  0  0  0  0  0  0  0  0
   -3.7623    2.1883    0.3352 H   0  0  0  0  0  0  0  0  0  0  0  0
   -5.2820   -1.7374    0.1506 H   0  0  0  0  0  0  0  0  0  0  0  0
   -6.0441   -0.5392   -0.9011 H   0  0  0  0  0  0  0  0  0  0  0  0
   -6.1668   -0.3155    0.8431 H   0  0  0  0  0  0  0  0  0  0  0  0
   -3.6629   -1.5711   -2.6205 H   0  0  0  0  0  0  0  0  0  0  0  0
   -2.7820   -0.2998   -3.5819 H   0  0  0  0  0  0  0  0  0  0  0  0
   -0.9492   -0.4600   -2.3421 H   0  0  0  0  0  0  0  0  0  0  0  0
   -1.6142   -2.0242   -1.7802 H   0  0  0  0  0  0  0  0  0  0  0  0
    0.5793    1.3536   -2.6767 H   0  0  0  0  0  0  0  0  0  0  0  0
    2.9671    1.1685   -3.1009 H   0  0  0  0  0  0  0  0  0  0  0  0
    6.1652    2.1993    0.2941 H   0  0  0  0  0  0  0  0  0  0  0  0
    7.8158    1.4645    1.9489 H   0  0  0  0  0  0  0  0  0  0  0  0
    7.2870   -2.5351    0.9019 H   0  0  0  0  0  0  0  0  0  0  0  0
    5.6142   -1.9058   -0.7898 H   0  0  0  0  0  0  0  0  0  0  0  0
    3.6529    0.1407    0.9231 H   0  0  0  0  0  0  0  0  0  0  0  0
    1.2411    0.3122    1.4169 H   0  0  0  0  0  0  0  0  0  0  0  0
   -3.2804   -1.7489   -0.0341 H   0  0  0  0  0  0  0  0  0  0  0  0
   -4.6833   -1.2867    2.4221 H   0  0  0  0  0  0  0  0  0  0  0  0
   -2.6278   -0.6799    4.2123 H   0  0  0  0  0  0  0  0  0  0  0  0
  1  2  1  0
  2  3  1  0
  2  4  1  0
  4  5  1  0
  5  6  1  0
  6  7  1  0
  7  8  1  0
  8  9  2  0
  8 10  2  0
  8 11  1  0
 11 12  2  0
 12 13  1  0
 13 14  2  0
 14 15  1  0
 15 16  1  0
 16 17  2  0
 17 18  1  0
 18 19  2  0
 19 20  1  0
 20 21  2  0
 14 22  1  0
 22 23  2  0
  7 24  1  0
 24 25  1  0
 25 26  2  0
 25 27  1  0
 27 28  1  0
 24  2  1  0
 23 11  1  0
 21 16  1  0
  1 29  1  0
  1 30  1  0
  1 31  1  0
  3 32  1  0
  3 33  1  0
  3 34  1  0
  5 35  1  0
  5 36  1  0
  6 37  1  0
  6 38  1  0
 12 39  1  0
 13 40  1  0
 17 41  1  0
 18 42  1  0
 20 43  1  0
 21 44  1  0
 22 45  1  0
 23 46  1  0
 24 47  1  6
 27 48  1  0
 28 49  1  0
M  END
$$$$
