@<TRIPOS>MOLECULE
*****
 66 70 0 0 0
SMALL
GASTEIGER

@<TRIPOS>ATOM
      1 C           2.4961    3.0387   -4.5849 C.3     1  UNL1       -0.0221
      2 C           2.7551    2.2959   -3.3225 C.ar    1  UNL1        0.0453
      3 C           3.9580    2.5314   -2.6470 C.ar    1  UNL1       -0.0193
      4 C           4.2016    1.8454   -1.4781 C.ar    1  UNL1        0.0453
      5 C           5.4741    2.0964   -0.7662 C.3     1  UNL1       -0.0221
      6 N           3.2905    0.9785   -1.0212 N.ar    1  UNL1       -0.2002
      7 C           2.1296    0.7325   -1.6469 C.ar    1  UNL1        0.3192
      8 O           1.2128   -0.1745   -1.1385 O.3     1  UNL1       -0.4450
      9 C           1.5888   -0.8289    0.0977 C.3     1  UNL1        0.2250
     10 C           2.5995   -1.8457   -0.1997 C.2     1  UNL1        0.3486
     11 O           2.6512   -2.3727   -1.3384 O.2     1  UNL1       -0.2467
     12 O           3.5703   -2.2935    0.7126 O.3     1  UNL1       -0.4780
     13 C           0.3972   -1.1525    0.9222 C.3     1  UNL1        0.1202
     14 C           0.7313   -1.9946    2.0601 C.ar    1  UNL1       -0.0188
     15 C           0.3779   -1.5442    3.3403 C.ar    1  UNL1       -0.0564
     16 C           0.6729   -2.2888    4.4537 C.ar    1  UNL1       -0.0614
     17 C           1.3197   -3.5006    4.4043 C.ar    1  UNL1       -0.0617
     18 C           1.6726   -3.9578    3.1674 C.ar    1  UNL1       -0.0614
     19 C           1.3716   -3.1988    2.0321 C.ar    1  UNL1       -0.0564
     20 N          -0.2115    0.0531    1.4797 N.3     1  UNL1       -0.2916
     21 C           0.0787    1.2850    0.9007 C.3     1  UNL1        0.0747
     22 C          -0.7485    1.5043   -0.3450 C.2     1  UNL1        0.2340
     23 O          -0.5905    2.4810   -1.0497 O.2     1  UNL1       -0.2738
     24 N          -1.7866    0.5712   -0.7895 N.am    1  UNL1       -0.2655
     25 C          -2.9508    1.1911   -1.3048 C.3     1  UNL1        0.0503
     26 C          -3.9237    1.5187   -0.2297 C.ar    1  UNL1        0.0407
     27 C          -4.7861    0.6377    0.3433 C.ar    1  UNL1        0.1335
     28 F          -4.8709   -0.6628   -0.0655 F       1  UNL1       -0.2050
     29 C          -5.6818    0.9616    1.3712 C.ar    1  UNL1        0.0093
     30 C          -5.7063    2.2400    1.8412 C.ar    1  UNL1        0.1289
     31 F          -6.5645    2.6168    2.8494 F       1  UNL1       -0.2053
     32 C          -4.8571    3.1779    1.2999 C.ar    1  UNL1        0.0093
     33 C          -3.9935    2.8209    0.2938 C.ar    1  UNL1        0.1335
     34 F          -3.1792    3.7568   -0.2234 F       1  UNL1       -0.2050
     35 C          -1.5894   -0.8447   -0.7142 C.ar    1  UNL1        0.0420
     36 C          -2.5030   -1.4907   -1.5565 C.ar    1  UNL1       -0.0399
     37 C          -2.5974   -2.8601   -1.6685 C.ar    1  UNL1       -0.0600
     38 C          -1.7506   -3.6230   -0.9136 C.ar    1  UNL1       -0.0613
     39 C          -0.8184   -3.0090   -0.0583 C.ar    1  UNL1       -0.0546
     40 C          -0.7347   -1.6560    0.0387 C.ar    1  UNL1        0.0025
     41 N           1.9138    1.4171   -2.7904 N.ar    1  UNL1       -0.2002
     42 H           1.4234    3.0081   -4.8472 H       1  UNL1        0.0293
     43 H           3.0455    2.4951   -5.3838 H       1  UNL1        0.0293
     44 H           2.8881    4.0676   -4.5104 H       1  UNL1        0.0293
     45 H           4.6587    3.2485   -3.0694 H       1  UNL1        0.0653
     46 H           6.2262    2.5470   -1.4441 H       1  UNL1        0.0293
     47 H           5.8800    1.0803   -0.4905 H       1  UNL1        0.0293
     48 H           5.3555    2.6426    0.1757 H       1  UNL1        0.0293
     49 H           2.1918   -0.0186    0.6402 H       1  UNL1        0.0879
     50 H           4.4242   -2.7261    0.3560 H       1  UNL1        0.2952
     51 H          -0.1441   -0.5830    3.4868 H       1  UNL1        0.0621
     52 H           0.3817   -1.9048    5.4312 H       1  UNL1        0.0618
     53 H           1.5392   -4.0674    5.3109 H       1  UNL1        0.0618
     54 H           2.1802   -4.9012    3.0842 H       1  UNL1        0.0618
     55 H           1.6865   -3.6663    1.1169 H       1  UNL1        0.0621
     56 H          -1.1747   -0.1074    1.8043 H       1  UNL1        0.1236
     57 H          -0.3599    2.0622    1.6288 H       1  UNL1        0.0520
     58 H           1.1089    1.6197    0.8062 H       1  UNL1        0.0520
     59 H          -3.5312    0.7335   -2.0928 H       1  UNL1        0.0520
     60 H          -2.5980    2.2240   -1.6625 H       1  UNL1        0.0520
     61 H          -6.3494    0.2108    1.7920 H       1  UNL1        0.0675
     62 H          -4.9129    4.1813    1.7059 H       1  UNL1        0.0675
     63 H          -3.1440   -0.8676   -2.1387 H       1  UNL1        0.0636
     64 H          -3.3237   -3.3172   -2.3371 H       1  UNL1        0.0618
     65 H          -1.8252   -4.6950   -0.9993 H       1  UNL1        0.0618
     66 H          -0.2455   -3.7190    0.4890 H       1  UNL1        0.0622
@<TRIPOS>BOND
     1     1     2    1
     2     2     3   ar
     3     3     4   ar
     4     4     5    1
     5     4     6   ar
     6     6     7   ar
     7     7     8    1
     8     8     9    1
     9     9    10    1
    10    10    11    2
    11    10    12    1
    12     9    13    1
    13    13    14    1
    14    14    15   ar
    15    15    16   ar
    16    16    17   ar
    17    17    18   ar
    18    18    19   ar
    19    13    20    1
    20    20    21    1
    21    21    22    1
    22    22    23    2
    23    22    24   am
    24    24    25    1
    25    25    26    1
    26    26    27   ar
    27    27    28    1
    28    27    29   ar
    29    29    30   ar
    30    30    31    1
    31    30    32   ar
    32    32    33   ar
    33    33    34    1
    34    24    35    1
    35    35    36   ar
    36    36    37   ar
    37    37    38   ar
    38    38    39   ar
    39    39    40   ar
    40     7    41   ar
    41    41     2   ar
    42    40    13    1
    43    19    14   ar
    44    33    26   ar
    45    40    35   ar
    46     1    42    1
    47     1    43    1
    48     1    44    1
    49     3    45    1
    50     5    46    1
    51     5    47    1
    52     5    48    1
    53     9    49    1
    54    12    50    1
    55    15    51    1
    56    16    52    1
    57    17    53    1
    58    18    54    1
    59    19    55    1
    60    20    56    1
    61    21    57    1
    62    21    58    1
    63    25    59    1
    64    25    60    1
    65    29    61    1
    66    32    62    1
    67    36    63    1
    68    37    64    1
    69    38    65    1
    70    39    66    1
