
     RDKit          3D

 66 70  0  0  0  0  0  0  0  0999 V2000
    2.4961    3.0387   -4.5849 C   0  0  0  0  0  0  0  0  0  0  0  0
    2.7551    2.2959   -3.3225 C   0  0  0  0  0  0  0  0  0  0  0  0
    3.9580    2.5314   -2.6470 C   0  0  0  0  0  0  0  0  0  0  0  0
    4.2016    1.8454   -1.4781 C   0  0  0  0  0  0  0  0  0  0  0  0
    5.4741    2.0964   -0.7662 C   0  0  0  0  0  0  0  0  0  0  0  0
    3.2905    0.9785   -1.0212 N   0  0  0  0  0  0  0  0  0  0  0  0
    2.1296    0.7325   -1.6469 C   0  0  0  0  0  0  0  0  0  0  0  0
    1.2128   -0.1745   -1.1385 O   0  0  0  0  0  0  0  0  0  0  0  0
    1.5888   -0.8289    0.0977 C   0  0  2  0  0  0  0  0  0  0  0  0
    2.5995   -1.8457   -0.1997 C   0  0  0  0  0  0  0  0  0  0  0  0
    2.6512   -2.3727   -1.3384 O   0  0  0  0  0  0  0  0  0  0  0  0
    3.5703   -2.2935    0.7126 O   0  0  0  0  0  0  0  0  0  0  0  0
    0.3972   -1.1525    0.9222 C   0  0  1  0  0  0  0  0  0  0  0  0
    0.7313   -1.9946    2.0601 C   0  0  0  0  0  0  0  0  0  0  0  0
    0.3779   -1.5442    3.3403 C   0  0  0  0  0  0  0  0  0  0  0  0
    0.6729   -2.2888    4.4537 C   0  0  0  0  0  0  0  0  0  0  0  0
    1.3197   -3.5006    4.4043 C   0  0  0  0  0  0  0  0  0  0  0  0
    1.6726   -3.9578    3.1674 C   0  0  0  0  0  0  0  0  0  0  0  0
    1.3716   -3.1988    2.0321 C   0  0  0  0  0  0  0  0  0  0  0  0
   -0.2115    0.0531    1.4797 N   0  0  0  0  0  0  0  0  0  0  0  0
    0.0787    1.2850    0.9007 C   0  0  0  0  0  0  0  0  0  0  0  0
   -0.7485    1.5043   -0.3450 C   0  0  0  0  0  0  0  0  0  0  0  0
   -0.5905    2.4810   -1.0497 O   0  0  0  0  0  0  0  0  0  0  0  0
   -1.7866    0.5712   -0.7895 N   0  0  0  0  0  0  0  0  0  0  0  0
   -2.9508    1.1911   -1.3048 C   0  0  0  0  0  0  0  0  0  0  0  0
   -3.9237    1.5187   -0.2297 C   0  0  0  0  0  0  0  0  0  0  0  0
   -4.7861    0.6377    0.3433 C   0  0  0  0  0  0  0  0  0  0  0  0
   -4.8709   -0.6628   -0.0655 F   0  0  0  0  0  0  0  0  0  0  0  0
   -5.6818    0.9616    1.3712 C   0  0  0  0  0  0  0  0  0  0  0  0
   -5.7063    2.2400    1.8412 C   0  0  0  0  0  0  0  0  0  0  0  0
   -6.5645    2.6168    2.8494 F   0  0  0  0  0  0  0  0  0  0  0  0
   -4.8571    3.1779    1.2999 C   0  0  0  0  0  0  0  0  0  0  0  0
   -3.9935    2.8209    0.2938 C   0  0  0  0  0  0  0  0  0  0  0  0
   -3.1792    3.7568   -0.2234 F   0  0  0  0  0  0  0  0  0  0  0  0
   -1.5894   -0.8447   -0.7142 C   0  0  0  0  0  0  0  0  0  0  0  0
   -2.5030   -1.4907   -1.5565 C   0  0  0  0  0  0  0  0  0  0  0  0
   -2.5974   -2.8601   -1.6685 C   0  0  0  0  0  0  0  0  0  0  0  0
   -1.7506   -3.6230   -0.9136 C   0  0  0  0  0  0  0  0  0  0  0  0
   -0.8184   -3.0090   -0.0583 C   0  0  0  0  0  0  0  0  0  0  0  0
   -0.7347   -1.6560    0.0387 C   0  0  0  0  0  0  0  0  0  0  0  0
    1.9138    1.4171   -2.7904 N   0  0  0  0  0  0  0  0  0  0  0  0
    1.4234    3.0081   -4.8472 H   0  0  0  0  0  0  0  0  0  0  0  0
    3.0455    2.4951   -5.3838 H   0  0  0  0  0  0  0  0  0  0  0  0
    2.8881    4.0676   -4.5104 H   0  0  0  0  0  0  0  0  0  0  0  0
    4.6587    3.2485   -3.0694 H   0  0  0  0  0  0  0  0  0  0  0  0
    6.2262    2.5470   -1.4441 H   0  0  0  0  0  0  0  0  0  0  0  0
    5.8800    1.0803   -0.4905 H   0  0  0  0  0  0  0  0  0  0  0  0
    5.3555    2.6426    0.1757 H   0  0  0  0  0  0  0  0  0  0  0  0
    2.1918   -0.0186    0.6402 H   0  0  0  0  0  0  0  0  0  0  0  0
    4.4242   -2.7261    0.3560 H   0  0  0  0  0  0  0  0  0  0  0  0
   -0.1441   -0.5830    3.4868 H   0  0  0  0  0  0  0  0  0  0  0  0
    0.3817   -1.9048    5.4312 H   0  0  0  0  0  0  0  0  0  0  0  0
    1.5392   -4.0674    5.3109 H   0  0  0  0  0  0  0  0  0  0  0  0
    2.1802   -4.9012    3.0842 H   0  0  0  0  0  0  0  0  0  0  0  0
    1.6865   -3.6663    1.1169 H   0  0  0  0  0  0  0  0  0  0  0  0
   -1.1747   -0.1074    1.8043 H   0  0  0  0  0  0  0  0  0  0  0  0
   -0.3599    2.0622    1.6288 H   0  0  0  0  0  0  0  0  0  0  0  0
    1.1089    1.6197    0.8062 H   0  0  0  0  0  0  0  0  0  0  0  0
   -3.5312    0.7335   -2.0928 H   0  0  0  0  0  0  0  0  0  0  0  0
   -2.5980    2.2240   -1.6625 H   0  0  0  0  0  0  0  0  0  0  0  0
   -6.3494    0.2108    1.7920 H   0  0  0  0  0  0  0  0  0  0  0  0
   -4.9129    4.1813    1.7059 H   0  0  0  0  0  0  0  0  0  0  0  0
   -3.1440   -0.8676   -2.1387 H   0  0  0  0  0  0  0  0  0  0  0  0
   -3.3237   -3.3172   -2.3371 H   0  0  0  0  0  0  0  0  0  0  0  0
   -1.8252   -4.6950   -0.9993 H   0  0  0  0  0  0  0  0  0  0  0  0
   -0.2455   -3.7190    0.4890 H   0  0  0  0  0  0  0  0  0  0  0  0
  1  2  1  0
  2  3  2  0
  3  4  1  0
  4  5  1  0
  4  6  2  0
  6  7  1  0
  7  8  1  0
  8  9  1  0
  9 10  1  0
 10 11  2  0
 10 12  1  0
  9 13  1  0
 13 14  1  1
 14 15  2  0
 15 16  1  0
 16 17  2  0
 17 18  1  0
 18 19  2  0
 13 20  1  0
 20 21  1  0
 21 22  1  0
 22 23  2  0
 22 24  1  0
 24 25  1  0
 25 26  1  0
 26 27  2  0
 27 28  1  0
 27 29  1  0
 29 30  2  0
 30 31  1  0
 30 32  1  0
 32 33  2  0
 33 34  1  0
 24 35  1  0
 35 36  2  0
 36 37  1  0
 37 38  2  0
 38 39  1  0
 39 40  2  0
  7 41  2  0
 41  2  1  0
 40 13  1  0
 19 14  1  0
 33 26  1  0
 40 35  1  0
  1 42  1  0
  1 43  1  0
  1 44  1  0
  3 45  1  0
  5 46  1  0
  5 47  1  0
  5 48  1  0
  9 49  1  1
 12 50  1  0
 15 51  1  0
 16 52  1  0
 17 53  1  0
 18 54  1  0
 19 55  1  0
 20 56  1  0
 21 57  1  0
 21 58  1  0
 25 59  1  0
 25 60  1  0
 29 61  1  0
 32 62  1  0
 36 63  1  0
 37 64  1  0
 38 65  1  0
 39 66  1  0
M  END
$$$$
