
     RDKit          3D

 77 81  0  0  0  0  0  0  0  0999 V2000
    9.0093    3.2207   -1.5199 C   0  0  0  0  0  0  0  0  0  0  0  0
    9.5418    2.1785   -2.4676 C   0  0  0  0  0  0  0  0  0  0  0  0
    9.3532    0.8369   -2.0335 N   0  0  0  0  0  0  0  0  0  0  0  0
   10.0776    0.4186   -0.9165 C   0  0  0  0  0  0  0  0  0  0  0  0
    9.3879   -0.4093    0.1010 C   0  0  0  0  0  0  0  0  0  0  0  0
    7.9404   -0.3620    0.0256 N   0  0  0  0  0  0  0  0  0  0  0  0
    7.3163   -1.2116    0.9949 C   0  0  0  0  0  0  0  0  0  0  0  0
    5.8215   -1.1509    0.9065 C   0  0  0  0  0  0  0  0  0  0  0  0
    5.1082   -2.1743    0.3429 C   0  0  0  0  0  0  0  0  0  0  0  0
    3.7314   -2.1094    0.2665 C   0  0  0  0  0  0  0  0  0  0  0  0
    2.9946   -1.0682    0.7247 C   0  0  0  0  0  0  0  0  0  0  0  0
    1.5863   -0.9100    0.6953 N   0  0  0  0  0  0  0  0  0  0  0  0
    0.7003   -1.8473    0.1783 C   0  0  0  0  0  0  0  0  0  0  0  0
    1.1307   -2.9504   -0.3194 O   0  0  0  0  0  0  0  0  0  0  0  0
   -0.7781   -1.7098    0.1332 C   0  0  0  0  0  0  0  0  0  0  0  0
   -1.3217   -0.5121    0.6669 N   0  0  0  0  0  0  0  0  0  0  0  0
   -2.7576   -0.3467    0.6390 C   0  0  0  0  0  0  0  0  0  0  0  0
   -3.5702   -1.3208    0.1127 C   0  0  0  0  0  0  0  0  0  0  0  0
   -4.9517   -1.1957    0.0670 C   0  0  0  0  0  0  0  0  0  0  0  0
   -5.5043   -0.0585    0.5667 C   0  0  0  0  0  0  0  0  0  0  0  0
   -6.9676    0.0759    0.5199 C   0  0  0  0  0  0  0  0  0  0  0  0
   -7.8024   -1.0164    0.6246 C   0  0  0  0  0  0  0  0  0  0  0  0
   -9.1805   -0.8392    0.5741 C   0  0  0  0  0  0  0  0  0  0  0  0
   -9.7268    0.4214    0.4200 C   0  0  0  0  0  0  0  0  0  0  0  0
  -11.1303    0.6040    0.3707 N   0  0  0  0  0  0  0  0  0  0  0  0
  -11.8156    0.5479   -0.8623 C   0  0  0  0  0  0  0  0  0  0  0  0
  -11.1578    0.3356   -1.8923 O   0  0  0  0  0  0  0  0  0  0  0  0
  -13.3068    0.7389   -0.9413 C   0  0  0  0  0  0  0  0  0  0  0  0
  -14.1657    0.3776    0.1948 C   0  0  0  0  0  0  0  0  0  0  0  0
  -13.8408    1.8256   -0.0395 C   0  0  0  0  0  0  0  0  0  0  0  0
   -8.8741    1.4547    0.3225 N   0  0  0  0  0  0  0  0  0  0  0  0
   -7.5493    1.3193    0.3670 C   0  0  0  0  0  0  0  0  0  0  0  0
   -4.7202    0.9288    1.0969 C   0  0  0  0  0  0  0  0  0  0  0  0
   -3.3503    0.7837    1.1325 C   0  0  0  0  0  0  0  0  0  0  0  0
    3.7246   -0.0140    1.3049 C   0  0  0  0  0  0  0  0  0  0  0  0
    5.0961   -0.0639    1.3883 C   0  0  0  0  0  0  0  0  0  0  0  0
    5.8341    1.0775    2.0154 C   0  0  0  0  0  0  0  0  0  0  0  0
    6.5501    0.7272    3.1155 F   0  0  0  0  0  0  0  0  0  0  0  0
    6.6346    1.7041    1.0501 F   0  0  0  0  0  0  0  0  0  0  0  0
    4.9120    2.0269    2.3969 F   0  0  0  0  0  0  0  0  0  0  0  0
    7.5927   -0.7369   -1.3377 C   0  0  0  0  0  0  0  0  0  0  0  0
    8.1386    0.2201   -2.3471 C   0  0  0  0  0  0  0  0  0  0  0  0
    9.3132    4.2159   -1.9412 H   0  0  0  0  0  0  0  0  0  0  0  0
    7.9206    3.2100   -1.4749 H   0  0  0  0  0  0  0  0  0  0  0  0
    9.5059    3.1452   -0.5386 H   0  0  0  0  0  0  0  0  0  0  0  0
   10.6383    2.3651   -2.5696 H   0  0  0  0  0  0  0  0  0  0  0  0
    9.1057    2.3513   -3.4717 H   0  0  0  0  0  0  0  0  0  0  0  0
   10.9812   -0.1608   -1.2698 H   0  0  0  0  0  0  0  0  0  0  0  0
   10.5333    1.3062   -0.3928 H   0  0  0  0  0  0  0  0  0  0  0  0
    9.7590   -0.1692    1.1202 H   0  0  0  0  0  0  0  0  0  0  0  0
    9.6522   -1.4991   -0.0408 H   0  0  0  0  0  0  0  0  0  0  0  0
    7.6015   -0.9367    2.0180 H   0  0  0  0  0  0  0  0  0  0  0  0
    7.6209   -2.2779    0.8623 H   0  0  0  0  0  0  0  0  0  0  0  0
    5.6255   -3.0270   -0.0392 H   0  0  0  0  0  0  0  0  0  0  0  0
    3.2234   -2.9490   -0.1915 H   0  0  0  0  0  0  0  0  0  0  0  0
    1.1482   -0.0258    1.0875 H   0  0  0  0  0  0  0  0  0  0  0  0
   -1.1035   -1.8365   -0.9390 H   0  0  0  0  0  0  0  0  0  0  0  0
   -1.1701   -2.6256    0.6592 H   0  0  0  0  0  0  0  0  0  0  0  0
   -0.7431    0.2379    1.0691 H   0  0  0  0  0  0  0  0  0  0  0  0
   -3.1085   -2.2192   -0.2802 H   0  0  0  0  0  0  0  0  0  0  0  0
   -5.4951   -2.0116   -0.3635 H   0  0  0  0  0  0  0  0  0  0  0  0
   -7.3792   -2.0197    0.7466 H   0  0  0  0  0  0  0  0  0  0  0  0
   -9.8602   -1.6753    0.6530 H   0  0  0  0  0  0  0  0  0  0  0  0
  -11.6433    0.7787    1.2504 H   0  0  0  0  0  0  0  0  0  0  0  0
  -13.7284    0.6629   -1.9671 H   0  0  0  0  0  0  0  0  0  0  0  0
  -15.1927   -0.0025    0.0207 H   0  0  0  0  0  0  0  0  0  0  0  0
  -13.6584   -0.1432    1.0457 H   0  0  0  0  0  0  0  0  0  0  0  0
  -14.6415    2.4559   -0.5139 H   0  0  0  0  0  0  0  0  0  0  0  0
  -13.1471    2.2870    0.6623 H   0  0  0  0  0  0  0  0  0  0  0  0
   -6.8686    2.1725    0.2858 H   0  0  0  0  0  0  0  0  0  0  0  0
   -5.2035    1.8110    1.4799 H   0  0  0  0  0  0  0  0  0  0  0  0
   -2.7194    1.5528    1.5474 H   0  0  0  0  0  0  0  0  0  0  0  0
    3.1772    0.8584    1.6940 H   0  0  0  0  0  0  0  0  0  0  0  0
    8.0553   -1.7318   -1.5153 H   0  0  0  0  0  0  0  0  0  0  0  0
    6.4984   -0.8866   -1.4556 H   0  0  0  0  0  0  0  0  0  0  0  0
    8.2345   -0.3045   -3.3423 H   0  0  0  0  0  0  0  0  0  0  0  0
    7.3580    1.0068   -2.5338 H   0  0  0  0  0  0  0  0  0  0  0  0
  1  2  1  0
  2  3  1  0
  3  4  1  0
  4  5  1  0
  5  6  1  0
  6  7  1  0
  7  8  1  0
  8  9  2  0
  9 10  1  0
 10 11  2  0
 11 12  1  0
 12 13  1  0
 13 14  2  0
 13 15  1  0
 15 16  1  0
 16 17  1  0
 17 18  2  0
 18 19  1  0
 19 20  2  0
 20 21  1  0
 21 22  2  0
 22 23  1  0
 23 24  2  0
 24 25  1  0
 25 26  1  0
 26 27  2  0
 26 28  1  0
 28 29  1  0
 29 30  1  0
 24 31  1  0
 31 32  2  0
 20 33  1  0
 33 34  2  0
 11 35  1  0
 35 36  2  0
 36 37  1  0
 37 38  1  0
 37 39  1  0
 37 40  1  0
  6 41  1  0
 41 42  1  0
 42  3  1  0
 36  8  1  0
 34 17  1  0
 32 21  1  0
 30 28  1  0
  1 43  1  0
  1 44  1  0
  1 45  1  0
  2 46  1  0
  2 47  1  0
  4 48  1  0
  4 49  1  0
  5 50  1  0
  5 51  1  0
  7 52  1  0
  7 53  1  0
  9 54  1  0
 10 55  1  0
 12 56  1  0
 15 57  1  0
 15 58  1  0
 16 59  1  0
 18 60  1  0
 19 61  1  0
 22 62  1  0
 23 63  1  0
 25 64  1  0
 28 65  1  0
 29 66  1  0
 29 67  1  0
 30 68  1  0
 30 69  1  0
 32 70  1  0
 33 71  1  0
 34 72  1  0
 35 73  1  0
 41 74  1  0
 41 75  1  0
 42 76  1  0
 42 77  1  0
M  END
$$$$
