@<TRIPOS>MOLECULE
*****
 77 81 0 0 0
SMALL
GASTEIGER

@<TRIPOS>ATOM
      1 C           9.0093    3.2207   -1.5199 C.3     1  UNL1       -0.0524
      2 C           9.5418    2.1785   -2.4676 C.3     1  UNL1       -0.0039
      3 N           9.3532    0.8369   -2.0335 N.3     1  UNL1       -0.3002
      4 C          10.0776    0.4186   -0.9165 C.3     1  UNL1        0.0117
      5 C           9.3879   -0.4093    0.1010 C.3     1  UNL1        0.0120
      6 N           7.9404   -0.3620    0.0256 N.3     1  UNL1       -0.2957
      7 C           7.3163   -1.2116    0.9949 C.3     1  UNL1        0.0247
      8 C           5.8215   -1.1509    0.9065 C.ar    1  UNL1       -0.0216
      9 C           5.1082   -2.1743    0.3429 C.ar    1  UNL1       -0.0551
     10 C           3.7314   -2.1094    0.2665 C.ar    1  UNL1       -0.0402
     11 C           2.9946   -1.0682    0.7247 C.ar    1  UNL1        0.0340
     12 N           1.5863   -0.9100    0.6953 N.am    1  UNL1       -0.2842
     13 C           0.7003   -1.8473    0.1783 C.2     1  UNL1        0.2343
     14 O           1.1307   -2.9504   -0.3194 O.2     1  UNL1       -0.2738
     15 C          -0.7781   -1.7098    0.1332 C.3     1  UNL1        0.0861
     16 N          -1.3217   -0.5121    0.6669 N.pl3   1  UNL1       -0.3354
     17 C          -2.7576   -0.3467    0.6390 C.ar    1  UNL1        0.0275
     18 C          -3.5702   -1.3208    0.1127 C.ar    1  UNL1       -0.0403
     19 C          -4.9517   -1.1957    0.0670 C.ar    1  UNL1       -0.0522
     20 C          -5.5043   -0.0585    0.5667 C.ar    1  UNL1       -0.0163
     21 C          -6.9676    0.0759    0.5199 C.ar    1  UNL1        0.0004
     22 C          -7.8024   -1.0164    0.6246 C.ar    1  UNL1       -0.0493
     23 C          -9.1805   -0.8392    0.5741 C.ar    1  UNL1       -0.0209
     24 C          -9.7268    0.4214    0.4200 C.ar    1  UNL1        0.1249
     25 N         -11.1303    0.6040    0.3707 N.am    1  UNL1       -0.2702
     26 C         -11.8156    0.5479   -0.8623 C.2     1  UNL1        0.2213
     27 O         -11.1578    0.3356   -1.8923 O.2     1  UNL1       -0.2751
     28 C         -13.3068    0.7389   -0.9413 C.3     1  UNL1        0.0360
     29 C         -14.1657    0.3776    0.1948 C.3     1  UNL1       -0.0412
     30 C         -13.8408    1.8256   -0.0395 C.3     1  UNL1       -0.0412
     31 N          -8.8741    1.4547    0.3225 N.ar    1  UNL1       -0.2395
     32 C          -7.5493    1.3193    0.3670 C.ar    1  UNL1        0.0374
     33 C          -4.7202    0.9288    1.0969 C.ar    1  UNL1       -0.0522
     34 C          -3.3503    0.7837    1.1325 C.ar    1  UNL1       -0.0403
     35 C           3.7246   -0.0140    1.3049 C.ar    1  UNL1       -0.0285
     36 C           5.0961   -0.0639    1.3883 C.ar    1  UNL1        0.0609
     37 C           5.8341    1.0775    2.0154 C.3     1  UNL1        0.4178
     38 F           6.5501    0.7272    3.1155 F       1  UNL1       -0.1659
     39 F           6.6346    1.7041    1.0501 F       1  UNL1       -0.1659
     40 F           4.9120    2.0269    2.3969 F       1  UNL1       -0.1659
     41 C           7.5927   -0.7369   -1.3377 C.3     1  UNL1        0.0120
     42 C           8.1386    0.2201   -2.3471 C.3     1  UNL1        0.0117
     43 H           9.3132    4.2159   -1.9412 H       1  UNL1        0.0242
     44 H           7.9206    3.2100   -1.4749 H       1  UNL1        0.0242
     45 H           9.5059    3.1452   -0.5386 H       1  UNL1        0.0242
     46 H          10.6383    2.3651   -2.5696 H       1  UNL1        0.0424
     47 H           9.1057    2.3513   -3.4717 H       1  UNL1        0.0424
     48 H          10.9812   -0.1608   -1.2698 H       1  UNL1        0.0439
     49 H          10.5333    1.3062   -0.3928 H       1  UNL1        0.0439
     50 H           9.7590   -0.1692    1.1202 H       1  UNL1        0.0439
     51 H           9.6522   -1.4991   -0.0408 H       1  UNL1        0.0439
     52 H           7.6015   -0.9367    2.0180 H       1  UNL1        0.0476
     53 H           7.6209   -2.2779    0.8623 H       1  UNL1        0.0476
     54 H           5.6255   -3.0270   -0.0392 H       1  UNL1        0.0621
     55 H           3.2234   -2.9490   -0.1915 H       1  UNL1        0.0636
     56 H           1.1482   -0.0258    1.0875 H       1  UNL1        0.1549
     57 H          -1.1035   -1.8365   -0.9390 H       1  UNL1        0.0557
     58 H          -1.1701   -2.6256    0.6592 H       1  UNL1        0.0557
     59 H          -0.7431    0.2379    1.0691 H       1  UNL1        0.1466
     60 H          -3.1085   -2.2192   -0.2802 H       1  UNL1        0.0636
     61 H          -5.4951   -2.0116   -0.3635 H       1  UNL1        0.0624
     62 H          -7.3792   -2.0197    0.7466 H       1  UNL1        0.0625
     63 H          -9.8602   -1.6753    0.6530 H       1  UNL1        0.0652
     64 H         -11.6433    0.7787    1.2504 H       1  UNL1        0.1562
     65 H         -13.7284    0.6629   -1.9671 H       1  UNL1        0.0394
     66 H         -15.1927   -0.0025    0.0207 H       1  UNL1        0.0273
     67 H         -13.6584   -0.1432    1.0457 H       1  UNL1        0.0273
     68 H         -14.6415    2.4559   -0.5139 H       1  UNL1        0.0273
     69 H         -13.1471    2.2870    0.6623 H       1  UNL1        0.0273
     70 H          -6.8686    2.1725    0.2858 H       1  UNL1        0.0836
     71 H          -5.2035    1.8110    1.4799 H       1  UNL1        0.0624
     72 H          -2.7194    1.5528    1.5474 H       1  UNL1        0.0636
     73 H           3.1772    0.8584    1.6940 H       1  UNL1        0.0642
     74 H           8.0553   -1.7318   -1.5153 H       1  UNL1        0.0439
     75 H           6.4984   -0.8866   -1.4556 H       1  UNL1        0.0439
     76 H           8.2345   -0.3045   -3.3423 H       1  UNL1        0.0439
     77 H           7.3580    1.0068   -2.5338 H       1  UNL1        0.0439
@<TRIPOS>BOND
     1     1     2    1
     2     2     3    1
     3     3     4    1
     4     4     5    1
     5     5     6    1
     6     6     7    1
     7     7     8    1
     8     8     9   ar
     9     9    10   ar
    10    10    11   ar
    11    11    12    1
    12    12    13   am
    13    13    14    2
    14    13    15    1
    15    15    16    1
    16    16    17    1
    17    17    18   ar
    18    18    19   ar
    19    19    20   ar
    20    20    21    1
    21    21    22   ar
    22    22    23   ar
    23    23    24   ar
    24    24    25    1
    25    25    26   am
    26    26    27    2
    27    26    28    1
    28    28    29    1
    29    29    30    1
    30    24    31   ar
    31    31    32   ar
    32    20    33   ar
    33    33    34   ar
    34    11    35   ar
    35    35    36   ar
    36    36    37    1
    37    37    38    1
    38    37    39    1
    39    37    40    1
    40     6    41    1
    41    41    42    1
    42    42     3    1
    43    36     8   ar
    44    34    17   ar
    45    32    21   ar
    46    30    28    1
    47     1    43    1
    48     1    44    1
    49     1    45    1
    50     2    46    1
    51     2    47    1
    52     4    48    1
    53     4    49    1
    54     5    50    1
    55     5    51    1
    56     7    52    1
    57     7    53    1
    58     9    54    1
    59    10    55    1
    60    12    56    1
    61    15    57    1
    62    15    58    1
    63    16    59    1
    64    18    60    1
    65    19    61    1
    66    22    62    1
    67    23    63    1
    68    25    64    1
    69    28    65    1
    70    29    66    1
    71    29    67    1
    72    30    68    1
    73    30    69    1
    74    32    70    1
    75    33    71    1
    76    34    72    1
    77    35    73    1
    78    41    74    1
    79    41    75    1
    80    42    76    1
    81    42    77    1
