@<TRIPOS>MOLECULE
*****
 52 56 0 0 0
SMALL
GASTEIGER

@<TRIPOS>ATOM
      1 O           2.5476   -0.9751    0.9772 O.2     1  UNL1       -0.2756
      2 C           2.1209    0.1726    0.7728 C.2     1  UNL1        0.2166
      3 C           0.7324    0.5208    1.0914 C.3     1  UNL1        0.0343
      4 C          -0.3304   -0.3033    0.4504 C.3     1  UNL1        0.0097
      5 C          -0.1629   -1.7279    0.8295 C.ar    1  UNL1       -0.0402
      6 C          -0.7375   -2.2467    1.9709 C.ar    1  UNL1       -0.0580
      7 C          -0.5983   -3.5829    2.3373 C.ar    1  UNL1       -0.0615
      8 C           0.1345   -4.4438    1.5508 C.ar    1  UNL1       -0.0617
      9 C           0.7105   -3.9284    0.4090 C.ar    1  UNL1       -0.0615
     10 C           0.5747   -2.6059    0.0428 C.ar    1  UNL1       -0.0580
     11 C          -1.6673    0.2092    0.9939 C.3     1  UNL1       -0.0300
     12 C          -1.8839    1.6423    0.5818 C.3     1  UNL1       -0.0442
     13 C          -1.8663    1.7952   -0.9247 C.3     1  UNL1       -0.0141
     14 C          -0.6074    1.2543   -1.5086 C.3     1  UNL1       -0.0442
     15 C          -0.3857   -0.1668   -1.0448 C.3     1  UNL1       -0.0300
     16 C          -1.5306   -0.9947   -1.5905 C.3     1  UNL1       -0.0442
     17 C          -2.8417   -0.4440   -1.0783 C.3     1  UNL1       -0.0141
     18 C          -2.8213   -0.5891    0.4271 C.3     1  UNL1       -0.0442
     19 C          -3.0204    0.9789   -1.4995 C.3     1  UNL1        0.0609
     20 O          -4.2332    1.4732   -1.0328 O.3     1  UNL1       -0.3912
     21 N           2.9722    1.1478    0.2318 N.am    1  UNL1       -0.2964
     22 C           2.8709    2.5316   -0.1547 C.3     1  UNL1        0.0422
     23 C           4.3739    2.6875   -0.0354 C.3     1  UNL1        0.0866
     24 O           4.8924    3.3308   -1.1535 O.3     1  UNL1       -0.3887
     25 C           4.3649    1.1818   -0.1779 C.3     1  UNL1        0.0422
     26 H           0.5475    1.6214    0.9367 H       1  UNL1        0.0367
     27 H           0.6265    0.3944    2.2114 H       1  UNL1        0.0367
     28 H          -1.3290   -1.6543    2.6525 H       1  UNL1        0.0620
     29 H          -1.0693   -3.9433    3.2429 H       1  UNL1        0.0618
     30 H           0.2534   -5.5030    1.8262 H       1  UNL1        0.0618
     31 H           1.2869   -4.5965   -0.2128 H       1  UNL1        0.0618
     32 H           1.0622   -2.3025   -0.8714 H       1  UNL1        0.0620
     33 H          -1.6949    0.2100    2.1004 H       1  UNL1        0.0310
     34 H          -2.9362    1.8822    0.9127 H       1  UNL1        0.0272
     35 H          -1.2620    2.3812    1.0732 H       1  UNL1        0.0272
     36 H          -2.0720    2.8442   -1.1543 H       1  UNL1        0.0326
     37 H           0.2652    1.8975   -1.3864 H       1  UNL1        0.0272
     38 H          -0.7695    1.1860   -2.6252 H       1  UNL1        0.0272
     39 H           0.5323   -0.4993   -1.5696 H       1  UNL1        0.0310
     40 H          -1.4351   -2.0163   -1.1815 H       1  UNL1        0.0272
     41 H          -1.5009   -1.0808   -2.6915 H       1  UNL1        0.0272
     42 H          -3.6896   -1.0254   -1.4553 H       1  UNL1        0.0326
     43 H          -3.7472   -0.1179    0.7993 H       1  UNL1        0.0272
     44 H          -2.8170   -1.6345    0.7386 H       1  UNL1        0.0272
     45 H          -2.9430    1.0562   -2.5959 H       1  UNL1        0.0599
     46 H          -4.9128    0.7712   -0.8701 H       1  UNL1        0.2098
     47 H           2.3756    3.2235    0.5353 H       1  UNL1        0.0490
     48 H           2.5219    2.6528   -1.2116 H       1  UNL1        0.0490
     49 H           4.7175    3.0776    0.9231 H       1  UNL1        0.0625
     50 H           4.7354    2.7326   -1.9326 H       1  UNL1        0.2099
     51 H           5.0818    0.7266    0.5308 H       1  UNL1        0.0490
     52 H           4.5643    0.7992   -1.1905 H       1  UNL1        0.0490
@<TRIPOS>BOND
     1     1     2    2
     2     2     3    1
     3     3     4    1
     4     4     5    1
     5     5     6   ar
     6     6     7   ar
     7     7     8   ar
     8     8     9   ar
     9     9    10   ar
    10     4    11    1
    11    11    12    1
    12    12    13    1
    13    13    14    1
    14    14    15    1
    15    15    16    1
    16    16    17    1
    17    17    18    1
    18    17    19    1
    19    19    20    1
    20     2    21   am
    21    21    22    1
    22    22    23    1
    23    23    24    1
    24    23    25    1
    25    15     4    1
    26    25    21    1
    27    10     5   ar
    28    18    11    1
    29    19    13    1
    30     3    26    1
    31     3    27    1
    32     6    28    1
    33     7    29    1
    34     8    30    1
    35     9    31    1
    36    10    32    1
    37    11    33    1
    38    12    34    1
    39    12    35    1
    40    13    36    1
    41    14    37    1
    42    14    38    1
    43    15    39    1
    44    16    40    1
    45    16    41    1
    46    17    42    1
    47    18    43    1
    48    18    44    1
    49    19    45    1
    50    20    46    1
    51    22    47    1
    52    22    48    1
    53    23    49    1
    54    24    50    1
    55    25    51    1
    56    25    52    1
