@<TRIPOS>MOLECULE
*****
 120 127 0 0 0
SMALL
GASTEIGER

@<TRIPOS>ATOM
      1 C         -10.5318   -2.7121    1.5211 C.3     1  UNL1       -0.0437
      2 C          -9.9695   -1.5280    0.8405 C.2     1  UNL1       -0.0739
      3 C         -10.7882   -0.6272    0.3125 C.2     1  UNL1       -0.0812
      4 C         -10.4430    0.1171   -0.9789 C.3     1  UNL1       -0.0122
      5 C         -10.5004    1.6250   -0.6576 C.3     1  UNL1       -0.0055
      6 C          -9.9972    1.7053    0.7306 C.ar    1  UNL1        0.0248
      7 N         -10.5731    2.4909    1.6255 N.ar    1  UNL1       -0.3259
      8 C         -10.1726    2.5463    2.9210 C.ar    1  UNL1        0.2489
      9 O         -10.7557    3.3171    3.7494 O.2     1  UNL1       -0.2679
     10 C          -9.1262    1.7486    3.3010 C.ar    1  UNL1        0.0031
     11 C          -8.5268    0.9333    2.3709 C.ar    1  UNL1       -0.0498
     12 C          -8.9396    0.8799    1.0442 C.ar    1  UNL1       -0.0039
     13 C          -8.2869   -0.0221    0.1153 C.3     1  UNL1        0.0711
     14 C          -8.4534   -1.4147    0.7886 C.3     1  UNL1       -0.0059
     15 C          -9.0298   -0.2410   -1.2062 C.3     1  UNL1       -0.0083
     16 C          -8.2739    0.3507   -2.3257 C.3     1  UNL1       -0.0460
     17 C          -7.0776   -0.6209   -2.5258 C.3     1  UNL1       -0.0368
     18 C          -6.2853   -0.6601   -1.1993 C.3     1  UNL1        0.0156
     19 N          -6.9294    0.2741   -0.2618 N.am    1  UNL1       -0.2900
     20 C          -6.2500    1.3795    0.2345 C.2     1  UNL1        0.2303
     21 O          -7.0359    2.2511    0.8363 O.2     1  UNL1       -0.2742
     22 C          -4.8710    1.7917    0.2351 C.3     1  UNL1        0.0757
     23 N          -3.9292    0.8014   -0.2405 N.3     1  UNL1       -0.2971
     24 C          -3.7679   -0.2214    0.8100 C.3     1  UNL1       -0.0123
     25 C          -2.7076    1.4329   -0.6099 C.3     1  UNL1       -0.0009
     26 C          -1.7561    0.6299   -1.4039 C.3     1  UNL1       -0.0402
     27 C          -1.2514   -0.6257   -0.7825 C.3     1  UNL1       -0.0519
     28 C          -0.2446   -1.3372   -1.6846 C.3     1  UNL1       -0.0530
     29 C           0.2613   -2.5920   -1.1043 C.3     1  UNL1       -0.0530
     30 C           0.9229   -2.6016    0.2004 C.3     1  UNL1       -0.0519
     31 C           2.1708   -1.8628    0.4484 C.3     1  UNL1       -0.0402
     32 C           2.1774   -0.3973    0.3048 C.3     1  UNL1       -0.0009
     33 N           3.4572    0.2150    0.6404 N.3     1  UNL1       -0.2971
     34 C           3.7111    0.1148    2.0699 C.3     1  UNL1       -0.0123
     35 C           4.5379   -0.3658   -0.1250 C.3     1  UNL1        0.0757
     36 C           5.8471    0.2926    0.1647 C.2     1  UNL1        0.2303
     37 O           5.8716    1.2388    0.9852 O.2     1  UNL1       -0.2742
     38 N           6.9959   -0.1553   -0.4731 N.am    1  UNL1       -0.2900
     39 C           6.8446   -1.2654   -1.4403 C.3     1  UNL1        0.0156
     40 C           7.3137   -0.6496   -2.7658 C.3     1  UNL1       -0.0368
     41 C           8.8092   -0.4990   -2.6065 C.3     1  UNL1       -0.0460
     42 C           9.0869    0.5184   -1.5557 C.3     1  UNL1       -0.0083
     43 C          10.5714    0.6924   -1.3059 C.3     1  UNL1       -0.0122
     44 C          10.7050    1.6478   -0.1778 C.2     1  UNL1       -0.0812
     45 C           9.6578    2.3131    0.3020 C.2     1  UNL1       -0.0739
     46 C           9.7964    3.7338    0.7424 C.3     1  UNL1       -0.0437
     47 C           8.2948    1.6899    0.4270 C.3     1  UNL1       -0.0059
     48 C           8.3390    0.3513   -0.2638 C.3     1  UNL1        0.0711
     49 C           9.1100   -0.5943    0.6054 C.ar    1  UNL1       -0.0039
     50 C           8.4565   -1.0127    1.7629 C.ar    1  UNL1       -0.0498
     51 C           9.1143   -1.8985    2.6053 C.ar    1  UNL1        0.0031
     52 C          10.3814   -2.3391    2.2829 C.ar    1  UNL1        0.2489
     53 O          10.9814   -3.1465    3.0493 O.2     1  UNL1       -0.2679
     54 N          10.9985   -1.9221    1.1560 N.ar    1  UNL1       -0.3259
     55 C          10.3712   -1.0543    0.3180 C.ar    1  UNL1        0.0248
     56 C          11.1345   -0.6470   -0.8990 C.3     1  UNL1       -0.0055
     57 H         -10.2831   -2.6345    2.6161 H       1  UNL1        0.0274
     58 H         -10.1610   -3.6774    1.0863 H       1  UNL1        0.0274
     59 H         -11.6429   -2.7121    1.4683 H       1  UNL1        0.0274
     60 H         -11.7347   -0.3707    0.7548 H       1  UNL1        0.0575
     61 H         -11.1383   -0.1500   -1.7776 H       1  UNL1        0.0350
     62 H         -11.4973    2.0384   -0.7962 H       1  UNL1        0.0333
     63 H          -9.7899    2.1762   -1.3145 H       1  UNL1        0.0333
     64 H         -11.3824    3.1286    1.3949 H       1  UNL1        0.1686
     65 H          -8.7644    1.7536    4.3302 H       1  UNL1        0.0672
     66 H          -7.6886    0.3115    2.7265 H       1  UNL1        0.0623
     67 H          -8.1053   -2.1867    0.0758 H       1  UNL1        0.0334
     68 H          -7.9954   -1.4432    1.7704 H       1  UNL1        0.0334
     69 H          -9.0384   -1.3760   -1.3977 H       1  UNL1        0.0331
     70 H          -8.8139    0.4080   -3.2698 H       1  UNL1        0.0269
     71 H          -7.7753    1.3216   -2.0902 H       1  UNL1        0.0269
     72 H          -7.5353   -1.6215   -2.6227 H       1  UNL1        0.0280
     73 H          -6.4674   -0.3579   -3.3781 H       1  UNL1        0.0280
     74 H          -6.3103   -1.6497   -0.7277 H       1  UNL1        0.0465
     75 H          -5.2961   -0.3818   -1.4807 H       1  UNL1        0.0465
     76 H          -4.7654    2.7117   -0.3901 H       1  UNL1        0.0522
     77 H          -4.5957    2.1396    1.2649 H       1  UNL1        0.0522
     78 H          -4.1097   -1.1794    0.4651 H       1  UNL1        0.0391
     79 H          -2.8054   -0.1565    1.3222 H       1  UNL1        0.0391
     80 H          -4.5207    0.0799    1.6120 H       1  UNL1        0.0391
     81 H          -2.9806    2.4034   -1.1040 H       1  UNL1        0.0427
     82 H          -2.1757    1.7583    0.3446 H       1  UNL1        0.0427
     83 H          -2.1393    0.4360   -2.4539 H       1  UNL1        0.0278
     84 H          -0.8711    1.3194   -1.6217 H       1  UNL1        0.0278
     85 H          -2.1065   -1.3036   -0.5895 H       1  UNL1        0.0266
     86 H          -0.7401   -0.4236    0.1695 H       1  UNL1        0.0266
     87 H           0.4655   -0.6857   -2.1813 H       1  UNL1        0.0265
     88 H          -0.9214   -1.6767   -2.5633 H       1  UNL1        0.0265
     89 H          -0.6064   -3.3244   -1.0489 H       1  UNL1        0.0265
     90 H           0.9284   -3.0671   -1.8797 H       1  UNL1        0.0265
     91 H           0.1764   -2.3543    1.0194 H       1  UNL1        0.0266
     92 H           1.1350   -3.7054    0.4389 H       1  UNL1        0.0266
     93 H           2.6659   -2.2145    1.3964 H       1  UNL1        0.0278
     94 H           2.9084   -2.2548   -0.3413 H       1  UNL1        0.0278
     95 H           1.4427    0.0196    1.0576 H       1  UNL1        0.0427
     96 H           1.8944    0.0279   -0.6568 H       1  UNL1        0.0427
     97 H           2.7197   -0.0511    2.5524 H       1  UNL1        0.0391
     98 H           4.0486    1.1100    2.4198 H       1  UNL1        0.0391
     99 H           4.4085   -0.6720    2.3363 H       1  UNL1        0.0391
    100 H           4.3222   -0.2290   -1.1909 H       1  UNL1        0.0522
    101 H           4.6485   -1.4277    0.0954 H       1  UNL1        0.0522
    102 H           5.8114   -1.5794   -1.5328 H       1  UNL1        0.0465
    103 H           7.5793   -2.0156   -1.1577 H       1  UNL1        0.0465
    104 H           6.8943    0.3673   -2.8007 H       1  UNL1        0.0280
    105 H           7.0309   -1.2782   -3.6250 H       1  UNL1        0.0280
    106 H           9.1803   -0.0893   -3.5754 H       1  UNL1        0.0269
    107 H           9.2089   -1.5060   -2.3962 H       1  UNL1        0.0269
    108 H           8.7303    1.5077   -1.9764 H       1  UNL1        0.0331
    109 H          11.1032    1.0253   -2.2126 H       1  UNL1        0.0350
    110 H          11.6624    1.8179    0.2730 H       1  UNL1        0.0575
    111 H           9.0527    4.3788    0.1972 H       1  UNL1        0.0274
    112 H           9.5883    3.8045    1.8484 H       1  UNL1        0.0274
    113 H          10.8056    4.1429    0.5542 H       1  UNL1        0.0274
    114 H           7.5541    2.3320   -0.0942 H       1  UNL1        0.0334
    115 H           8.0079    1.6331    1.5016 H       1  UNL1        0.0334
    116 H           7.4676   -0.6855    2.0392 H       1  UNL1        0.0623
    117 H           8.5913   -2.2248    3.5215 H       1  UNL1        0.0672
    118 H          11.9549   -2.2919    0.9677 H       1  UNL1        0.1686
    119 H          11.1087   -1.4050   -1.6834 H       1  UNL1        0.0333
    120 H          12.2161   -0.5507   -0.5979 H       1  UNL1        0.0333
@<TRIPOS>BOND
     1     1     2    1
     2     2     3    2
     3     3     4    1
     4     4     5    1
     5     5     6    1
     6     6     7   ar
     7     7     8   ar
     8     8     9    2
     9     8    10   ar
    10    10    11   ar
    11    11    12   ar
    12    12    13    1
    13    13    14    1
    14    13    15    1
    15    15    16    1
    16    16    17    1
    17    17    18    1
    18    18    19    1
    19    19    20   am
    20    20    21    2
    21    20    22    1
    22    22    23    1
    23    23    24    1
    24    23    25    1
    25    25    26    1
    26    26    27    1
    27    27    28    1
    28    28    29    1
    29    29    30    1
    30    30    31    1
    31    31    32    1
    32    32    33    1
    33    33    34    1
    34    33    35    1
    35    35    36    1
    36    36    37    2
    37    36    38   am
    38    38    39    1
    39    39    40    1
    40    40    41    1
    41    41    42    1
    42    42    43    1
    43    43    44    1
    44    44    45    2
    45    45    46    1
    46    45    47    1
    47    47    48    1
    48    48    49    1
    49    49    50   ar
    50    50    51   ar
    51    51    52   ar
    52    52    53    2
    53    52    54   ar
    54    54    55   ar
    55    55    56    1
    56    14     2    1
    57    48    38    1
    58    55    49   ar
    59    15     4    1
    60    48    42    1
    61    12     6   ar
    62    13    19    1
    63    56    43    1
    64     1    57    1
    65     1    58    1
    66     1    59    1
    67     3    60    1
    68     4    61    1
    69     5    62    1
    70     5    63    1
    71     7    64    1
    72    10    65    1
    73    11    66    1
    74    14    67    1
    75    14    68    1
    76    15    69    1
    77    16    70    1
    78    16    71    1
    79    17    72    1
    80    17    73    1
    81    18    74    1
    82    18    75    1
    83    22    76    1
    84    22    77    1
    85    24    78    1
    86    24    79    1
    87    24    80    1
    88    25    81    1
    89    25    82    1
    90    26    83    1
    91    26    84    1
    92    27    85    1
    93    27    86    1
    94    28    87    1
    95    28    88    1
    96    29    89    1
    97    29    90    1
    98    30    91    1
    99    30    92    1
   100    31    93    1
   101    31    94    1
   102    32    95    1
   103    32    96    1
   104    34    97    1
   105    34    98    1
   106    34    99    1
   107    35   100    1
   108    35   101    1
   109    39   102    1
   110    39   103    1
   111    40   104    1
   112    40   105    1
   113    41   106    1
   114    41   107    1
   115    42   108    1
   116    43   109    1
   117    44   110    1
   118    46   111    1
   119    46   112    1
   120    46   113    1
   121    47   114    1
   122    47   115    1
   123    50   116    1
   124    51   117    1
   125    54   118    1
   126    56   119    1
   127    56   120    1
