
     RDKit          3D

120127  0  0  0  0  0  0  0  0999 V2000
  -10.5318   -2.7121    1.5211 C   0  0  0  0  0  0  0  0  0  0  0  0
   -9.9695   -1.5280    0.8405 C   0  0  0  0  0  0  0  0  0  0  0  0
  -10.7882   -0.6272    0.3125 C   0  0  0  0  0  0  0  0  0  0  0  0
  -10.4430    0.1171   -0.9789 C   0  0  1  0  0  0  0  0  0  0  0  0
  -10.5004    1.6250   -0.6576 C   0  0  0  0  0  0  0  0  0  0  0  0
   -9.9972    1.7053    0.7306 C   0  0  0  0  0  0  0  0  0  0  0  0
  -10.5731    2.4909    1.6255 N   0  0  0  0  0  0  0  0  0  0  0  0
  -10.1726    2.5463    2.9210 C   0  0  0  0  0  0  0  0  0  0  0  0
  -10.7557    3.3171    3.7494 O   0  0  0  0  0  0  0  0  0  0  0  0
   -9.1262    1.7486    3.3010 C   0  0  0  0  0  0  0  0  0  0  0  0
   -8.5268    0.9333    2.3709 C   0  0  0  0  0  0  0  0  0  0  0  0
   -8.9396    0.8799    1.0442 C   0  0  0  0  0  0  0  0  0  0  0  0
   -8.2869   -0.0221    0.1153 C   0  0  1  0  0  0  0  0  0  0  0  0
   -8.4534   -1.4147    0.7886 C   0  0  0  0  0  0  0  0  0  0  0  0
   -9.0298   -0.2410   -1.2062 C   0  0  2  0  0  0  0  0  0  0  0  0
   -8.2739    0.3507   -2.3257 C   0  0  0  0  0  0  0  0  0  0  0  0
   -7.0776   -0.6209   -2.5258 C   0  0  0  0  0  0  0  0  0  0  0  0
   -6.2853   -0.6601   -1.1993 C   0  0  0  0  0  0  0  0  0  0  0  0
   -6.9294    0.2741   -0.2618 N   0  0  0  0  0  0  0  0  0  0  0  0
   -6.2500    1.3795    0.2345 C   0  0  0  0  0  0  0  0  0  0  0  0
   -7.0359    2.2511    0.8363 O   0  0  0  0  0  0  0  0  0  0  0  0
   -4.8710    1.7917    0.2351 C   0  0  0  0  0  0  0  0  0  0  0  0
   -3.9292    0.8014   -0.2405 N   0  0  0  0  0  0  0  0  0  0  0  0
   -3.7679   -0.2214    0.8100 C   0  0  0  0  0  0  0  0  0  0  0  0
   -2.7076    1.4329   -0.6099 C   0  0  0  0  0  0  0  0  0  0  0  0
   -1.7561    0.6299   -1.4039 C   0  0  0  0  0  0  0  0  0  0  0  0
   -1.2514   -0.6257   -0.7825 C   0  0  0  0  0  0  0  0  0  0  0  0
   -0.2446   -1.3372   -1.6846 C   0  0  0  0  0  0  0  0  0  0  0  0
    0.2613   -2.5920   -1.1043 C   0  0  0  0  0  0  0  0  0  0  0  0
    0.9229   -2.6016    0.2004 C   0  0  0  0  0  0  0  0  0  0  0  0
    2.1708   -1.8628    0.4484 C   0  0  0  0  0  0  0  0  0  0  0  0
    2.1774   -0.3973    0.3048 C   0  0  0  0  0  0  0  0  0  0  0  0
    3.4572    0.2150    0.6404 N   0  0  0  0  0  0  0  0  0  0  0  0
    3.7111    0.1148    2.0699 C   0  0  0  0  0  0  0  0  0  0  0  0
    4.5379   -0.3658   -0.1250 C   0  0  0  0  0  0  0  0  0  0  0  0
    5.8471    0.2926    0.1647 C   0  0  0  0  0  0  0  0  0  0  0  0
    5.8716    1.2388    0.9852 O   0  0  0  0  0  0  0  0  0  0  0  0
    6.9959   -0.1553   -0.4731 N   0  0  0  0  0  0  0  0  0  0  0  0
    6.8446   -1.2654   -1.4403 C   0  0  0  0  0  0  0  0  0  0  0  0
    7.3137   -0.6496   -2.7658 C   0  0  0  0  0  0  0  0  0  0  0  0
    8.8092   -0.4990   -2.6065 C   0  0  0  0  0  0  0  0  0  0  0  0
    9.0869    0.5184   -1.5557 C   0  0  2  0  0  0  0  0  0  0  0  0
   10.5714    0.6924   -1.3059 C   0  0  1  0  0  0  0  0  0  0  0  0
   10.7050    1.6478   -0.1778 C   0  0  0  0  0  0  0  0  0  0  0  0
    9.6578    2.3131    0.3020 C   0  0  0  0  0  0  0  0  0  0  0  0
    9.7964    3.7338    0.7424 C   0  0  0  0  0  0  0  0  0  0  0  0
    8.2948    1.6899    0.4270 C   0  0  0  0  0  0  0  0  0  0  0  0
    8.3390    0.3513   -0.2638 C   0  0  1  0  0  0  0  0  0  0  0  0
    9.1100   -0.5943    0.6054 C   0  0  0  0  0  0  0  0  0  0  0  0
    8.4565   -1.0127    1.7629 C   0  0  0  0  0  0  0  0  0  0  0  0
    9.1143   -1.8985    2.6053 C   0  0  0  0  0  0  0  0  0  0  0  0
   10.3814   -2.3391    2.2829 C   0  0  0  0  0  0  0  0  0  0  0  0
   10.9814   -3.1465    3.0493 O   0  0  0  0  0  0  0  0  0  0  0  0
   10.9985   -1.9221    1.1560 N   0  0  0  0  0  0  0  0  0  0  0  0
   10.3712   -1.0543    0.3180 C   0  0  0  0  0  0  0  0  0  0  0  0
   11.1345   -0.6470   -0.8990 C   0  0  0  0  0  0  0  0  0  0  0  0
  -10.2831   -2.6345    2.6161 H   0  0  0  0  0  0  0  0  0  0  0  0
  -10.1610   -3.6774    1.0863 H   0  0  0  0  0  0  0  0  0  0  0  0
  -11.6429   -2.7121    1.4683 H   0  0  0  0  0  0  0  0  0  0  0  0
  -11.7347   -0.3707    0.7548 H   0  0  0  0  0  0  0  0  0  0  0  0
  -11.1383   -0.1500   -1.7776 H   0  0  0  0  0  0  0  0  0  0  0  0
  -11.4973    2.0384   -0.7962 H   0  0  0  0  0  0  0  0  0  0  0  0
   -9.7899    2.1762   -1.3145 H   0  0  0  0  0  0  0  0  0  0  0  0
  -11.3824    3.1286    1.3949 H   0  0  0  0  0  0  0  0  0  0  0  0
   -8.7644    1.7536    4.3302 H   0  0  0  0  0  0  0  0  0  0  0  0
   -7.6886    0.3115    2.7265 H   0  0  0  0  0  0  0  0  0  0  0  0
   -8.1053   -2.1867    0.0758 H   0  0  0  0  0  0  0  0  0  0  0  0
   -7.9954   -1.4432    1.7704 H   0  0  0  0  0  0  0  0  0  0  0  0
   -9.0384   -1.3760   -1.3977 H   0  0  0  0  0  0  0  0  0  0  0  0
   -8.8139    0.4080   -3.2698 H   0  0  0  0  0  0  0  0  0  0  0  0
   -7.7753    1.3216   -2.0902 H   0  0  0  0  0  0  0  0  0  0  0  0
   -7.5353   -1.6215   -2.6227 H   0  0  0  0  0  0  0  0  0  0  0  0
   -6.4674   -0.3579   -3.3781 H   0  0  0  0  0  0  0  0  0  0  0  0
   -6.3103   -1.6497   -0.7277 H   0  0  0  0  0  0  0  0  0  0  0  0
   -5.2961   -0.3818   -1.4807 H   0  0  0  0  0  0  0  0  0  0  0  0
   -4.7654    2.7117   -0.3901 H   0  0  0  0  0  0  0  0  0  0  0  0
   -4.5957    2.1396    1.2649 H   0  0  0  0  0  0  0  0  0  0  0  0
   -4.1097   -1.1794    0.4651 H   0  0  0  0  0  0  0  0  0  0  0  0
   -2.8054   -0.1565    1.3222 H   0  0  0  0  0  0  0  0  0  0  0  0
   -4.5207    0.0799    1.6120 H   0  0  0  0  0  0  0  0  0  0  0  0
   -2.9806    2.4034   -1.1040 H   0  0  0  0  0  0  0  0  0  0  0  0
   -2.1757    1.7583    0.3446 H   0  0  0  0  0  0  0  0  0  0  0  0
   -2.1393    0.4360   -2.4539 H   0  0  0  0  0  0  0  0  0  0  0  0
   -0.8711    1.3194   -1.6217 H   0  0  0  0  0  0  0  0  0  0  0  0
   -2.1065   -1.3036   -0.5895 H   0  0  0  0  0  0  0  0  0  0  0  0
   -0.7401   -0.4236    0.1695 H   0  0  0  0  0  0  0  0  0  0  0  0
    0.4655   -0.6857   -2.1813 H   0  0  0  0  0  0  0  0  0  0  0  0
   -0.9214   -1.6767   -2.5633 H   0  0  0  0  0  0  0  0  0  0  0  0
   -0.6064   -3.3244   -1.0489 H   0  0  0  0  0  0  0  0  0  0  0  0
    0.9284   -3.0671   -1.8797 H   0  0  0  0  0  0  0  0  0  0  0  0
    0.1764   -2.3543    1.0194 H   0  0  0  0  0  0  0  0  0  0  0  0
    1.1350   -3.7054    0.4389 H   0  0  0  0  0  0  0  0  0  0  0  0
    2.6659   -2.2145    1.3964 H   0  0  0  0  0  0  0  0  0  0  0  0
    2.9084   -2.2548   -0.3413 H   0  0  0  0  0  0  0  0  0  0  0  0
    1.4427    0.0196    1.0576 H   0  0  0  0  0  0  0  0  0  0  0  0
    1.8944    0.0279   -0.6568 H   0  0  0  0  0  0  0  0  0  0  0  0
    2.7197   -0.0511    2.5524 H   0  0  0  0  0  0  0  0  0  0  0  0
    4.0486    1.1100    2.4198 H   0  0  0  0  0  0  0  0  0  0  0  0
    4.4085   -0.6720    2.3363 H   0  0  0  0  0  0  0  0  0  0  0  0
    4.3222   -0.2290   -1.1909 H   0  0  0  0  0  0  0  0  0  0  0  0
    4.6485   -1.4277    0.0954 H   0  0  0  0  0  0  0  0  0  0  0  0
    5.8114   -1.5794   -1.5328 H   0  0  0  0  0  0  0  0  0  0  0  0
    7.5793   -2.0156   -1.1577 H   0  0  0  0  0  0  0  0  0  0  0  0
    6.8943    0.3673   -2.8007 H   0  0  0  0  0  0  0  0  0  0  0  0
    7.0309   -1.2782   -3.6250 H   0  0  0  0  0  0  0  0  0  0  0  0
    9.1803   -0.0893   -3.5754 H   0  0  0  0  0  0  0  0  0  0  0  0
    9.2089   -1.5060   -2.3962 H   0  0  0  0  0  0  0  0  0  0  0  0
    8.7303    1.5077   -1.9764 H   0  0  0  0  0  0  0  0  0  0  0  0
   11.1032    1.0253   -2.2126 H   0  0  0  0  0  0  0  0  0  0  0  0
   11.6624    1.8179    0.2730 H   0  0  0  0  0  0  0  0  0  0  0  0
    9.0527    4.3788    0.1972 H   0  0  0  0  0  0  0  0  0  0  0  0
    9.5883    3.8045    1.8484 H   0  0  0  0  0  0  0  0  0  0  0  0
   10.8056    4.1429    0.5542 H   0  0  0  0  0  0  0  0  0  0  0  0
    7.5541    2.3320   -0.0942 H   0  0  0  0  0  0  0  0  0  0  0  0
    8.0079    1.6331    1.5016 H   0  0  0  0  0  0  0  0  0  0  0  0
    7.4676   -0.6855    2.0392 H   0  0  0  0  0  0  0  0  0  0  0  0
    8.5913   -2.2248    3.5215 H   0  0  0  0  0  0  0  0  0  0  0  0
   11.9549   -2.2919    0.9677 H   0  0  0  0  0  0  0  0  0  0  0  0
   11.1087   -1.4050   -1.6834 H   0  0  0  0  0  0  0  0  0  0  0  0
   12.2161   -0.5507   -0.5979 H   0  0  0  0  0  0  0  0  0  0  0  0
  1  2  1  0
  2  3  2  0
  3  4  1  0
  4  5  1  0
  5  6  1  0
  6  7  1  0
  7  8  1  0
  8  9  2  0
  8 10  1  0
 10 11  2  0
 11 12  1  0
 12 13  1  0
 13 14  1  0
 13 15  1  0
 15 16  1  0
 16 17  1  0
 17 18  1  0
 18 19  1  0
 19 20  1  0
 20 21  2  0
 20 22  1  0
 22 23  1  0
 23 24  1  0
 23 25  1  0
 25 26  1  0
 26 27  1  0
 27 28  1  0
 28 29  1  0
 29 30  1  0
 30 31  1  0
 31 32  1  0
 32 33  1  0
 33 34  1  0
 33 35  1  0
 35 36  1  0
 36 37  2  0
 36 38  1  0
 38 39  1  0
 39 40  1  0
 40 41  1  0
 41 42  1  0
 42 43  1  0
 43 44  1  0
 44 45  2  0
 45 46  1  0
 45 47  1  0
 47 48  1  0
 48 49  1  0
 49 50  1  0
 50 51  2  0
 51 52  1  0
 52 53  2  0
 52 54  1  0
 54 55  1  0
 55 56  1  0
 14  2  1  0
 48 38  1  6
 55 49  2  0
 15  4  1  0
 48 42  1  0
 12  6  2  0
 13 19  1  6
 56 43  1  0
  1 57  1  0
  1 58  1  0
  1 59  1  0
  3 60  1  0
  4 61  1  6
  5 62  1  0
  5 63  1  0
  7 64  1  0
 10 65  1  0
 11 66  1  0
 14 67  1  0
 14 68  1  0
 15 69  1  6
 16 70  1  0
 16 71  1  0
 17 72  1  0
 17 73  1  0
 18 74  1  0
 18 75  1  0
 22 76  1  0
 22 77  1  0
 24 78  1  0
 24 79  1  0
 24 80  1  0
 25 81  1  0
 25 82  1  0
 26 83  1  0
 26 84  1  0
 27 85  1  0
 27 86  1  0
 28 87  1  0
 28 88  1  0
 29 89  1  0
 29 90  1  0
 30 91  1  0
 30 92  1  0
 31 93  1  0
 31 94  1  0
 32 95  1  0
 32 96  1  0
 34 97  1  0
 34 98  1  0
 34 99  1  0
 35100  1  0
 35101  1  0
 39102  1  0
 39103  1  0
 40104  1  0
 40105  1  0
 41106  1  0
 41107  1  0
 42108  1  6
 43109  1  6
 44110  1  0
 46111  1  0
 46112  1  0
 46113  1  0
 47114  1  0
 47115  1  0
 50116  1  0
 51117  1  0
 54118  1  0
 56119  1  0
 56120  1  0
M  END
$$$$
