@<TRIPOS>MOLECULE
*****
 64 68 0 0 0
SMALL
GASTEIGER

@<TRIPOS>ATOM
      1 C           7.7133    2.0316    3.1423 C.3     1  UNL1        0.0124
      2 C           7.8093    1.4374    1.7968 C.2     1  UNL1        0.2126
      3 O           8.8310    1.6135    1.1018 O.2     1  UNL1       -0.2759
      4 N           6.7504    0.6598    1.2693 N.am    1  UNL1       -0.2987
      5 C           6.8282    0.0693   -0.0525 C.3     1  UNL1        0.0304
      6 C           5.4481    0.2928   -0.6892 C.3     1  UNL1        0.0280
      7 N           4.4738   -0.3842    0.1211 N.pl3   1  UNL1       -0.3269
      8 C           3.2169   -0.7385   -0.4369 C.ar    1  UNL1        0.0300
      9 C           2.8419   -0.2954   -1.7041 C.ar    1  UNL1       -0.0372
     10 C           1.6380   -0.6327   -2.2540 C.ar    1  UNL1       -0.0182
     11 C           0.6931   -1.4442   -1.5922 C.ar    1  UNL1        0.1207
     12 O          -0.4900   -1.7342   -2.2250 O.3     1  UNL1       -0.4893
     13 C          -1.5247   -2.4741   -1.6853 C.3     1  UNL1        0.1179
     14 C          -2.1472   -1.7613   -0.5244 C.3     1  UNL1        0.1195
     15 C          -3.3903   -2.4661   -0.0145 C.3     1  UNL1        0.0808
     16 O          -4.1661   -1.3756    0.3647 O.3     1  UNL1       -0.3406
     17 C          -3.8768   -0.3304   -0.5185 C.3     1  UNL1        0.2169
     18 C          -4.9317   -0.4146   -1.6123 C.3     1  UNL1        0.0828
     19 N          -6.2076   -0.2515   -0.9608 N.ar    1  UNL1       -0.3313
     20 C          -6.9565   -1.2463   -0.4638 C.ar    1  UNL1        0.0242
     21 C          -8.1127   -0.7055    0.0858 C.ar    1  UNL1        0.0454
     22 N          -8.0147    0.6077   -0.1031 N.ar    1  UNL1       -0.2441
     23 C          -6.8658    0.9168   -0.7380 C.ar    1  UNL1        0.0961
     24 C          -3.8881    0.9772    0.1864 C.ar    1  UNL1        0.0313
     25 C          -4.1941    1.0560    1.5405 C.ar    1  UNL1       -0.0507
     26 C          -4.2120    2.2686    2.1572 C.ar    1  UNL1       -0.0429
     27 C          -3.9400    3.4505    1.5104 C.ar    1  UNL1        0.0424
     28 CL         -3.9789    4.9958    2.3657 Cl      1  UNL1       -0.0835
     29 C          -3.6366    3.3746    0.1704 C.ar    1  UNL1       -0.0246
     30 C          -3.6140    2.1469   -0.4717 C.ar    1  UNL1        0.0507
     31 CL         -3.1897    2.1578   -2.1922 Cl      1  UNL1       -0.0830
     32 O          -2.6492   -0.5448   -1.0635 O.3     1  UNL1       -0.3343
     33 C           1.0727   -1.8768   -0.3450 C.ar    1  UNL1       -0.0182
     34 C           2.3019   -1.5286    0.2102 C.ar    1  UNL1       -0.0372
     35 C           4.7398   -0.7104    1.5030 C.3     1  UNL1        0.0280
     36 C           5.5719    0.4536    2.0654 C.3     1  UNL1        0.0304
     37 H           7.4044    1.3331    3.9280 H       1  UNL1        0.0323
     38 H           8.7226    2.4324    3.4498 H       1  UNL1        0.0323
     39 H           7.0431    2.9276    3.1345 H       1  UNL1        0.0323
     40 H           7.6085    0.5563   -0.6588 H       1  UNL1        0.0480
     41 H           6.9617   -1.0370    0.0308 H       1  UNL1        0.0480
     42 H           5.2385    1.3765   -0.7611 H       1  UNL1        0.0479
     43 H           5.4733   -0.0868   -1.7498 H       1  UNL1        0.0479
     44 H           3.5528    0.3319   -2.2314 H       1  UNL1        0.0637
     45 H           1.3451   -0.2837   -3.2500 H       1  UNL1        0.0655
     46 H          -1.2334   -3.5233   -1.4273 H       1  UNL1        0.0723
     47 H          -2.2896   -2.6069   -2.5086 H       1  UNL1        0.0723
     48 H          -1.4901   -1.4460    0.2827 H       1  UNL1        0.0654
     49 H          -3.8650   -3.0876   -0.7805 H       1  UNL1        0.0588
     50 H          -3.1128   -3.0415    0.8918 H       1  UNL1        0.0588
     51 H          -4.7847    0.2789   -2.4411 H       1  UNL1        0.0549
     52 H          -4.8780   -1.4790   -1.9811 H       1  UNL1        0.0549
     53 H          -6.7021   -2.3059   -0.4862 H       1  UNL1        0.0825
     54 H          -8.9203   -1.2305    0.5645 H       1  UNL1        0.0845
     55 H          -6.4862    1.8728   -1.0372 H       1  UNL1        0.1029
     56 H          -4.4113    0.1127    2.0576 H       1  UNL1        0.0623
     57 H          -4.4556    2.2957    3.2191 H       1  UNL1        0.0632
     58 H          -3.4150    4.2769   -0.3823 H       1  UNL1        0.0647
     59 H           0.4274   -2.5357    0.2363 H       1  UNL1        0.0655
     60 H           2.5348   -1.9042    1.1889 H       1  UNL1        0.0637
     61 H           5.2601   -1.6641    1.6301 H       1  UNL1        0.0479
     62 H           3.8361   -0.7275    2.1461 H       1  UNL1        0.0479
     63 H           4.8917    1.3326    2.0261 H       1  UNL1        0.0480
     64 H           5.8005    0.2380    3.1288 H       1  UNL1        0.0480
@<TRIPOS>BOND
     1     1     2    1
     2     2     3    2
     3     2     4   am
     4     4     5    1
     5     5     6    1
     6     6     7    1
     7     7     8    1
     8     8     9   ar
     9     9    10   ar
    10    10    11   ar
    11    11    12    1
    12    12    13    1
    13    13    14    1
    14    14    15    1
    15    15    16    1
    16    16    17    1
    17    17    18    1
    18    18    19    1
    19    19    20   ar
    20    20    21   ar
    21    21    22   ar
    22    22    23   ar
    23    17    24    1
    24    24    25   ar
    25    25    26   ar
    26    26    27   ar
    27    27    28    1
    28    27    29   ar
    29    29    30   ar
    30    30    31    1
    31    17    32    1
    32    11    33   ar
    33    33    34   ar
    34     7    35    1
    35    35    36    1
    36    36     4    1
    37    34     8   ar
    38    32    14    1
    39    23    19   ar
    40    30    24   ar
    41     1    37    1
    42     1    38    1
    43     1    39    1
    44     5    40    1
    45     5    41    1
    46     6    42    1
    47     6    43    1
    48     9    44    1
    49    10    45    1
    50    13    46    1
    51    13    47    1
    52    14    48    1
    53    15    49    1
    54    15    50    1
    55    18    51    1
    56    18    52    1
    57    20    53    1
    58    21    54    1
    59    23    55    1
    60    25    56    1
    61    26    57    1
    62    29    58    1
    63    33    59    1
    64    34    60    1
    65    35    61    1
    66    35    62    1
    67    36    63    1
    68    36    64    1
