@<TRIPOS>MOLECULE
*****
 53 58 0 0 0
SMALL
GASTEIGER

@<TRIPOS>ATOM
      1 C          -4.1467    0.0337    3.6563 C.3     1  UNL1        0.0790
      2 O          -4.6060   -0.1505    2.3415 O.3     1  UNL1       -0.4913
      3 C          -3.7740   -0.2728    1.2483 C.ar    1  UNL1        0.1663
      4 C          -2.4045   -0.2136    1.4342 C.ar    1  UNL1        0.0067
      5 C          -1.5514   -0.3319    0.3665 C.ar    1  UNL1        0.0577
      6 N          -0.1452   -0.2837    0.5641 N.am    1  UNL1       -0.2528
      7 C           0.6340   -1.4446    0.7718 C.2     1  UNL1        0.2553
      8 O           0.2845   -2.6536    0.8013 O.2     1  UNL1       -0.2695
      9 C           2.0082   -1.0083    0.9619 C.ar    1  UNL1        0.0834
     10 C           3.3138   -1.4543    1.2212 C.ar    1  UNL1        0.0785
     11 C           3.6907   -2.8813    1.3885 C.3     1  UNL1        0.0039
     12 C           4.1013   -3.6958    0.2204 C.3     1  UNL1       -0.0441
     13 C           5.1414   -3.1701    1.1457 C.3     1  UNL1       -0.0441
     14 N           4.0447   -0.3525    1.2700 N.ar    1  UNL1       -0.1751
     15 N           3.3512    0.7266    1.0720 N.ar    1  UNL1       -0.2682
     16 C           3.8490    2.0723    1.0762 C.3     1  UNL1        0.0306
     17 C           2.0532    0.3586    0.8709 C.ar    1  UNL1        0.0765
     18 C           0.7165    0.8536    0.5967 C.3     1  UNL1        0.0988
     19 C           0.5822    1.7193   -0.5998 C.ar    1  UNL1       -0.0207
     20 C           1.5659    1.9839   -1.5004 C.ar    1  UNL1       -0.0550
     21 C           1.3077    2.8327   -2.5550 C.ar    1  UNL1       -0.0431
     22 C           0.0908    3.4475   -2.7660 C.ar    1  UNL1        0.0410
     23 CL         -0.1847    4.5200   -4.1261 Cl      1  UNL1       -0.0835
     24 C          -0.8965    3.1692   -1.8444 C.ar    1  UNL1       -0.0431
     25 C          -0.6528    2.3269   -0.7906 C.ar    1  UNL1       -0.0550
     26 C          -2.0749   -0.5127   -0.9096 C.ar    1  UNL1        0.0346
     27 N          -3.4126   -0.5719   -1.1013 N.ar    1  UNL1       -0.2819
     28 C          -4.1380   -0.7356   -2.2083 C.ar    1  UNL1        0.1348
     29 C          -3.6313   -0.9064   -3.6089 C.3     1  UNL1       -0.0041
     30 N          -5.4218   -0.7179   -1.8249 N.ar    1  UNL1       -0.1339
     31 N          -5.4754   -0.5469   -0.5111 N.ar    1  UNL1       -0.1256
     32 C          -4.2359   -0.4524   -0.0315 C.ar    1  UNL1        0.2032
     33 H          -5.0324   -0.1148    4.3295 H       1  UNL1        0.0660
     34 H          -3.8071    1.1000    3.7888 H       1  UNL1        0.0660
     35 H          -3.3158   -0.6278    3.9403 H       1  UNL1        0.0660
     36 H          -2.0450   -0.0719    2.4440 H       1  UNL1        0.0674
     37 H           3.1703   -3.3736    2.2439 H       1  UNL1        0.0365
     38 H           3.9779   -3.3007   -0.7902 H       1  UNL1        0.0272
     39 H           3.9268   -4.8005    0.2952 H       1  UNL1        0.0272
     40 H           5.8115   -2.3294    0.8014 H       1  UNL1        0.0272
     41 H           5.6222   -3.8144    1.8913 H       1  UNL1        0.0272
     42 H           4.7404    2.1207    1.7686 H       1  UNL1        0.0473
     43 H           3.1192    2.7854    1.5045 H       1  UNL1        0.0473
     44 H           4.2430    2.3918    0.0896 H       1  UNL1        0.0473
     45 H           0.3562    1.4785    1.4645 H       1  UNL1        0.0620
     46 H           2.5240    1.5184   -1.3762 H       1  UNL1        0.0621
     47 H           2.0890    3.0550   -3.2869 H       1  UNL1        0.0632
     48 H          -1.8755    3.6403   -1.9814 H       1  UNL1        0.0632
     49 H          -1.4836    2.1554   -0.0860 H       1  UNL1        0.0621
     50 H          -1.4326   -0.6077   -1.7585 H       1  UNL1        0.0833
     51 H          -4.1499   -1.7631   -4.1091 H       1  UNL1        0.0308
     52 H          -3.8594    0.0145   -4.1875 H       1  UNL1        0.0308
     53 H          -2.5630   -1.1434   -3.6155 H       1  UNL1        0.0308
@<TRIPOS>BOND
     1     1     2    1
     2     2     3    1
     3     3     4   ar
     4     4     5   ar
     5     5     6    1
     6     6     7   am
     7     7     8    2
     8     7     9    1
     9     9    10   ar
    10    10    11    1
    11    11    12    1
    12    12    13    1
    13    10    14   ar
    14    14    15   ar
    15    15    16    1
    16    15    17   ar
    17    17    18    1
    18    18    19    1
    19    19    20   ar
    20    20    21   ar
    21    21    22   ar
    22    22    23    1
    23    22    24   ar
    24    24    25   ar
    25     5    26   ar
    26    26    27   ar
    27    27    28   ar
    28    28    29    1
    29    28    30   ar
    30    30    31   ar
    31    31    32   ar
    32    32     3   ar
    33    18     6    1
    34    25    19   ar
    35    32    27   ar
    36    17     9   ar
    37    13    11    1
    38     1    33    1
    39     1    34    1
    40     1    35    1
    41     4    36    1
    42    11    37    1
    43    12    38    1
    44    12    39    1
    45    13    40    1
    46    13    41    1
    47    16    42    1
    48    16    43    1
    49    16    44    1
    50    18    45    1
    51    20    46    1
    52    21    47    1
    53    24    48    1
    54    25    49    1
    55    26    50    1
    56    29    51    1
    57    29    52    1
    58    29    53    1
