@<TRIPOS>MOLECULE
*****
 41 42 0 0 0
SMALL
GASTEIGER

@<TRIPOS>ATOM
      1 C           5.5844    0.1631   -0.3307 C.3     1  UNL1       -0.0612
      2 C           4.0982    0.3679   -0.6968 C.3     1  UNL1       -0.0312
      3 C           3.6441   -0.9176   -1.2787 C.3     1  UNL1       -0.0612
      4 C           3.4380    0.8383    0.5443 C.3     1  UNL1        0.0128
      5 N           2.0468    1.1024    0.4429 N.pl3   1  UNL1       -0.3272
      6 C           1.0745    0.0746    0.4433 C.ar    1  UNL1        0.1460
      7 N           1.3370   -1.2208    0.5789 N.ar    1  UNL1       -0.2017
      8 C           0.4244   -2.2039    0.6083 C.ar    1  UNL1        0.2354
      9 C           0.7987   -3.5862    0.7592 C.1     1  UNL1        0.1400
     10 N           1.1025   -4.6991    0.8606 N.1     1  UNL1       -0.1876
     11 N          -0.8667   -1.8348    0.4893 N.ar    1  UNL1       -0.2015
     12 C          -1.2060   -0.5321    0.3480 C.ar    1  UNL1        0.1486
     13 N          -2.5710   -0.1265    0.2207 N.pl3   1  UNL1       -0.3111
     14 C          -3.2211    0.7686    1.1467 C.3     1  UNL1        0.0261
     15 C          -4.3605    1.4505    0.4204 C.3     1  UNL1        0.0117
     16 N          -5.3390    0.5140   -0.0458 N.3     1  UNL1       -0.3130
     17 C          -4.7844   -0.7894   -0.3535 C.3     1  UNL1        0.0117
     18 C          -3.3679   -0.6264   -0.8890 C.3     1  UNL1        0.0261
     19 C          -0.2685    0.4735    0.3181 C.ar    1  UNL1        0.1054
     20 N          -0.6001    1.8371    0.1717 N.pl3   1  UNL1       -0.3526
     21 H           6.1685    0.1832   -1.2866 H       1  UNL1        0.0233
     22 H           5.8469    0.9719    0.3547 H       1  UNL1        0.0233
     23 H           5.6147   -0.8378    0.1550 H       1  UNL1        0.0233
     24 H           4.0151    1.1507   -1.4843 H       1  UNL1        0.0310
     25 H           4.3762   -1.1473   -2.1250 H       1  UNL1        0.0233
     26 H           2.6721   -0.8332   -1.7704 H       1  UNL1        0.0233
     27 H           3.7339   -1.7861   -0.5963 H       1  UNL1        0.0233
     28 H           3.9325    1.7736    0.9524 H       1  UNL1        0.0464
     29 H           3.5854    0.1050    1.4055 H       1  UNL1        0.0464
     30 H           1.7351    2.1073    0.3632 H       1  UNL1        0.1475
     31 H          -2.5380    1.5301    1.5370 H       1  UNL1        0.0477
     32 H          -3.6332    0.2195    2.0196 H       1  UNL1        0.0477
     33 H          -3.9048    2.0255   -0.4113 H       1  UNL1        0.0439
     34 H          -4.8519    2.1163    1.1723 H       1  UNL1        0.0439
     35 H          -5.8726    0.8575   -0.8757 H       1  UNL1        0.1220
     36 H          -5.3706   -1.3347   -1.1161 H       1  UNL1        0.0439
     37 H          -4.6850   -1.3583    0.6008 H       1  UNL1        0.0439
     38 H          -3.3708    0.1228   -1.7024 H       1  UNL1        0.0477
     39 H          -2.9654   -1.5991   -1.1706 H       1  UNL1        0.0477
     40 H          -0.3969    2.5205    0.9191 H       1  UNL1        0.1425
     41 H          -1.0544    2.1595   -0.6985 H       1  UNL1        0.1425
@<TRIPOS>BOND
     1     1     2    1
     2     2     3    1
     3     2     4    1
     4     4     5    1
     5     5     6    1
     6     6     7   ar
     7     7     8   ar
     8     8     9    1
     9     9    10    3
    10     8    11   ar
    11    11    12   ar
    12    12    13    1
    13    13    14    1
    14    14    15    1
    15    15    16    1
    16    16    17    1
    17    17    18    1
    18    12    19   ar
    19    19    20    1
    20    19     6   ar
    21    18    13    1
    22     1    21    1
    23     1    22    1
    24     1    23    1
    25     2    24    1
    26     3    25    1
    27     3    26    1
    28     3    27    1
    29     4    28    1
    30     4    29    1
    31     5    30    1
    32    14    31    1
    33    14    32    1
    34    15    33    1
    35    15    34    1
    36    16    35    1
    37    17    36    1
    38    17    37    1
    39    18    38    1
    40    18    39    1
    41    20    40    1
    42    20    41    1
