@<TRIPOS>MOLECULE
*****
 45 46 0 0 0
SMALL
GASTEIGER

@<TRIPOS>ATOM
      1 C          -5.1035    1.9309    0.7155 C.3     1  UNL1       -0.0145
      2 C          -5.4888    0.6104    0.0578 C.3     1  UNL1        0.2003
      3 C          -6.8118    0.7472   -0.6412 C.3     1  UNL1       -0.0145
      4 O          -4.5052    0.2200   -0.8823 O.3     1  UNL1       -0.4751
      5 C          -3.1816   -0.0166   -0.5563 C.ar    1  UNL1        0.1221
      6 C          -2.6961   -1.2500   -0.1754 C.ar    1  UNL1       -0.0196
      7 C          -1.3553   -1.4141    0.1376 C.ar    1  UNL1       -0.0551
      8 C          -0.4848   -0.3382    0.0713 C.ar    1  UNL1       -0.0457
      9 C           0.9797   -0.4541    0.3988 C.3     1  UNL1       -0.0120
     10 C           1.6776   -0.8065   -0.9136 C.3     1  UNL1        0.0159
     11 N           3.1022   -0.9526   -0.7595 N.am    1  UNL1       -0.3110
     12 C           3.9024    0.1097   -0.3007 C.2     1  UNL1        0.2441
     13 O           3.4040    1.2428   -0.0027 O.2     1  UNL1       -0.2702
     14 C           5.3428   -0.0038   -0.1337 C.ar    1  UNL1        0.0368
     15 C           6.0589    1.0841    0.3217 C.ar    1  UNL1       -0.0483
     16 C           7.4445    1.0436    0.5047 C.ar    1  UNL1       -0.0427
     17 C           8.0919   -0.1454    0.2095 C.ar    1  UNL1        0.0410
     18 CL          9.8453   -0.2070    0.4376 Cl      1  UNL1       -0.0835
     19 C           7.4220   -1.2694   -0.2512 C.ar    1  UNL1       -0.0427
     20 C           6.0514   -1.1558   -0.4082 C.ar    1  UNL1       -0.0483
     21 C          -0.9589    0.9207   -0.3131 C.ar    1  UNL1       -0.0551
     22 C          -2.3038    1.0596   -0.6212 C.ar    1  UNL1       -0.0196
     23 C          -5.5590   -0.4182    1.1393 C.2     1  UNL1        0.3485
     24 O          -5.2681   -1.5797    1.8656 O.3     1  UNL1       -0.4779
     25 O          -6.3421   -0.3720    2.1421 O.2     1  UNL1       -0.2465
     26 H          -4.0256    1.9364    0.9890 H       1  UNL1        0.0273
     27 H          -5.3057    2.7447    0.0187 H       1  UNL1        0.0273
     28 H          -5.6516    2.0753    1.6650 H       1  UNL1        0.0273
     29 H          -7.5981    0.1043   -0.1888 H       1  UNL1        0.0273
     30 H          -6.7212    0.5157   -1.7249 H       1  UNL1        0.0273
     31 H          -7.2252    1.7923   -0.5336 H       1  UNL1        0.0273
     32 H          -3.3776   -2.0885   -0.1244 H       1  UNL1        0.0654
     33 H          -0.9575   -2.3702    0.4372 H       1  UNL1        0.0621
     34 H           1.3606    0.4722    0.8306 H       1  UNL1        0.0328
     35 H           1.0858   -1.2887    1.1202 H       1  UNL1        0.0328
     36 H           1.4675    0.0777   -1.5836 H       1  UNL1        0.0465
     37 H           1.2073   -1.6863   -1.3522 H       1  UNL1        0.0465
     38 H           3.5194   -1.8755   -1.0007 H       1  UNL1        0.1490
     39 H           5.5997    2.0259    0.5631 H       1  UNL1        0.0625
     40 H           8.0036    1.8967    0.8614 H       1  UNL1        0.0632
     41 H           7.9458   -2.2018   -0.4804 H       1  UNL1        0.0632
     42 H           5.5402   -2.0237   -0.7631 H       1  UNL1        0.0625
     43 H          -0.2455    1.7433   -0.3539 H       1  UNL1        0.0621
     44 H          -2.5588    2.0735   -0.9048 H       1  UNL1        0.0654
     45 H          -5.3268   -2.5089    1.4238 H       1  UNL1        0.2952
@<TRIPOS>BOND
     1     1     2    1
     2     2     3    1
     3     2     4    1
     4     4     5    1
     5     5     6   ar
     6     6     7   ar
     7     7     8   ar
     8     8     9    1
     9     9    10    1
    10    10    11    1
    11    11    12   am
    12    12    13    2
    13    12    14    1
    14    14    15   ar
    15    15    16   ar
    16    16    17   ar
    17    17    18    1
    18    17    19   ar
    19    19    20   ar
    20     8    21   ar
    21    21    22   ar
    22     2    23    1
    23    23    24    1
    24    23    25    2
    25    22     5   ar
    26    20    14   ar
    27     1    26    1
    28     1    27    1
    29     1    28    1
    30     3    29    1
    31     3    30    1
    32     3    31    1
    33     6    32    1
    34     7    33    1
    35     9    34    1
    36     9    35    1
    37    10    36    1
    38    10    37    1
    39    11    38    1
    40    15    39    1
    41    16    40    1
    42    19    41    1
    43    20    42    1
    44    21    43    1
    45    22    44    1
    46    24    45    1
