@<TRIPOS>MOLECULE
*****
 67 68 0 0 0
SMALL
GASTEIGER

@<TRIPOS>ATOM
      1 C          -1.9620    1.5455   -2.0746 C.3     1  UNL1       -0.0381
      2 C          -2.0223    0.5515   -0.9271 C.3     1  UNL1        0.0969
      3 N          -0.8292   -0.2183   -0.8094 N.am    1  UNL1       -0.3003
      4 C          -0.0083   -0.0766    0.3416 C.2     1  UNL1        0.2447
      5 O          -0.3618    0.7389    1.2428 O.2     1  UNL1       -0.2702
      6 C           1.2226   -0.8321    0.5228 C.ar    1  UNL1        0.0371
      7 C           2.0177   -0.6092    1.6517 C.ar    1  UNL1       -0.0437
      8 C           3.1858   -1.3087    1.8469 C.ar    1  UNL1        0.0099
      9 C           3.6220   -2.2497    0.9524 C.ar    1  UNL1        0.2336
     10 S           5.1190   -3.0944    1.2439 S.3     1  UNL1        0.0713
     11 O           5.6639   -3.6259   -0.0656 O.2     1  UNL1       -0.0017
     12 O           4.8468   -4.4187    2.2669 O.co2   1  UNL1       -0.5318
     13 O           6.2092   -2.0600    1.9940 O.3     1  UNL1       -0.2512
     14 C           6.7952   -0.9994    1.3017 C.ar    1  UNL1        0.1992
     15 C           6.3024    0.2823    1.2836 C.ar    1  UNL1       -0.0123
     16 C           6.9102    1.3039    0.5845 C.ar    1  UNL1       -0.0507
     17 C           8.0795    1.0876   -0.1565 C.ar    1  UNL1       -0.0190
     18 C           8.6757    2.2035   -0.8720 C.2     1  UNL1        0.0150
     19 C           9.7633    2.1296   -1.6094 C.2     1  UNL1        0.2387
     20 N          10.3079    3.2633   -2.2951 N.pl3   1  UNL1        0.0719
     21 O          11.5232    3.4374   -2.5025 O.2     1  UNL1        0.0408
     22 O           9.4352    4.2151   -2.7547 O.co2   1  UNL1       -0.5765
     23 C           8.5716   -0.1960   -0.1368 C.ar    1  UNL1       -0.0507
     24 C           7.9652   -1.2221    0.5634 C.ar    1  UNL1       -0.0123
     25 C           2.8570   -2.4942   -0.1732 C.ar    1  UNL1        0.0099
     26 C           1.6956   -1.7838   -0.3467 C.ar    1  UNL1       -0.0437
     27 C          -3.1689   -0.3526   -1.1496 C.2     1  UNL1        0.2337
     28 O          -3.0141   -1.5915   -1.2110 O.2     1  UNL1       -0.2738
     29 N          -4.4742    0.1799   -1.2991 N.am    1  UNL1       -0.3010
     30 C          -5.5694   -0.7389   -1.5176 C.3     1  UNL1        0.1176
     31 C          -6.2129   -0.3996   -2.8677 C.3     1  UNL1       -0.0362
     32 C          -6.5947   -0.5077   -0.4856 C.2     1  UNL1        0.3279
     33 O          -7.6210   -1.2377   -0.5247 O.2     1  UNL1       -0.2487
     34 O          -6.5293    0.4369    0.5165 O.3     1  UNL1       -0.4576
     35 C          -7.5097    0.6442    1.4917 C.3     1  UNL1        0.1053
     36 C          -7.0434    1.7852    2.4007 C.3     1  UNL1       -0.0254
     37 C          -7.6765   -0.5561    2.4087 C.3     1  UNL1       -0.0254
     38 C          -8.8646    0.9982    0.9367 C.3     1  UNL1       -0.0254
     39 H          -1.9319    0.9817   -3.0141 H       1  UNL1        0.0252
     40 H          -2.8905    2.1525   -2.0512 H       1  UNL1        0.0252
     41 H          -1.1257    2.2546   -1.9577 H       1  UNL1        0.0252
     42 H          -2.1761    1.1618   -0.0110 H       1  UNL1        0.0592
     43 H          -0.5814   -0.8761   -1.5787 H       1  UNL1        0.1498
     44 H           1.6851    0.1318    2.3668 H       1  UNL1        0.0627
     45 H           3.7624   -1.0939    2.7384 H       1  UNL1        0.0681
     46 H           5.3932    0.4989    1.8506 H       1  UNL1        0.0657
     47 H           6.5070    2.3206    0.5776 H       1  UNL1        0.0625
     48 H           8.2134    3.1884   -0.8209 H       1  UNL1        0.0685
     49 H          10.2467    1.1487   -1.6798 H       1  UNL1        0.1439
     50 H           9.4795   -0.4077   -0.6975 H       1  UNL1        0.0625
     51 H           8.3635   -2.2320    0.5720 H       1  UNL1        0.0657
     52 H           3.1915   -3.2458   -0.8941 H       1  UNL1        0.0681
     53 H           1.0873   -1.9722   -1.2382 H       1  UNL1        0.0627
     54 H          -4.6116    1.2165   -1.2486 H       1  UNL1        0.1496
     55 H          -5.2093   -1.7908   -1.5328 H       1  UNL1        0.0611
     56 H          -6.1745    0.6910   -2.9761 H       1  UNL1        0.0253
     57 H          -5.6082   -0.8513   -3.6997 H       1  UNL1        0.0253
     58 H          -7.2467   -0.7563   -2.8877 H       1  UNL1        0.0253
     59 H          -6.0599    1.5885    2.8566 H       1  UNL1        0.0268
     60 H          -7.7621    1.9547    3.2430 H       1  UNL1        0.0268
     61 H          -6.9425    2.7317    1.7998 H       1  UNL1        0.0268
     62 H          -6.7538   -0.7723    2.9917 H       1  UNL1        0.0268
     63 H          -8.4402   -0.2751    3.1581 H       1  UNL1        0.0268
     64 H          -8.0612   -1.4091    1.8378 H       1  UNL1        0.0268
     65 H          -9.3128    0.0544    0.5144 H       1  UNL1        0.0268
     66 H          -9.5061    1.2630    1.8088 H       1  UNL1        0.0268
     67 H          -8.8417    1.8125    0.2004 H       1  UNL1        0.0268
@<TRIPOS>UNITY_ATOM_ATTR
10 1
charge 1
12 1
charge -1
20 1
charge 1
22 1
charge -1
@<TRIPOS>BOND
     1     1     2    1
     2     2     3    1
     3     3     4   am
     4     4     5    2
     5     4     6    1
     6     6     7   ar
     7     7     8   ar
     8     8     9   ar
     9     9    10    1
    10    10    11    2
    11    10    12    1
    12    10    13    1
    13    13    14    1
    14    14    15   ar
    15    15    16   ar
    16    16    17   ar
    17    17    18    1
    18    18    19    2
    19    19    20    1
    20    20    21    2
    21    20    22    1
    22    17    23   ar
    23    23    24   ar
    24     9    25   ar
    25    25    26   ar
    26     2    27    1
    27    27    28    2
    28    27    29   am
    29    29    30    1
    30    30    31    1
    31    30    32    1
    32    32    33    2
    33    32    34    1
    34    34    35    1
    35    35    36    1
    36    35    37    1
    37    35    38    1
    38    26     6   ar
    39    24    14   ar
    40     1    39    1
    41     1    40    1
    42     1    41    1
    43     2    42    1
    44     3    43    1
    45     7    44    1
    46     8    45    1
    47    15    46    1
    48    16    47    1
    49    18    48    1
    50    19    49    1
    51    23    50    1
    52    24    51    1
    53    25    52    1
    54    26    53    1
    55    29    54    1
    56    30    55    1
    57    31    56    1
    58    31    57    1
    59    31    58    1
    60    36    59    1
    61    36    60    1
    62    36    61    1
    63    37    62    1
    64    37    63    1
    65    37    64    1
    66    38    65    1
    67    38    66    1
    68    38    67    1
