
     RDKit          3D

 67 68  0  0  0  0  0  0  0  0999 V2000
   -1.9620    1.5455   -2.0746 C   0  0  0  0  0  0  0  0  0  0  0  0
   -2.0223    0.5515   -0.9271 C   0  0  0  0  0  0  0  0  0  0  0  0
   -0.8292   -0.2183   -0.8094 N   0  0  0  0  0  0  0  0  0  0  0  0
   -0.0083   -0.0766    0.3416 C   0  0  0  0  0  0  0  0  0  0  0  0
   -0.3618    0.7389    1.2428 O   0  0  0  0  0  0  0  0  0  0  0  0
    1.2226   -0.8321    0.5228 C   0  0  0  0  0  0  0  0  0  0  0  0
    2.0177   -0.6092    1.6517 C   0  0  0  0  0  0  0  0  0  0  0  0
    3.1858   -1.3087    1.8469 C   0  0  0  0  0  0  0  0  0  0  0  0
    3.6220   -2.2497    0.9524 C   0  0  0  0  0  0  0  0  0  0  0  0
    5.1190   -3.0944    1.2439 S   0  0  0  0  0  5  0  0  0  0  0  0
    5.6639   -3.6259   -0.0656 O   0  0  0  0  0  0  0  0  0  0  0  0
    4.8468   -4.4187    2.2669 O   0  0  0  0  0  1  0  0  0  0  0  0
    6.2092   -2.0600    1.9940 O   0  0  0  0  0  0  0  0  0  0  0  0
    6.7952   -0.9994    1.3017 C   0  0  0  0  0  0  0  0  0  0  0  0
    6.3024    0.2823    1.2836 C   0  0  0  0  0  0  0  0  0  0  0  0
    6.9102    1.3039    0.5845 C   0  0  0  0  0  0  0  0  0  0  0  0
    8.0795    1.0876   -0.1565 C   0  0  0  0  0  0  0  0  0  0  0  0
    8.6757    2.2035   -0.8720 C   0  0  0  0  0  0  0  0  0  0  0  0
    9.7633    2.1296   -1.6094 C   0  0  0  0  0  0  0  0  0  0  0  0
   10.3079    3.2633   -2.2951 N   0  0  0  0  0  4  0  0  0  0  0  0
   11.5232    3.4374   -2.5025 O   0  0  0  0  0  0  0  0  0  0  0  0
    9.4352    4.2151   -2.7547 O   0  0  0  0  0  1  0  0  0  0  0  0
    8.5716   -0.1960   -0.1368 C   0  0  0  0  0  0  0  0  0  0  0  0
    7.9652   -1.2221    0.5634 C   0  0  0  0  0  0  0  0  0  0  0  0
    2.8570   -2.4942   -0.1732 C   0  0  0  0  0  0  0  0  0  0  0  0
    1.6956   -1.7838   -0.3467 C   0  0  0  0  0  0  0  0  0  0  0  0
   -3.1689   -0.3526   -1.1496 C   0  0  0  0  0  0  0  0  0  0  0  0
   -3.0141   -1.5915   -1.2110 O   0  0  0  0  0  0  0  0  0  0  0  0
   -4.4742    0.1799   -1.2991 N   0  0  0  0  0  0  0  0  0  0  0  0
   -5.5694   -0.7389   -1.5176 C   0  0  0  0  0  0  0  0  0  0  0  0
   -6.2129   -0.3996   -2.8677 C   0  0  0  0  0  0  0  0  0  0  0  0
   -6.5947   -0.5077   -0.4856 C   0  0  0  0  0  0  0  0  0  0  0  0
   -7.6210   -1.2377   -0.5247 O   0  0  0  0  0  0  0  0  0  0  0  0
   -6.5293    0.4369    0.5165 O   0  0  0  0  0  0  0  0  0  0  0  0
   -7.5097    0.6442    1.4917 C   0  0  0  0  0  0  0  0  0  0  0  0
   -7.0434    1.7852    2.4007 C   0  0  0  0  0  0  0  0  0  0  0  0
   -7.6765   -0.5561    2.4087 C   0  0  0  0  0  0  0  0  0  0  0  0
   -8.8646    0.9982    0.9367 C   0  0  0  0  0  0  0  0  0  0  0  0
   -1.9319    0.9817   -3.0141 H   0  0  0  0  0  0  0  0  0  0  0  0
   -2.8905    2.1525   -2.0512 H   0  0  0  0  0  0  0  0  0  0  0  0
   -1.1257    2.2546   -1.9577 H   0  0  0  0  0  0  0  0  0  0  0  0
   -2.1761    1.1618   -0.0110 H   0  0  0  0  0  0  0  0  0  0  0  0
   -0.5814   -0.8761   -1.5787 H   0  0  0  0  0  0  0  0  0  0  0  0
    1.6851    0.1318    2.3668 H   0  0  0  0  0  0  0  0  0  0  0  0
    3.7624   -1.0939    2.7384 H   0  0  0  0  0  0  0  0  0  0  0  0
    5.3932    0.4989    1.8506 H   0  0  0  0  0  0  0  0  0  0  0  0
    6.5070    2.3206    0.5776 H   0  0  0  0  0  0  0  0  0  0  0  0
    8.2134    3.1884   -0.8209 H   0  0  0  0  0  0  0  0  0  0  0  0
   10.2467    1.1487   -1.6798 H   0  0  0  0  0  0  0  0  0  0  0  0
    9.4795   -0.4077   -0.6975 H   0  0  0  0  0  0  0  0  0  0  0  0
    8.3635   -2.2320    0.5720 H   0  0  0  0  0  0  0  0  0  0  0  0
    3.1915   -3.2458   -0.8941 H   0  0  0  0  0  0  0  0  0  0  0  0
    1.0873   -1.9722   -1.2382 H   0  0  0  0  0  0  0  0  0  0  0  0
   -4.6116    1.2165   -1.2486 H   0  0  0  0  0  0  0  0  0  0  0  0
   -5.2093   -1.7908   -1.5328 H   0  0  0  0  0  0  0  0  0  0  0  0
   -6.1745    0.6910   -2.9761 H   0  0  0  0  0  0  0  0  0  0  0  0
   -5.6082   -0.8513   -3.6997 H   0  0  0  0  0  0  0  0  0  0  0  0
   -7.2467   -0.7563   -2.8877 H   0  0  0  0  0  0  0  0  0  0  0  0
   -6.0599    1.5885    2.8566 H   0  0  0  0  0  0  0  0  0  0  0  0
   -7.7621    1.9547    3.2430 H   0  0  0  0  0  0  0  0  0  0  0  0
   -6.9425    2.7317    1.7998 H   0  0  0  0  0  0  0  0  0  0  0  0
   -6.7538   -0.7723    2.9917 H   0  0  0  0  0  0  0  0  0  0  0  0
   -8.4402   -0.2751    3.1581 H   0  0  0  0  0  0  0  0  0  0  0  0
   -8.0612   -1.4091    1.8378 H   0  0  0  0  0  0  0  0  0  0  0  0
   -9.3128    0.0544    0.5144 H   0  0  0  0  0  0  0  0  0  0  0  0
   -9.5061    1.2630    1.8088 H   0  0  0  0  0  0  0  0  0  0  0  0
   -8.8417    1.8125    0.2004 H   0  0  0  0  0  0  0  0  0  0  0  0
  1  2  1  0
  2  3  1  0
  3  4  1  0
  4  5  2  0
  4  6  1  0
  6  7  2  0
  7  8  1  0
  8  9  2  0
  9 10  1  0
 10 11  2  0
 10 12  1  0
 10 13  1  0
 13 14  1  0
 14 15  2  0
 15 16  1  0
 16 17  2  0
 17 18  1  0
 18 19  2  0
 19 20  1  0
 20 21  2  0
 20 22  1  0
 17 23  1  0
 23 24  2  0
  9 25  1  0
 25 26  2  0
  2 27  1  0
 27 28  2  0
 27 29  1  0
 29 30  1  0
 30 31  1  0
 30 32  1  0
 32 33  2  0
 32 34  1  0
 34 35  1  0
 35 36  1  0
 35 37  1  0
 35 38  1  0
 26  6  1  0
 24 14  1  0
  1 39  1  0
  1 40  1  0
  1 41  1  0
  2 42  1  0
  3 43  1  0
  7 44  1  0
  8 45  1  0
 15 46  1  0
 16 47  1  0
 18 48  1  0
 19 49  1  0
 23 50  1  0
 24 51  1  0
 25 52  1  0
 26 53  1  0
 29 54  1  0
 30 55  1  0
 31 56  1  0
 31 57  1  0
 31 58  1  0
 36 59  1  0
 36 60  1  0
 36 61  1  0
 37 62  1  0
 37 63  1  0
 37 64  1  0
 38 65  1  0
 38 66  1  0
 38 67  1  0
M  CHG  4  10   1  12  -1  20   1  22  -1
M  END
$$$$
