@<TRIPOS>MOLECULE
*****
 64 68 0 0 0
SMALL
GASTEIGER

@<TRIPOS>ATOM
      1 C          -6.0991    1.0116   -2.9886 C.3     1  UNL1       -0.0391
      2 C          -4.7818    0.5463   -2.5240 C.ar    1  UNL1       -0.0426
      3 C          -3.6942    0.6855   -3.3931 C.ar    1  UNL1       -0.0565
      4 C          -2.4555    0.2413   -2.9644 C.ar    1  UNL1       -0.0402
      5 C          -2.2752   -0.3241   -1.7230 C.ar    1  UNL1        0.0343
      6 N          -0.9773   -0.7565   -1.3520 N.am    1  UNL1       -0.2815
      7 C          -0.0475    0.0820   -0.6976 C.2     1  UNL1        0.2483
      8 O          -0.4495    1.2656   -0.4572 O.2     1  UNL1       -0.2699
      9 C           1.2969   -0.3043   -0.2926 C.ar    1  UNL1        0.0370
     10 C           1.8049   -1.5547   -0.5104 C.ar    1  UNL1       -0.0493
     11 C           3.0878   -1.8613   -0.1034 C.ar    1  UNL1       -0.0566
     12 C           3.9061   -0.9561    0.5257 C.ar    1  UNL1       -0.0333
     13 C           5.2644   -1.2861    0.9564 C.3     1  UNL1        0.0241
     14 N           6.2966   -1.0522    0.0029 N.3     1  UNL1       -0.2957
     15 C           7.5569   -1.4235    0.5728 C.3     1  UNL1        0.0120
     16 C           8.6710   -0.4780    0.3089 C.3     1  UNL1        0.0114
     17 N           8.3745    0.8984    0.4698 N.3     1  UNL1       -0.3029
     18 C           8.9179    1.5249    1.6236 C.3     1  UNL1       -0.0127
     19 C           7.0256    1.2750    0.1567 C.3     1  UNL1        0.0114
     20 C           6.2910    0.2216   -0.6349 C.3     1  UNL1        0.0120
     21 C           3.3840    0.2995    0.7397 C.ar    1  UNL1       -0.0566
     22 C           2.0939    0.6313    0.3383 C.ar    1  UNL1       -0.0493
     23 C          -3.3705   -0.4383   -0.9084 C.ar    1  UNL1       -0.0325
     24 C          -4.6220   -0.0124   -1.2874 C.ar    1  UNL1       -0.0132
     25 C          -5.7287   -0.1604   -0.3638 C.ar    1  UNL1       -0.0169
     26 C          -5.9820   -1.3590    0.2942 C.ar    1  UNL1       -0.0534
     27 C          -7.0215   -1.4727    1.1625 C.ar    1  UNL1       -0.0534
     28 C          -7.8784   -0.4278    1.4441 C.ar    1  UNL1       -0.0150
     29 C          -8.9342   -0.5437    2.3259 C.ar    1  UNL1       -0.0359
     30 C          -9.7389    0.5592    2.5440 C.ar    1  UNL1        0.0281
     31 N          -9.5225    1.7337    1.9247 N.ar    1  UNL1       -0.2626
     32 C          -8.4818    1.8331    1.0611 C.ar    1  UNL1        0.0353
     33 C          -7.6418    0.7651    0.8018 C.ar    1  UNL1        0.0008
     34 C          -6.5907    0.8878   -0.0790 C.ar    1  UNL1       -0.0448
     35 H          -6.9541    0.5225   -2.4873 H       1  UNL1        0.0278
     36 H          -6.1579    0.7287   -4.0810 H       1  UNL1        0.0278
     37 H          -6.1556    2.1140   -2.9397 H       1  UNL1        0.0278
     38 H          -3.7976    1.1227   -4.3709 H       1  UNL1        0.0621
     39 H          -1.6151    0.3524   -3.6441 H       1  UNL1        0.0636
     40 H          -0.6625   -1.7448   -1.5612 H       1  UNL1        0.1551
     41 H           1.1846   -2.3137   -1.0118 H       1  UNL1        0.0625
     42 H           3.4432   -2.8598   -0.2973 H       1  UNL1        0.0621
     43 H           5.2811   -2.3744    1.2097 H       1  UNL1        0.0476
     44 H           5.4973   -0.7147    1.8775 H       1  UNL1        0.0476
     45 H           7.8442   -2.4284    0.1851 H       1  UNL1        0.0439
     46 H           7.4580   -1.5675    1.6839 H       1  UNL1        0.0439
     47 H           9.0508   -0.6407   -0.7365 H       1  UNL1        0.0439
     48 H           9.5256   -0.7349    0.9681 H       1  UNL1        0.0439
     49 H          10.0391    1.5333    1.5705 H       1  UNL1        0.0391
     50 H           8.6246    2.5998    1.6029 H       1  UNL1        0.0391
     51 H           8.5784    1.1147    2.5877 H       1  UNL1        0.0391
     52 H           6.4805    1.5703    1.0787 H       1  UNL1        0.0439
     53 H           7.0736    2.1967   -0.4749 H       1  UNL1        0.0439
     54 H           6.8174    0.1232   -1.6061 H       1  UNL1        0.0439
     55 H           5.2659    0.5429   -0.8272 H       1  UNL1        0.0439
     56 H           3.9828    1.0440    1.2276 H       1  UNL1        0.0621
     57 H           1.6886    1.6256    0.5109 H       1  UNL1        0.0625
     58 H          -3.2516   -0.8765    0.0643 H       1  UNL1        0.0642
     59 H          -5.3403   -2.1918    0.1024 H       1  UNL1        0.0624
     60 H          -7.2281   -2.4102    1.6838 H       1  UNL1        0.0624
     61 H          -9.1088   -1.4799    2.8211 H       1  UNL1        0.0639
     62 H         -10.5782    0.4874    3.2373 H       1  UNL1        0.0830
     63 H          -8.2558    2.7578    0.5294 H       1  UNL1        0.0836
     64 H          -6.4082    1.8504   -0.5834 H       1  UNL1        0.0630
@<TRIPOS>BOND
     1     1     2    1
     2     2     3   ar
     3     3     4   ar
     4     4     5   ar
     5     5     6    1
     6     6     7   am
     7     7     8    2
     8     7     9    1
     9     9    10   ar
    10    10    11   ar
    11    11    12   ar
    12    12    13    1
    13    13    14    1
    14    14    15    1
    15    15    16    1
    16    16    17    1
    17    17    18    1
    18    17    19    1
    19    19    20    1
    20    12    21   ar
    21    21    22   ar
    22     5    23   ar
    23    23    24   ar
    24    24    25    1
    25    25    26   ar
    26    26    27   ar
    27    27    28   ar
    28    28    29   ar
    29    29    30   ar
    30    30    31   ar
    31    31    32   ar
    32    32    33   ar
    33    33    34   ar
    34    24     2   ar
    35    34    25   ar
    36    22     9   ar
    37    33    28   ar
    38    20    14    1
    39     1    35    1
    40     1    36    1
    41     1    37    1
    42     3    38    1
    43     4    39    1
    44     6    40    1
    45    10    41    1
    46    11    42    1
    47    13    43    1
    48    13    44    1
    49    15    45    1
    50    15    46    1
    51    16    47    1
    52    16    48    1
    53    18    49    1
    54    18    50    1
    55    18    51    1
    56    19    52    1
    57    19    53    1
    58    20    54    1
    59    20    55    1
    60    21    56    1
    61    22    57    1
    62    23    58    1
    63    26    59    1
    64    27    60    1
    65    29    61    1
    66    30    62    1
    67    32    63    1
    68    34    64    1
