
     RDKit          3D

 50 51  0  0  0  0  0  0  0  0999 V2000
   -2.6198    0.2940    0.5231 C   0  0  1  0  0  0  0  0  0  0  0  0
   -2.8793    1.6947    0.4377 N   0  0  0  0  0  0  0  0  0  0  0  0
   -3.7737   -0.5281   -0.0206 C   0  0  0  0  0  0  0  0  0  0  0  0
   -4.0880   -0.2550   -1.4557 C   0  0  0  0  0  0  0  0  0  0  0  0
   -5.4515   -1.2289   -2.1138 S   0  0  0  0  0  0  0  0  0  0  0  0
   -7.0433   -0.8343   -1.3790 C   0  0  0  0  0  0  0  0  0  0  0  0
   -7.0594   -1.2484    0.0715 C   0  0  0  0  0  0  0  0  0  0  0  0
   -1.3738   -0.0963   -0.1888 C   0  0  2  0  0  0  0  0  0  0  0  0
   -1.1600   -1.4771   -0.0907 O   0  0  0  0  0  0  0  0  0  0  0  0
   -0.1517    0.6469    0.2783 C   0  0  0  0  0  0  0  0  0  0  0  0
   -0.3834    1.8984    0.1342 O   0  0  0  0  0  0  0  0  0  0  0  0
    1.0968    0.1305    0.8063 N   0  0  0  0  0  0  0  0  0  0  0  0
    2.1052    1.0950    1.1762 C   0  0  1  0  0  0  0  0  0  0  0  0
    2.4154    1.1954    2.6301 C   0  0  0  0  0  0  0  0  0  0  0  0
    3.2890    1.0970    0.2783 C   0  0  0  0  0  0  0  0  0  0  0  0
    4.1363    0.0343    0.1048 C   0  0  0  0  0  0  0  0  0  0  0  0
    3.9246   -1.1202    0.8251 C   0  0  0  0  0  0  0  0  0  0  0  0
    4.7248   -2.2410    0.7271 C   0  0  0  0  0  0  0  0  0  0  0  0
    5.8103   -2.2466   -0.1298 C   0  0  0  0  0  0  0  0  0  0  0  0
    6.0467   -1.1070   -0.8612 C   0  0  0  0  0  0  0  0  0  0  0  0
    5.2281   -0.0124   -0.7360 C   0  0  0  0  0  0  0  0  0  0  0  0
    5.5208    1.1019   -1.4863 C   0  0  0  0  0  0  0  0  0  0  0  0
    4.7314    2.2270   -1.3862 C   0  0  0  0  0  0  0  0  0  0  0  0
    3.6615    2.1882   -0.5233 C   0  0  0  0  0  0  0  0  0  0  0  0
   -2.5151   -0.0360    1.5967 H   0  0  0  0  0  0  0  0  0  0  0  0
   -2.6157    2.1344   -0.4482 H   0  0  0  0  0  0  0  0  0  0  0  0
   -2.4100    2.1746    1.2330 H   0  0  0  0  0  0  0  0  0  0  0  0
   -3.6040   -1.5939    0.1260 H   0  0  0  0  0  0  0  0  0  0  0  0
   -4.6805   -0.2179    0.5747 H   0  0  0  0  0  0  0  0  0  0  0  0
   -4.3216    0.8196   -1.6480 H   0  0  0  0  0  0  0  0  0  0  0  0
   -3.2016   -0.4920   -2.1148 H   0  0  0  0  0  0  0  0  0  0  0  0
   -7.8520   -1.3342   -1.9596 H   0  0  0  0  0  0  0  0  0  0  0  0
   -7.2581    0.2586   -1.4498 H   0  0  0  0  0  0  0  0  0  0  0  0
   -8.0541   -1.7553    0.2621 H   0  0  0  0  0  0  0  0  0  0  0  0
   -6.2700   -1.9765    0.3258 H   0  0  0  0  0  0  0  0  0  0  0  0
   -7.0511   -0.3805    0.7555 H   0  0  0  0  0  0  0  0  0  0  0  0
   -1.4809    0.1403   -1.2631 H   0  0  0  0  0  0  0  0  0  0  0  0
   -0.8498   -1.8494   -0.9736 H   0  0  0  0  0  0  0  0  0  0  0  0
    0.9204   -0.8969    0.7772 H   0  0  0  0  0  0  0  0  0  0  0  0
    1.6439    2.1175    0.9425 H   0  0  0  0  0  0  0  0  0  0  0  0
    2.0562    2.1160    3.1353 H   0  0  0  0  0  0  0  0  0  0  0  0
    1.9668    0.3687    3.2544 H   0  0  0  0  0  0  0  0  0  0  0  0
    3.5328    1.2299    2.7833 H   0  0  0  0  0  0  0  0  0  0  0  0
    3.1164   -1.1770    1.5071 H   0  0  0  0  0  0  0  0  0  0  0  0
    4.5639   -3.1527    1.2911 H   0  0  0  0  0  0  0  0  0  0  0  0
    6.4431   -3.1061   -0.2204 H   0  0  0  0  0  0  0  0  0  0  0  0
    6.8861   -1.0821   -1.5378 H   0  0  0  0  0  0  0  0  0  0  0  0
    6.3491    1.1308   -2.1543 H   0  0  0  0  0  0  0  0  0  0  0  0
    4.9303    3.1166   -1.9565 H   0  0  0  0  0  0  0  0  0  0  0  0
    3.0483    3.0946   -0.4597 H   0  0  0  0  0  0  0  0  0  0  0  0
  1  2  1  0
  1  3  1  0
  3  4  1  0
  4  5  1  0
  5  6  1  0
  6  7  1  0
  1  8  1  0
  8  9  1  0
  8 10  1  0
 10 11  2  0
 10 12  1  0
 12 13  1  0
 13 14  1  0
 13 15  1  0
 15 16  2  0
 16 17  1  0
 17 18  2  0
 18 19  1  0
 19 20  2  0
 20 21  1  0
 21 22  2  0
 22 23  1  0
 23 24  2  0
 24 15  1  0
 21 16  1  0
  1 25  1  1
  2 26  1  0
  2 27  1  0
  3 28  1  0
  3 29  1  0
  4 30  1  0
  4 31  1  0
  6 32  1  0
  6 33  1  0
  7 34  1  0
  7 35  1  0
  7 36  1  0
  8 37  1  6
  9 38  1  0
 12 39  1  0
 13 40  1  6
 14 41  1  0
 14 42  1  0
 14 43  1  0
 17 44  1  0
 18 45  1  0
 19 46  1  0
 20 47  1  0
 22 48  1  0
 23 49  1  0
 24 50  1  0
M  END
$$$$
