@<TRIPOS>MOLECULE
*****
 92 96 0 0 0
SMALL
GASTEIGER

@<TRIPOS>ATOM
      1 C          -4.2906   -4.2211   -2.3212 C.3     1  UNL1       -0.0442
      2 C          -4.9174   -3.8528   -0.9900 C.3     1  UNL1        0.0262
      3 C          -4.3708   -4.7105    0.1253 C.3     1  UNL1       -0.0442
      4 C          -6.4153   -4.0258   -1.1328 C.3     1  UNL1       -0.0442
      5 N          -4.5907   -2.4690   -0.6809 N.am    1  UNL1       -0.3092
      6 C          -3.1950   -2.1001   -0.5415 C.2     1  UNL1        0.2319
      7 O          -2.6351   -3.2241   -0.7522 O.2     1  UNL1       -0.2740
      8 C          -3.0716   -0.6757   -0.2357 C.3     1  UNL1        0.1002
      9 C          -3.7421    0.2119   -1.2609 C.3     1  UNL1        0.0234
     10 N          -4.0036    1.4879   -0.6284 N.3     1  UNL1       -0.2950
     11 C          -5.4362    1.6123   -0.4873 C.3     1  UNL1        0.0256
     12 C          -5.8780    2.8619    0.1403 C.ar    1  UNL1       -0.0153
     13 C          -6.1394    3.9946   -0.6384 C.ar    1  UNL1        0.0320
     14 N          -6.5500    5.1844   -0.1547 N.ar    1  UNL1       -0.2629
     15 C          -6.7416    5.3646    1.1507 C.ar    1  UNL1        0.0276
     16 C          -6.5045    4.2924    1.9897 C.ar    1  UNL1       -0.0433
     17 C          -6.0807    3.0677    1.4850 C.ar    1  UNL1       -0.0545
     18 C          -3.2715    1.7194    0.5808 C.3     1  UNL1        0.0121
     19 C          -1.8437    1.1681    0.4787 C.3     1  UNL1        0.0125
     20 N          -1.7993   -0.1491    0.0313 N.3     1  UNL1       -0.2868
     21 C          -0.6472   -0.7146   -0.4967 C.3     1  UNL1        0.0258
     22 C           0.5178   -1.0610    0.3279 C.3     1  UNL1        0.0686
     23 O           1.5166   -1.6714   -0.5283 O.3     1  UNL1       -0.3905
     24 C           1.1624   -0.1331    1.2555 C.3     1  UNL1       -0.0142
     25 C           1.7729    1.1301    0.7510 C.3     1  UNL1        0.0419
     26 C           2.3450    1.8614    1.9160 C.3     1  UNL1       -0.0165
     27 C           3.3616    1.2602    2.7254 C.ar    1  UNL1       -0.0466
     28 C           4.7433    1.3185    2.6498 C.ar    1  UNL1       -0.0586
     29 C           5.6440    0.7083    3.4617 C.ar    1  UNL1       -0.0615
     30 C           5.1544   -0.0675    4.4900 C.ar    1  UNL1       -0.0617
     31 C           3.7725   -0.1982    4.6607 C.ar    1  UNL1       -0.0615
     32 C           2.9262    0.4570    3.7904 C.ar    1  UNL1       -0.0586
     33 C           2.6421    0.9742   -0.4166 C.2     1  UNL1        0.2170
     34 O           2.4165    1.5187   -1.5552 O.2     1  UNL1       -0.2755
     35 N           3.8517    0.2284   -0.5349 N.am    1  UNL1       -0.3057
     36 C           4.6693    0.0898   -1.6983 C.3     1  UNL1        0.0748
     37 C           5.0707   -1.3075   -2.0151 C.3     1  UNL1        0.0816
     38 O           5.8328   -1.8637   -0.9588 O.3     1  UNL1       -0.3893
     39 C           6.0930   -1.0558   -3.1086 C.3     1  UNL1        0.0008
     40 C           6.8648    0.0660   -2.4757 C.ar    1  UNL1       -0.0398
     41 C           8.1772    0.4401   -2.6309 C.ar    1  UNL1       -0.0582
     42 C           8.7236    1.5304   -1.9562 C.ar    1  UNL1       -0.0615
     43 C           7.8847    2.2273   -1.1158 C.ar    1  UNL1       -0.0614
     44 C           6.5757    1.8255   -0.9836 C.ar    1  UNL1       -0.0565
     45 C           5.9923    0.7583   -1.6271 C.ar    1  UNL1       -0.0215
     46 H          -4.0944   -3.2833   -2.8693 H       1  UNL1        0.0250
     47 H          -3.3938   -4.8543   -2.2247 H       1  UNL1        0.0250
     48 H          -5.0113   -4.7984   -2.9152 H       1  UNL1        0.0250
     49 H          -5.2413   -5.2968    0.5369 H       1  UNL1        0.0250
     50 H          -4.0144   -4.0662    0.9286 H       1  UNL1        0.0250
     51 H          -3.6029   -5.4196   -0.2529 H       1  UNL1        0.0250
     52 H          -6.6553   -5.0472   -1.4362 H       1  UNL1        0.0250
     53 H          -6.9354   -3.7198   -0.1809 H       1  UNL1        0.0250
     54 H          -6.7760   -3.2831   -1.8850 H       1  UNL1        0.0250
     55 H          -5.4213   -1.8107   -0.5755 H       1  UNL1        0.1492
     56 H          -3.6904   -0.5177    0.7081 H       1  UNL1        0.0571
     57 H          -3.0959    0.4374   -2.1313 H       1  UNL1        0.0447
     58 H          -4.6244   -0.2915   -1.6445 H       1  UNL1        0.0447
     59 H          -5.7675    0.7028    0.0751 H       1  UNL1        0.0476
     60 H          -5.8477    1.4745   -1.5184 H       1  UNL1        0.0476
     61 H          -6.0274    3.9889   -1.7150 H       1  UNL1        0.0833
     62 H          -7.0637    6.2673    1.6155 H       1  UNL1        0.0829
     63 H          -6.6456    4.3777    3.0711 H       1  UNL1        0.0633
     64 H          -5.8998    2.2459    2.1535 H       1  UNL1        0.0622
     65 H          -3.7870    1.3576    1.4923 H       1  UNL1        0.0439
     66 H          -3.1560    2.8162    0.7053 H       1  UNL1        0.0439
     67 H          -1.4289    1.2865    1.4879 H       1  UNL1        0.0439
     68 H          -1.2744    1.8716   -0.1911 H       1  UNL1        0.0439
     69 H          -0.3714   -0.0956   -1.4103 H       1  UNL1        0.0452
     70 H          -0.9511   -1.7017   -0.9967 H       1  UNL1        0.0452
     71 H           0.2161   -1.9563    0.9390 H       1  UNL1        0.0606
     72 H           1.0943   -2.4318   -1.0041 H       1  UNL1        0.2098
     73 H           0.4727    0.1126    2.0860 H       1  UNL1        0.0298
     74 H           1.9517   -0.7735    1.7944 H       1  UNL1        0.0298
     75 H           0.9495    1.7846    0.3990 H       1  UNL1        0.0398
     76 H           2.7218    2.8658    1.5604 H       1  UNL1        0.0320
     77 H           1.4719    2.1437    2.5676 H       1  UNL1        0.0320
     78 H           5.0939    1.9366    1.8360 H       1  UNL1        0.0620
     79 H           6.7004    0.8592    3.2665 H       1  UNL1        0.0618
     80 H           5.8313   -0.5618    5.1484 H       1  UNL1        0.0618
     81 H           3.4339   -0.8105    5.4706 H       1  UNL1        0.0618
     82 H           1.8664    0.2819    4.0215 H       1  UNL1        0.0620
     83 H           4.1646   -0.2788    0.3473 H       1  UNL1        0.1494
     84 H           4.1553    0.5347   -2.5637 H       1  UNL1        0.0574
     85 H           4.2585   -1.9886   -2.3213 H       1  UNL1        0.0618
     86 H           5.7179   -2.8270   -0.9601 H       1  UNL1        0.2099
     87 H           6.6998   -1.9590   -3.2578 H       1  UNL1        0.0339
     88 H           5.5808   -0.7133   -4.0459 H       1  UNL1        0.0339
     89 H           8.8509   -0.0920   -3.2799 H       1  UNL1        0.0620
     90 H           9.7337    1.8745   -2.0323 H       1  UNL1        0.0618
     91 H           8.2642    3.0920   -0.5639 H       1  UNL1        0.0618
     92 H           5.9610    2.4079   -0.3198 H       1  UNL1        0.0621
@<TRIPOS>BOND
     1     1     2    1
     2     2     3    1
     3     2     4    1
     4     2     5    1
     5     5     6   am
     6     6     7    2
     7     6     8    1
     8     8     9    1
     9     9    10    1
    10    10    11    1
    11    11    12    1
    12    12    13   ar
    13    13    14   ar
    14    14    15   ar
    15    15    16   ar
    16    16    17   ar
    17    10    18    1
    18    18    19    1
    19    19    20    1
    20    20    21    1
    21    21    22    1
    22    22    23    1
    23    22    24    1
    24    24    25    1
    25    25    26    1
    26    26    27    1
    27    27    28   ar
    28    28    29   ar
    29    29    30   ar
    30    30    31   ar
    31    31    32   ar
    32    25    33    1
    33    33    34    2
    34    33    35   am
    35    35    36    1
    36    36    37    1
    37    37    38    1
    38    37    39    1
    39    39    40    1
    40    40    41   ar
    41    41    42   ar
    42    42    43   ar
    43    43    44   ar
    44    44    45   ar
    45    20     8    1
    46    32    27   ar
    47    45    36    1
    48    17    12   ar
    49    45    40   ar
    50     1    46    1
    51     1    47    1
    52     1    48    1
    53     3    49    1
    54     3    50    1
    55     3    51    1
    56     4    52    1
    57     4    53    1
    58     4    54    1
    59     5    55    1
    60     8    56    1
    61     9    57    1
    62     9    58    1
    63    11    59    1
    64    11    60    1
    65    13    61    1
    66    15    62    1
    67    16    63    1
    68    17    64    1
    69    18    65    1
    70    18    66    1
    71    19    67    1
    72    19    68    1
    73    21    69    1
    74    21    70    1
    75    22    71    1
    76    23    72    1
    77    24    73    1
    78    24    74    1
    79    25    75    1
    80    26    76    1
    81    26    77    1
    82    28    78    1
    83    29    79    1
    84    30    80    1
    85    31    81    1
    86    32    82    1
    87    35    83    1
    88    36    84    1
    89    37    85    1
    90    38    86    1
    91    39    87    1
    92    39    88    1
    93    41    89    1
    94    42    90    1
    95    43    91    1
    96    44    92    1
