
     RDKit          3D

 92 96  0  0  0  0  0  0  0  0999 V2000
   -4.2906   -4.2211   -2.3212 C   0  0  0  0  0  0  0  0  0  0  0  0
   -4.9174   -3.8528   -0.9900 C   0  0  0  0  0  0  0  0  0  0  0  0
   -4.3708   -4.7105    0.1253 C   0  0  0  0  0  0  0  0  0  0  0  0
   -6.4153   -4.0258   -1.1328 C   0  0  0  0  0  0  0  0  0  0  0  0
   -4.5907   -2.4690   -0.6809 N   0  0  0  0  0  0  0  0  0  0  0  0
   -3.1950   -2.1001   -0.5415 C   0  0  0  0  0  0  0  0  0  0  0  0
   -2.6351   -3.2241   -0.7522 O   0  0  0  0  0  0  0  0  0  0  0  0
   -3.0716   -0.6757   -0.2357 C   0  0  2  0  0  0  0  0  0  0  0  0
   -3.7421    0.2119   -1.2609 C   0  0  0  0  0  0  0  0  0  0  0  0
   -4.0036    1.4879   -0.6284 N   0  0  0  0  0  0  0  0  0  0  0  0
   -5.4362    1.6123   -0.4873 C   0  0  0  0  0  0  0  0  0  0  0  0
   -5.8780    2.8619    0.1403 C   0  0  0  0  0  0  0  0  0  0  0  0
   -6.1394    3.9946   -0.6384 C   0  0  0  0  0  0  0  0  0  0  0  0
   -6.5500    5.1844   -0.1547 N   0  0  0  0  0  0  0  0  0  0  0  0
   -6.7416    5.3646    1.1507 C   0  0  0  0  0  0  0  0  0  0  0  0
   -6.5045    4.2924    1.9897 C   0  0  0  0  0  0  0  0  0  0  0  0
   -6.0807    3.0677    1.4850 C   0  0  0  0  0  0  0  0  0  0  0  0
   -3.2715    1.7194    0.5808 C   0  0  0  0  0  0  0  0  0  0  0  0
   -1.8437    1.1681    0.4787 C   0  0  0  0  0  0  0  0  0  0  0  0
   -1.7993   -0.1491    0.0313 N   0  0  0  0  0  0  0  0  0  0  0  0
   -0.6472   -0.7146   -0.4967 C   0  0  0  0  0  0  0  0  0  0  0  0
    0.5178   -1.0610    0.3279 C   0  0  1  0  0  0  0  0  0  0  0  0
    1.5166   -1.6714   -0.5283 O   0  0  0  0  0  0  0  0  0  0  0  0
    1.1624   -0.1331    1.2555 C   0  0  0  0  0  0  0  0  0  0  0  0
    1.7729    1.1301    0.7510 C   0  0  1  0  0  0  0  0  0  0  0  0
    2.3450    1.8614    1.9160 C   0  0  0  0  0  0  0  0  0  0  0  0
    3.3616    1.2602    2.7254 C   0  0  0  0  0  0  0  0  0  0  0  0
    4.7433    1.3185    2.6498 C   0  0  0  0  0  0  0  0  0  0  0  0
    5.6440    0.7083    3.4617 C   0  0  0  0  0  0  0  0  0  0  0  0
    5.1544   -0.0675    4.4900 C   0  0  0  0  0  0  0  0  0  0  0  0
    3.7725   -0.1982    4.6607 C   0  0  0  0  0  0  0  0  0  0  0  0
    2.9262    0.4570    3.7904 C   0  0  0  0  0  0  0  0  0  0  0  0
    2.6421    0.9742   -0.4166 C   0  0  0  0  0  0  0  0  0  0  0  0
    2.4165    1.5187   -1.5552 O   0  0  0  0  0  0  0  0  0  0  0  0
    3.8517    0.2284   -0.5349 N   0  0  0  0  0  0  0  0  0  0  0  0
    4.6693    0.0898   -1.6983 C   0  0  2  0  0  0  0  0  0  0  0  0
    5.0707   -1.3075   -2.0151 C   0  0  2  0  0  0  0  0  0  0  0  0
    5.8328   -1.8637   -0.9588 O   0  0  0  0  0  0  0  0  0  0  0  0
    6.0930   -1.0558   -3.1086 C   0  0  0  0  0  0  0  0  0  0  0  0
    6.8648    0.0660   -2.4757 C   0  0  0  0  0  0  0  0  0  0  0  0
    8.1772    0.4401   -2.6309 C   0  0  0  0  0  0  0  0  0  0  0  0
    8.7236    1.5304   -1.9562 C   0  0  0  0  0  0  0  0  0  0  0  0
    7.8847    2.2273   -1.1158 C   0  0  0  0  0  0  0  0  0  0  0  0
    6.5757    1.8255   -0.9836 C   0  0  0  0  0  0  0  0  0  0  0  0
    5.9923    0.7583   -1.6271 C   0  0  0  0  0  0  0  0  0  0  0  0
   -4.0944   -3.2833   -2.8693 H   0  0  0  0  0  0  0  0  0  0  0  0
   -3.3938   -4.8543   -2.2247 H   0  0  0  0  0  0  0  0  0  0  0  0
   -5.0113   -4.7984   -2.9152 H   0  0  0  0  0  0  0  0  0  0  0  0
   -5.2413   -5.2968    0.5369 H   0  0  0  0  0  0  0  0  0  0  0  0
   -4.0144   -4.0662    0.9286 H   0  0  0  0  0  0  0  0  0  0  0  0
   -3.6029   -5.4196   -0.2529 H   0  0  0  0  0  0  0  0  0  0  0  0
   -6.6553   -5.0472   -1.4362 H   0  0  0  0  0  0  0  0  0  0  0  0
   -6.9354   -3.7198   -0.1809 H   0  0  0  0  0  0  0  0  0  0  0  0
   -6.7760   -3.2831   -1.8850 H   0  0  0  0  0  0  0  0  0  0  0  0
   -5.4213   -1.8107   -0.5755 H   0  0  0  0  0  0  0  0  0  0  0  0
   -3.6904   -0.5177    0.7081 H   0  0  0  0  0  0  0  0  0  0  0  0
   -3.0959    0.4374   -2.1313 H   0  0  0  0  0  0  0  0  0  0  0  0
   -4.6244   -0.2915   -1.6445 H   0  0  0  0  0  0  0  0  0  0  0  0
   -5.7675    0.7028    0.0751 H   0  0  0  0  0  0  0  0  0  0  0  0
   -5.8477    1.4745   -1.5184 H   0  0  0  0  0  0  0  0  0  0  0  0
   -6.0274    3.9889   -1.7150 H   0  0  0  0  0  0  0  0  0  0  0  0
   -7.0637    6.2673    1.6155 H   0  0  0  0  0  0  0  0  0  0  0  0
   -6.6456    4.3777    3.0711 H   0  0  0  0  0  0  0  0  0  0  0  0
   -5.8998    2.2459    2.1535 H   0  0  0  0  0  0  0  0  0  0  0  0
   -3.7870    1.3576    1.4923 H   0  0  0  0  0  0  0  0  0  0  0  0
   -3.1560    2.8162    0.7053 H   0  0  0  0  0  0  0  0  0  0  0  0
   -1.4289    1.2865    1.4879 H   0  0  0  0  0  0  0  0  0  0  0  0
   -1.2744    1.8716   -0.1911 H   0  0  0  0  0  0  0  0  0  0  0  0
   -0.3714   -0.0956   -1.4103 H   0  0  0  0  0  0  0  0  0  0  0  0
   -0.9511   -1.7017   -0.9967 H   0  0  0  0  0  0  0  0  0  0  0  0
    0.2161   -1.9563    0.9390 H   0  0  0  0  0  0  0  0  0  0  0  0
    1.0943   -2.4318   -1.0041 H   0  0  0  0  0  0  0  0  0  0  0  0
    0.4727    0.1126    2.0860 H   0  0  0  0  0  0  0  0  0  0  0  0
    1.9517   -0.7735    1.7944 H   0  0  0  0  0  0  0  0  0  0  0  0
    0.9495    1.7846    0.3990 H   0  0  0  0  0  0  0  0  0  0  0  0
    2.7218    2.8658    1.5604 H   0  0  0  0  0  0  0  0  0  0  0  0
    1.4719    2.1437    2.5676 H   0  0  0  0  0  0  0  0  0  0  0  0
    5.0939    1.9366    1.8360 H   0  0  0  0  0  0  0  0  0  0  0  0
    6.7004    0.8592    3.2665 H   0  0  0  0  0  0  0  0  0  0  0  0
    5.8313   -0.5618    5.1484 H   0  0  0  0  0  0  0  0  0  0  0  0
    3.4339   -0.8105    5.4706 H   0  0  0  0  0  0  0  0  0  0  0  0
    1.8664    0.2819    4.0215 H   0  0  0  0  0  0  0  0  0  0  0  0
    4.1646   -0.2788    0.3473 H   0  0  0  0  0  0  0  0  0  0  0  0
    4.1553    0.5347   -2.5637 H   0  0  0  0  0  0  0  0  0  0  0  0
    4.2585   -1.9886   -2.3213 H   0  0  0  0  0  0  0  0  0  0  0  0
    5.7179   -2.8270   -0.9601 H   0  0  0  0  0  0  0  0  0  0  0  0
    6.6998   -1.9590   -3.2578 H   0  0  0  0  0  0  0  0  0  0  0  0
    5.5808   -0.7133   -4.0459 H   0  0  0  0  0  0  0  0  0  0  0  0
    8.8509   -0.0920   -3.2799 H   0  0  0  0  0  0  0  0  0  0  0  0
    9.7337    1.8745   -2.0323 H   0  0  0  0  0  0  0  0  0  0  0  0
    8.2642    3.0920   -0.5639 H   0  0  0  0  0  0  0  0  0  0  0  0
    5.9610    2.4079   -0.3198 H   0  0  0  0  0  0  0  0  0  0  0  0
  1  2  1  0
  2  3  1  0
  2  4  1  0
  2  5  1  0
  5  6  1  0
  6  7  2  0
  6  8  1  0
  8  9  1  0
  9 10  1  0
 10 11  1  0
 11 12  1  0
 12 13  2  0
 13 14  1  0
 14 15  2  0
 15 16  1  0
 16 17  2  0
 10 18  1  0
 18 19  1  0
 19 20  1  0
 20 21  1  0
 21 22  1  0
 22 23  1  0
 22 24  1  0
 24 25  1  0
 25 26  1  0
 26 27  1  0
 27 28  2  0
 28 29  1  0
 29 30  2  0
 30 31  1  0
 31 32  2  0
 25 33  1  0
 33 34  2  0
 33 35  1  0
 35 36  1  0
 36 37  1  0
 37 38  1  0
 37 39  1  0
 39 40  1  0
 40 41  2  0
 41 42  1  0
 42 43  2  0
 43 44  1  0
 44 45  2  0
 20  8  1  0
 32 27  1  0
 45 36  1  0
 17 12  1  0
 45 40  1  0
  1 46  1  0
  1 47  1  0
  1 48  1  0
  3 49  1  0
  3 50  1  0
  3 51  1  0
  4 52  1  0
  4 53  1  0
  4 54  1  0
  5 55  1  0
  8 56  1  1
  9 57  1  0
  9 58  1  0
 11 59  1  0
 11 60  1  0
 13 61  1  0
 15 62  1  0
 16 63  1  0
 17 64  1  0
 18 65  1  0
 18 66  1  0
 19 67  1  0
 19 68  1  0
 21 69  1  0
 21 70  1  0
 22 71  1  1
 23 72  1  0
 24 73  1  0
 24 74  1  0
 25 75  1  6
 26 76  1  0
 26 77  1  0
 28 78  1  0
 29 79  1  0
 30 80  1  0
 31 81  1  0
 32 82  1  0
 35 83  1  0
 36 84  1  6
 37 85  1  6
 38 86  1  0
 39 87  1  0
 39 88  1  0
 41 89  1  0
 42 90  1  0
 43 91  1  0
 44 92  1  0
M  END
$$$$
