@<TRIPOS>MOLECULE
*****
 42 45 0 0 0
SMALL
GASTEIGER

@<TRIPOS>ATOM
      1 C           5.4751    2.6468    0.3733 C.3     1  UNL1       -0.0228
      2 C           4.2589    1.8004    0.3446 C.ar    1  UNL1        0.0349
      3 C           3.5838    1.3204   -0.7542 C.ar    1  UNL1        0.0006
      4 C           2.5119    0.5785   -0.3282 C.ar    1  UNL1        0.1459
      5 N           1.5718   -0.0795   -1.1440 N.pl3   1  UNL1       -0.2824
      6 C           0.4846   -0.8394   -0.6292 C.ar    1  UNL1        0.1354
      7 N          -0.7080   -0.2932   -0.3042 N.ar    1  UNL1       -0.2135
      8 C          -1.7315   -0.9801    0.1726 C.ar    1  UNL1        0.1645
      9 C          -3.0032   -0.4085    0.5273 C.3     1  UNL1        0.1394
     10 O          -4.0367   -1.2474   -0.0073 O.3     1  UNL1       -0.3794
     11 C          -3.3499    0.9338    0.1062 C.ar    1  UNL1       -0.0116
     12 C          -4.7163    1.2646    0.2007 C.ar    1  UNL1       -0.0530
     13 C          -5.1890    2.5038   -0.1541 C.ar    1  UNL1       -0.0261
     14 C          -4.3532    3.4761   -0.6167 C.ar    1  UNL1        0.1234
     15 F          -4.7957    4.7090   -0.9732 F       1  UNL1       -0.2055
     16 C          -3.0144    3.2021   -0.7268 C.ar    1  UNL1       -0.0261
     17 C          -2.5604    1.9366   -0.3599 C.ar    1  UNL1       -0.0530
     18 N          -1.5528   -2.3091    0.3365 N.ar    1  UNL1       -0.2289
     19 C          -0.4111   -2.9336    0.0426 C.ar    1  UNL1        0.0764
     20 C          -0.2241   -4.2928    0.2092 C.ar    1  UNL1       -0.0356
     21 C           0.9919   -4.8594   -0.1206 C.ar    1  UNL1       -0.0597
     22 C           2.0529   -4.1467   -0.6146 C.ar    1  UNL1       -0.0610
     23 C           1.8697   -2.7798   -0.7837 C.ar    1  UNL1       -0.0493
     24 C           0.6510   -2.1965   -0.4557 C.ar    1  UNL1        0.0405
     25 N           2.5590    0.6235    1.0375 N.ar    1  UNL1       -0.1584
     26 N           3.5775    1.3361    1.4313 N.ar    1  UNL1       -0.2801
     27 H           6.3885    2.0391    0.5130 H       1  UNL1        0.0292
     28 H           5.3638    3.3678    1.2352 H       1  UNL1        0.0292
     29 H           5.5813    3.1787   -0.5937 H       1  UNL1        0.0292
     30 H           3.8773    1.5146   -1.7763 H       1  UNL1        0.0670
     31 H           1.6709   -0.0104   -2.1800 H       1  UNL1        0.1550
     32 H          -3.1622   -0.5586    1.6493 H       1  UNL1        0.0726
     33 H          -3.7038   -1.5676   -0.8817 H       1  UNL1        0.2108
     34 H          -5.4351    0.5444    0.5586 H       1  UNL1        0.0622
     35 H          -6.2561    2.7548   -0.0782 H       1  UNL1        0.0646
     36 H          -2.3252    3.9358   -1.0855 H       1  UNL1        0.0646
     37 H          -1.5185    1.7704   -0.4552 H       1  UNL1        0.0622
     38 H          -1.0670   -4.8476    0.6001 H       1  UNL1        0.0639
     39 H           1.1066   -5.9203    0.0203 H       1  UNL1        0.0618
     40 H           2.9975   -4.5795   -0.8717 H       1  UNL1        0.0618
     41 H           2.6483   -2.1510   -1.1640 H       1  UNL1        0.0625
     42 H           3.8919    1.5640    2.4098 H       1  UNL1        0.1886
@<TRIPOS>BOND
     1     1     2    1
     2     2     3   ar
     3     3     4   ar
     4     4     5    1
     5     5     6    1
     6     6     7   ar
     7     7     8   ar
     8     8     9    1
     9     9    10    1
    10     9    11    1
    11    11    12   ar
    12    12    13   ar
    13    13    14   ar
    14    14    15    1
    15    14    16   ar
    16    16    17   ar
    17     8    18   ar
    18    18    19   ar
    19    19    20   ar
    20    20    21   ar
    21    21    22   ar
    22    22    23   ar
    23    23    24   ar
    24     4    25   ar
    25    25    26   ar
    26    26     2   ar
    27    24     6   ar
    28    17    11   ar
    29    24    19   ar
    30     1    27    1
    31     1    28    1
    32     1    29    1
    33     3    30    1
    34     5    31    1
    35     9    32    1
    36    10    33    1
    37    12    34    1
    38    13    35    1
    39    16    36    1
    40    17    37    1
    41    20    38    1
    42    21    39    1
    43    22    40    1
    44    23    41    1
    45    26    42    1
