
     RDKit          3D

128130  0  0  0  0  0  0  0  0999 V2000
   -2.8369   -1.0625    1.2231 C   0  0  2  0  0  0  0  0  0  0  0  0
   -2.7129   -0.8212    2.5771 O   0  0  0  0  0  0  0  0  0  0  0  0
   -1.6562   -0.5195    0.4903 C   0  0  0  0  0  0  0  0  0  0  0  0
   -0.9045   -0.0821   -0.5881 O   0  0  0  0  0  0  0  0  0  0  0  0
   -0.4632   -0.1350    0.7743 N   0  0  0  0  0  0  0  0  0  0  0  0
    0.0990   -0.1480    2.1076 C   0  0  0  0  0  0  0  0  0  0  0  0
    0.4966   -1.5410    2.5303 C   0  0  0  0  0  0  0  0  0  0  0  0
    1.5560   -2.1396    1.6549 C   0  0  0  0  0  0  0  0  0  0  0  0
    2.2464   -3.2567    1.2354 O   0  0  0  0  0  0  0  0  0  0  0  0
    2.4594   -2.0324    0.7915 N   0  0  0  0  0  0  0  0  0  0  0  0
    2.9402   -0.8890    0.1293 C   0  0  0  0  0  0  0  0  0  0  0  0
    3.3511   -1.2061   -1.2986 C   0  0  0  0  0  0  0  0  0  0  0  0
    4.6270   -2.4529   -1.3792 S   0  0  0  0  0  0  0  0  0  0  0  0
    6.2063   -1.9683   -0.6863 C   0  0  0  0  0  0  0  0  0  0  0  0
    6.8555   -0.8977   -1.4433 C   0  0  0  0  0  0  0  0  0  0  0  0
    7.9150   -0.7096   -0.8665 O   0  0  0  0  0  0  0  0  0  0  0  0
    6.9770    0.0946   -2.5056 C   0  0  0  0  0  0  0  0  0  0  0  0
    8.3014    0.7654   -2.5940 C   0  0  0  0  0  0  0  0  0  0  0  0
    9.4683   -0.1023   -2.9060 C   0  0  0  0  0  0  0  0  0  0  0  0
   10.7345    0.7660   -2.9412 C   0  0  0  0  0  0  0  0  0  0  0  0
   11.9524   -0.0590   -3.2754 C   0  0  0  0  0  0  0  0  0  0  0  0
   13.2061    0.7505   -3.3115 C   0  0  0  0  0  0  0  0  0  0  0  0
   13.5343    1.3971   -2.0077 C   0  0  0  0  0  0  0  0  0  0  0  0
   13.7414    0.3825   -0.8942 C   0  0  0  0  0  0  0  0  0  0  0  0
   14.0847    1.1770    0.3604 C   0  0  0  0  0  0  0  0  0  0  0  0
   14.2975    0.2040    1.4923 C   0  0  0  0  0  0  0  0  0  0  0  0
   15.4061   -0.7852    1.2444 C   0  0  0  0  0  0  0  0  0  0  0  0
   16.7544   -0.1570    1.0237 C   0  0  0  0  0  0  0  0  0  0  0  0
   17.1456    0.6365    2.2453 C   0  0  0  0  0  0  0  0  0  0  0  0
   -4.1516   -0.6265    0.6462 C   0  0  0  0  0  0  0  0  0  0  0  0
   -4.1992   -0.9263   -0.8504 C   0  0  0  0  0  0  0  0  0  0  0  0
   -5.2070   -1.5354    1.3137 C   0  0  0  0  0  0  0  0  0  0  0  0
   -4.4787    0.8087    0.9163 C   0  0  0  0  0  0  0  0  0  0  0  0
   -4.5766    1.1454    2.2449 O   0  0  0  0  0  0  0  0  0  0  0  0
   -5.3852    2.6497    2.3946 P   0  0  0  0  0  0  0  0  0  0  0  0
   -4.4845    3.5915    3.4616 O   0  0  0  0  0  0  0  0  0  0  0  0
   -5.4410    3.3530    1.0572 O   0  0  0  0  0  0  0  0  0  0  0  0
   -6.9356    2.4091    3.0228 O   0  0  0  0  0  0  0  0  0  0  0  0
   -8.1501    2.6365    1.8931 P   0  0  0  0  0  0  0  0  0  0  0  0
   -7.6063    2.6659    0.3030 O   0  0  0  0  0  0  0  0  0  0  0  0
   -8.7339    4.0277    2.1636 O   0  0  0  0  0  0  0  0  0  0  0  0
   -9.4483    1.5619    2.1136 O   0  0  0  0  0  0  0  0  0  0  0  0
   -9.5205    0.5942    1.1201 C   0  0  0  0  0  0  0  0  0  0  0  0
  -10.6666   -0.3444    1.3461 C   0  0  1  0  0  0  0  0  0  0  0  0
  -11.9124    0.2711    1.3707 O   0  0  0  0  0  0  0  0  0  0  0  0
  -12.8575   -0.7222    1.1622 C   0  0  1  0  0  0  0  0  0  0  0  0
  -13.8748   -0.1991    0.2770 N   0  0  0  0  0  0  0  0  0  0  0  0
  -14.5532   -0.8884   -0.6576 C   0  0  0  0  0  0  0  0  0  0  0  0
  -15.4477   -0.1210   -1.3319 N   0  0  0  0  0  0  0  0  0  0  0  0
  -15.3432    1.1160   -0.8120 C   0  0  0  0  0  0  0  0  0  0  0  0
  -15.9972    2.2996   -1.0978 C   0  0  0  0  0  0  0  0  0  0  0  0
  -16.9937    2.3578   -2.1122 N   0  0  0  0  0  0  0  0  0  0  0  0
  -15.6576    3.3775   -0.3871 N   0  0  0  0  0  0  0  0  0  0  0  0
  -14.7082    3.3416    0.5875 C   0  0  0  0  0  0  0  0  0  0  0  0
  -14.0687    2.1711    0.8630 N   0  0  0  0  0  0  0  0  0  0  0  0
  -14.3736    1.0482    0.1727 C   0  0  0  0  0  0  0  0  0  0  0  0
  -12.1758   -1.9341    0.6259 C   0  0  2  0  0  0  0  0  0  0  0  0
  -11.9120   -2.8505    1.6710 O   0  0  0  0  0  0  0  0  0  0  0  0
  -10.8071   -1.3629    0.2353 C   0  0  2  0  0  0  0  0  0  0  0  0
   -9.8332   -2.3501    0.2576 O   0  0  0  0  0  0  0  0  0  0  0  0
   -9.2190   -2.4112   -1.3412 P   0  0  0  0  0  0  0  0  0  0  0  0
   -7.7778   -1.5536   -1.4546 O   0  0  0  0  0  0  0  0  0  0  0  0
   -8.9717   -4.0127   -1.8367 O   0  0  0  0  0  0  0  0  0  0  0  0
  -10.1858   -1.7888   -2.3206 O   0  0  0  0  0  0  0  0  0  0  0  0
   -2.7860   -2.1981    1.0958 H   0  0  0  0  0  0  0  0  0  0  0  0
   -3.1198   -1.5526    3.0818 H   0  0  0  0  0  0  0  0  0  0  0  0
   -1.2447   -0.1899   -1.5381 H   0  0  0  0  0  0  0  0  0  0  0  0
    1.0138    0.5118    2.0673 H   0  0  0  0  0  0  0  0  0  0  0  0
   -0.5919    0.2554    2.8548 H   0  0  0  0  0  0  0  0  0  0  0  0
    0.8807   -1.4582    3.5890 H   0  0  0  0  0  0  0  0  0  0  0  0
   -0.3808   -2.1918    2.5990 H   0  0  0  0  0  0  0  0  0  0  0  0
    2.1660   -4.1893    1.6119 H   0  0  0  0  0  0  0  0  0  0  0  0
    3.8062   -0.3953    0.6402 H   0  0  0  0  0  0  0  0  0  0  0  0
    2.1719   -0.1113    0.0630 H   0  0  0  0  0  0  0  0  0  0  0  0
    3.5742   -0.2739   -1.8131 H   0  0  0  0  0  0  0  0  0  0  0  0
    2.4366   -1.6290   -1.7799 H   0  0  0  0  0  0  0  0  0  0  0  0
    6.8569   -2.8707   -0.6590 H   0  0  0  0  0  0  0  0  0  0  0  0
    6.0434   -1.6983    0.3853 H   0  0  0  0  0  0  0  0  0  0  0  0
    6.7061   -0.3247   -3.5192 H   0  0  0  0  0  0  0  0  0  0  0  0
    6.1643    0.8610   -2.3284 H   0  0  0  0  0  0  0  0  0  0  0  0
    8.2455    1.5819   -3.3700 H   0  0  0  0  0  0  0  0  0  0  0  0
    8.4702    1.3412   -1.6379 H   0  0  0  0  0  0  0  0  0  0  0  0
    9.3803   -0.4925   -3.9687 H   0  0  0  0  0  0  0  0  0  0  0  0
    9.6148   -0.9790   -2.2899 H   0  0  0  0  0  0  0  0  0  0  0  0
   10.8617    1.1750   -1.9157 H   0  0  0  0  0  0  0  0  0  0  0  0
   10.6218    1.6054   -3.6315 H   0  0  0  0  0  0  0  0  0  0  0  0
   11.8137   -0.5692   -4.2480 H   0  0  0  0  0  0  0  0  0  0  0  0
   12.0962   -0.8716   -2.5286 H   0  0  0  0  0  0  0  0  0  0  0  0
   14.0501    0.0905   -3.5924 H   0  0  0  0  0  0  0  0  0  0  0  0
   13.1678    1.5728   -4.0712 H   0  0  0  0  0  0  0  0  0  0  0  0
   12.7047    2.0555   -1.6408 H   0  0  0  0  0  0  0  0  0  0  0  0
   14.4504    1.9989   -2.0810 H   0  0  0  0  0  0  0  0  0  0  0  0
   12.8095   -0.1930   -0.7177 H   0  0  0  0  0  0  0  0  0  0  0  0
   14.5226   -0.3535   -1.1332 H   0  0  0  0  0  0  0  0  0  0  0  0
   13.2774    1.8500    0.6447 H   0  0  0  0  0  0  0  0  0  0  0  0
   14.9914    1.7933    0.2048 H   0  0  0  0  0  0  0  0  0  0  0  0
   13.3679   -0.3878    1.5942 H   0  0  0  0  0  0  0  0  0  0  0  0
   14.4227    0.7952    2.4018 H   0  0  0  0  0  0  0  0  0  0  0  0
   15.4935   -1.3776    2.1905 H   0  0  0  0  0  0  0  0  0  0  0  0
   15.1306   -1.4835    0.4446 H   0  0  0  0  0  0  0  0  0  0  0  0
   17.4695   -0.9792    0.8822 H   0  0  0  0  0  0  0  0  0  0  0  0
   16.7852    0.4669    0.1038 H   0  0  0  0  0  0  0  0  0  0  0  0
   17.3872    1.7035    1.9799 H   0  0  0  0  0  0  0  0  0  0  0  0
   18.0409    0.1822    2.6916 H   0  0  0  0  0  0  0  0  0  0  0  0
   16.3508    0.6183    3.0176 H   0  0  0  0  0  0  0  0  0  0  0  0
   -5.0454   -1.5841   -1.0657 H   0  0  0  0  0  0  0  0  0  0  0  0
   -3.2604   -1.4201   -1.1529 H   0  0  0  0  0  0  0  0  0  0  0  0
   -4.3751    0.0239   -1.4083 H   0  0  0  0  0  0  0  0  0  0  0  0
   -4.8006   -2.5623    1.2342 H   0  0  0  0  0  0  0  0  0  0  0  0
   -6.1386   -1.4681    0.7289 H   0  0  0  0  0  0  0  0  0  0  0  0
   -5.3176   -1.2730    2.3818 H   0  0  0  0  0  0  0  0  0  0  0  0
   -5.3999    1.0610    0.3430 H   0  0  0  0  0  0  0  0  0  0  0  0
   -3.6773    1.4543    0.4843 H   0  0  0  0  0  0  0  0  0  0  0  0
   -4.4822    3.1559    4.3725 H   0  0  0  0  0  0  0  0  0  0  0  0
   -7.6329    1.7885   -0.1345 H   0  0  0  0  0  0  0  0  0  0  0  0
   -9.5137    1.0343    0.1074 H   0  0  0  0  0  0  0  0  0  0  0  0
   -8.5909   -0.0028    1.1911 H   0  0  0  0  0  0  0  0  0  0  0  0
  -10.5459   -0.9217    2.2804 H   0  0  0  0  0  0  0  0  0  0  0  0
  -13.3540   -1.0150    2.1243 H   0  0  0  0  0  0  0  0  0  0  0  0
  -14.4889   -1.9232   -0.9364 H   0  0  0  0  0  0  0  0  0  0  0  0
  -17.0604    2.8432   -3.0272 H   0  0  0  0  0  0  0  0  0  0  0  0
  -17.9272    1.8545   -2.0782 H   0  0  0  0  0  0  0  0  0  0  0  0
  -14.4771    4.2568    1.1318 H   0  0  0  0  0  0  0  0  0  0  0  0
  -12.6595   -2.4436   -0.2055 H   0  0  0  0  0  0  0  0  0  0  0  0
  -12.3009   -2.5160    2.5242 H   0  0  0  0  0  0  0  0  0  0  0  0
  -10.9289   -0.8927   -0.7600 H   0  0  0  0  0  0  0  0  0  0  0  0
   -7.6242   -1.1393   -2.3361 H   0  0  0  0  0  0  0  0  0  0  0  0
   -9.7493   -4.5942   -1.6787 H   0  0  0  0  0  0  0  0  0  0  0  0
  1  2  1  0
  1  3  1  0
  3  4  1  0
  3  5  2  3
  5  6  1  0
  6  7  1  0
  7  8  1  0
  8  9  1  0
  8 10  2  3
 10 11  1  0
 11 12  1  0
 12 13  1  0
 13 14  1  0
 14 15  1  0
 15 16  2  0
 15 17  1  0
 17 18  1  0
 18 19  1  0
 19 20  1  0
 20 21  1  0
 21 22  1  0
 22 23  1  0
 23 24  1  0
 24 25  1  0
 25 26  1  0
 26 27  1  0
 27 28  1  0
 28 29  1  0
  1 30  1  0
 30 31  1  0
 30 32  1  0
 30 33  1  0
 33 34  1  0
 34 35  1  0
 35 36  1  0
 35 37  2  0
 35 38  1  0
 38 39  1  0
 39 40  1  0
 39 41  2  0
 39 42  1  0
 42 43  1  0
 43 44  1  0
 44 45  1  0
 45 46  1  0
 46 47  1  0
 47 48  1  0
 48 49  2  0
 49 50  1  0
 50 51  2  0
 51 52  1  0
 51 53  1  0
 53 54  2  0
 54 55  1  0
 55 56  2  0
 46 57  1  0
 57 58  1  0
 57 59  1  0
 59 60  1  0
 60 61  1  0
 61 62  1  0
 61 63  1  0
 61 64  2  0
 59 44  1  0
 56 47  1  0
 56 50  1  0
  1 65  1  1
  2 66  1  0
  4 67  1  0
  6 68  1  0
  6 69  1  0
  7 70  1  0
  7 71  1  0
  9 72  1  0
 11 73  1  0
 11 74  1  0
 12 75  1  0
 12 76  1  0
 14 77  1  0
 14 78  1  0
 17 79  1  0
 17 80  1  0
 18 81  1  0
 18 82  1  0
 19 83  1  0
 19 84  1  0
 20 85  1  0
 20 86  1  0
 21 87  1  0
 21 88  1  0
 22 89  1  0
 22 90  1  0
 23 91  1  0
 23 92  1  0
 24 93  1  0
 24 94  1  0
 25 95  1  0
 25 96  1  0
 26 97  1  0
 26 98  1  0
 27 99  1  0
 27100  1  0
 28101  1  0
 28102  1  0
 29103  1  0
 29104  1  0
 29105  1  0
 31106  1  0
 31107  1  0
 31108  1  0
 32109  1  0
 32110  1  0
 32111  1  0
 33112  1  0
 33113  1  0
 36114  1  0
 40115  1  0
 43116  1  0
 43117  1  0
 44118  1  1
 46119  1  1
 48120  1  0
 52121  1  0
 52122  1  0
 54123  1  0
 57124  1  6
 58125  1  0
 59126  1  6
 62127  1  0
 63128  1  0
M  END
$$$$
