
     RDKit          3D

 69 71  0  0  0  0  0  0  0  0999 V2000
    4.0245   -0.0364    0.5525 C   0  0  2  0  0  0  0  0  0  0  0  0
    5.0965   -0.8037    1.2350 C   0  0  0  0  0  0  0  0  0  0  0  0
    5.3498   -2.1961    0.8121 C   0  0  0  0  0  0  0  0  0  0  0  0
    4.2601   -3.1949    0.9210 C   0  0  0  0  0  0  0  0  0  0  0  0
    5.9268   -2.2761   -0.5990 C   0  0  0  0  0  0  0  0  0  0  0  0
    3.9613    1.4121    1.0981 C   0  0  0  0  0  0  0  0  0  0  0  0
    5.2251    2.1290    0.8842 C   0  0  0  0  0  0  0  0  0  0  0  0
    6.3778    1.9007    0.3722 O   0  0  0  0  0  0  0  0  0  0  0  0
    5.2935    3.4753    1.3443 N   0  0  0  0  0  0  0  0  0  0  0  0
    6.4105    4.2228    1.1931 O   0  0  0  0  0  0  0  0  0  0  0  0
    2.6325   -0.5304    0.8853 C   0  0  0  0  0  0  0  0  0  0  0  0
    2.0197   -1.3425    1.6125 O   0  0  0  0  0  0  0  0  0  0  0  0
    1.6714    0.1654    0.0992 N   0  0  0  0  0  0  0  0  0  0  0  0
    0.2344   -0.0366    0.1407 C   0  0  1  0  0  0  0  0  0  0  0  0
   -0.3774    1.2581    0.6299 C   0  0  0  0  0  0  0  0  0  0  0  0
   -1.8535    1.1633    0.7235 C   0  0  0  0  0  0  0  0  0  0  0  0
   -2.7109    1.8755   -0.0655 C   0  0  0  0  0  0  0  0  0  0  0  0
   -4.0035    1.5674    0.1388 N   0  0  0  0  0  0  0  0  0  0  0  0
   -5.1949    2.0167   -0.4601 C   0  0  0  0  0  0  0  0  0  0  0  0
   -5.4942    1.7576   -1.8821 C   0  0  0  0  0  0  0  0  0  0  0  0
   -5.3515    0.3207   -2.3085 C   0  0  0  0  0  0  0  0  0  0  0  0
   -3.9240    0.0651   -2.5781 C   0  0  0  0  0  0  0  0  0  0  0  0
   -3.5547   -1.3905   -2.8935 C   0  0  0  0  0  0  0  0  0  0  0  0
   -2.0126   -1.3247   -3.0808 C   0  0  0  0  0  0  0  0  0  0  0  0
   -1.4048   -0.8720   -1.8595 N   0  0  0  0  0  0  0  0  0  0  0  0
   -0.2412   -0.4933   -1.1791 C   0  0  0  0  0  0  0  0  0  0  0  0
    0.1064   -0.7815   -2.3562 O   0  0  0  0  0  0  0  0  0  0  0  0
   -3.9138    0.6257    1.1060 C   0  0  0  0  0  0  0  0  0  0  0  0
   -2.6539    0.3341    1.5070 C   0  0  0  0  0  0  0  0  0  0  0  0
   -2.2972   -0.5759    2.4750 C   0  0  0  0  0  0  0  0  0  0  0  0
   -3.3017   -1.2635    3.1018 C   0  0  0  0  0  0  0  0  0  0  0  0
   -4.6220   -1.0646    2.7890 C   0  0  0  0  0  0  0  0  0  0  0  0
   -4.8670   -0.1311    1.8076 C   0  0  0  0  0  0  0  0  0  0  0  0
    4.2124    0.0222   -0.5171 H   0  0  0  0  0  0  0  0  0  0  0  0
    6.0811   -0.2620    1.1657 H   0  0  0  0  0  0  0  0  0  0  0  0
    4.9305   -0.8423    2.3601 H   0  0  0  0  0  0  0  0  0  0  0  0
    6.2031   -2.5675    1.4645 H   0  0  0  0  0  0  0  0  0  0  0  0
    3.8045   -3.3135    1.9140 H   0  0  0  0  0  0  0  0  0  0  0  0
    3.4906   -3.0215    0.1452 H   0  0  0  0  0  0  0  0  0  0  0  0
    4.7230   -4.2119    0.6652 H   0  0  0  0  0  0  0  0  0  0  0  0
    6.9826   -2.0074   -0.6312 H   0  0  0  0  0  0  0  0  0  0  0  0
    5.8113   -3.3446   -0.9257 H   0  0  0  0  0  0  0  0  0  0  0  0
    5.3545   -1.6666   -1.3064 H   0  0  0  0  0  0  0  0  0  0  0  0
    3.7002    1.2816    2.1660 H   0  0  0  0  0  0  0  0  0  0  0  0
    3.0973    1.8770    0.5850 H   0  0  0  0  0  0  0  0  0  0  0  0
    4.5006    3.9947    1.8306 H   0  0  0  0  0  0  0  0  0  0  0  0
    7.2305    3.7567    1.4264 H   0  0  0  0  0  0  0  0  0  0  0  0
    1.7963    0.9296   -0.6310 H   0  0  0  0  0  0  0  0  0  0  0  0
    0.0535   -0.8356    0.9156 H   0  0  0  0  0  0  0  0  0  0  0  0
    0.0107    1.4023    1.6571 H   0  0  0  0  0  0  0  0  0  0  0  0
   -0.0351    2.0947    0.0162 H   0  0  0  0  0  0  0  0  0  0  0  0
   -2.3932    2.6147   -0.7838 H   0  0  0  0  0  0  0  0  0  0  0  0
   -6.0823    1.7098    0.1758 H   0  0  0  0  0  0  0  0  0  0  0  0
   -5.2375    3.1538   -0.3189 H   0  0  0  0  0  0  0  0  0  0  0  0
   -4.8155    2.4149   -2.4988 H   0  0  0  0  0  0  0  0  0  0  0  0
   -6.5195    2.0738   -2.1858 H   0  0  0  0  0  0  0  0  0  0  0  0
   -5.6843   -0.3346   -1.4503 H   0  0  0  0  0  0  0  0  0  0  0  0
   -6.0162    0.0293   -3.1479 H   0  0  0  0  0  0  0  0  0  0  0  0
   -3.6758    0.6104   -3.5813 H   0  0  0  0  0  0  0  0  0  0  0  0
   -3.1781    0.4273   -1.9131 H   0  0  0  0  0  0  0  0  0  0  0  0
   -3.8458   -2.0995   -2.1323 H   0  0  0  0  0  0  0  0  0  0  0  0
   -4.0233   -1.6358   -3.8485 H   0  0  0  0  0  0  0  0  0  0  0  0
   -1.7315   -2.3563   -3.3886 H   0  0  0  0  0  0  0  0  0  0  0  0
   -1.8092   -0.6641   -3.9437 H   0  0  0  0  0  0  0  0  0  0  0  0
   -2.0161   -0.7680   -1.0207 H   0  0  0  0  0  0  0  0  0  0  0  0
   -1.3165   -0.8083    2.8042 H   0  0  0  0  0  0  0  0  0  0  0  0
   -3.0769   -2.0056    3.8859 H   0  0  0  0  0  0  0  0  0  0  0  0
   -5.4024   -1.6168    3.2875 H   0  0  0  0  0  0  0  0  0  0  0  0
   -5.9347   -0.0072    1.5938 H   0  0  0  0  0  0  0  0  0  0  0  0
  1  2  1  0
  2  3  1  0
  3  4  1  0
  3  5  1  0
  1  6  1  0
  6  7  1  0
  7  8  2  0
  7  9  1  0
  9 10  1  0
  1 11  1  0
 11 12  2  0
 11 13  1  0
 13 14  1  0
 14 15  1  0
 15 16  1  0
 16 17  2  0
 17 18  1  0
 18 19  1  0
 19 20  1  0
 20 21  1  0
 21 22  1  0
 22 23  1  0
 23 24  1  0
 24 25  1  0
 25 26  1  0
 26 27  2  0
 18 28  1  0
 28 29  2  0
 29 30  1  0
 30 31  2  0
 31 32  1  0
 32 33  2  0
 26 14  1  0
 33 28  1  0
 29 16  1  0
  1 34  1  6
  2 35  1  0
  2 36  1  0
  3 37  1  0
  4 38  1  0
  4 39  1  0
  4 40  1  0
  5 41  1  0
  5 42  1  0
  5 43  1  0
  6 44  1  0
  6 45  1  0
  9 46  1  0
 10 47  1  0
 13 48  1  0
 14 49  1  1
 15 50  1  0
 15 51  1  0
 17 52  1  0
 19 53  1  0
 19 54  1  0
 20 55  1  0
 20 56  1  0
 21 57  1  0
 21 58  1  0
 22 59  1  0
 22 60  1  0
 23 61  1  0
 23 62  1  0
 24 63  1  0
 24 64  1  0
 25 65  1  0
 30 66  1  0
 31 67  1  0
 32 68  1  0
 33 69  1  0
M  END
$$$$
