
     RDKit          3D

 23 25  0  0  0  0  0  0  0  0999 V2000
    0.2078    0.0876   -1.7769 S   0  0  0  0  0  0  0  0  0  0  0  0
    0.1900    0.0487   -0.0331 P   0  0  0  0  0  0  0  0  0  0  0  0
   -0.1444   -1.5741    0.4709 N   0  0  0  0  0  0  0  0  0  0  0  0
   -1.2397   -2.2379   -0.2973 C   0  0  0  0  0  0  0  0  0  0  0  0
   -1.3509   -1.9109    1.1727 C   0  0  0  0  0  0  0  0  0  0  0  0
   -1.0290    1.1917    0.4553 N   0  0  0  0  0  0  0  0  0  0  0  0
   -1.0845    2.4351   -0.2743 C   0  0  0  0  0  0  0  0  0  0  0  0
   -2.1464    1.4174   -0.4706 C   0  0  0  0  0  0  0  0  0  0  0  0
    1.7397    0.5786    0.5497 N   0  0  0  0  0  0  0  0  0  0  0  0
    2.8047   -0.3882    0.7049 C   0  0  0  0  0  0  0  0  0  0  0  0
    2.8515    0.6641   -0.3629 C   0  0  0  0  0  0  0  0  0  0  0  0
   -1.8159   -1.6065   -1.0037 H   0  0  0  0  0  0  0  0  0  0  0  0
   -0.9552   -3.2524   -0.6163 H   0  0  0  0  0  0  0  0  0  0  0  0
   -2.0594   -1.1416    1.4935 H   0  0  0  0  0  0  0  0  0  0  0  0
   -1.3128   -2.7969    1.8480 H   0  0  0  0  0  0  0  0  0  0  0  0
   -0.3851    2.6070   -1.1126 H   0  0  0  0  0  0  0  0  0  0  0  0
   -1.4098    3.3675    0.2314 H   0  0  0  0  0  0  0  0  0  0  0  0
   -2.1099    0.8205   -1.4114 H   0  0  0  0  0  0  0  0  0  0  0  0
   -3.1128    1.4850    0.0869 H   0  0  0  0  0  0  0  0  0  0  0  0
    3.4699   -0.1982    1.5673 H   0  0  0  0  0  0  0  0  0  0  0  0
    2.6584   -1.4411    0.4161 H   0  0  0  0  0  0  0  0  0  0  0  0
    3.4592    1.5723   -0.2452 H   0  0  0  0  0  0  0  0  0  0  0  0
    2.7745    0.2723   -1.3921 H   0  0  0  0  0  0  0  0  0  0  0  0
  1  2  2  0
  2  3  1  0
  3  4  1  0
  4  5  1  0
  2  6  1  0
  6  7  1  0
  7  8  1  0
  2  9  1  0
  9 10  1  0
 10 11  1  0
  5  3  1  0
  8  6  1  0
 11  9  1  0
  4 12  1  0
  4 13  1  0
  5 14  1  0
  5 15  1  0
  7 16  1  0
  7 17  1  0
  8 18  1  0
  8 19  1  0
 10 20  1  0
 10 21  1  0
 11 22  1  0
 11 23  1  0
M  END
$$$$
