@<TRIPOS>MOLECULE
*****
 39 41 0 0 0
SMALL
GASTEIGER

@<TRIPOS>ATOM
      1 C          -3.7173    0.5199    0.8038 C.3     1  UNL1       -0.0125
      2 N          -2.7234   -0.4120    0.4707 N.3     1  UNL1       -0.3013
      3 C          -3.3061   -1.7401    0.3976 C.3     1  UNL1       -0.0125
      4 C          -1.9351   -0.2232   -0.7146 C.3     1  UNL1        0.0382
      5 C          -1.0938   -1.4765   -0.7983 C.3     1  UNL1       -0.0170
      6 C           0.1351   -1.3199   -1.6248 C.3     1  UNL1        0.0190
      7 N           0.9468   -0.3117   -0.9212 N.pl3   1  UNL1       -0.2997
      8 C           2.2320   -0.5325   -0.4189 C.ar    1  UNL1        0.0354
      9 C           3.0418   -1.5017   -0.9925 C.ar    1  UNL1       -0.0389
     10 C           4.3063   -1.7950   -0.5476 C.ar    1  UNL1       -0.0402
     11 C           4.7899   -1.0936    0.5166 C.ar    1  UNL1        0.0594
     12 CL          6.4054   -1.4601    1.0935 Cl      1  UNL1       -0.0820
     13 C           4.0036   -0.1261    1.1031 C.ar    1  UNL1        0.0610
     14 CL          4.7002    0.7418    2.4794 Cl      1  UNL1       -0.0820
     15 C           2.7377    0.1622    0.6522 C.ar    1  UNL1       -0.0206
     16 C           0.2873    0.9578   -0.8061 C.ar    1  UNL1        0.0387
     17 C           1.0831    2.0847   -0.8086 C.ar    1  UNL1       -0.0400
     18 C           0.4271    3.3080   -0.7357 C.ar    1  UNL1       -0.0600
     19 C          -0.9495    3.3644   -0.6664 C.ar    1  UNL1       -0.0613
     20 C          -1.7259    2.2248   -0.6655 C.ar    1  UNL1       -0.0553
     21 C          -1.1050    0.9946   -0.7348 C.ar    1  UNL1       -0.0089
     22 H          -4.4164   -0.0279    1.5360 H       1  UNL1        0.0391
     23 H          -4.4276    0.7854   -0.0151 H       1  UNL1        0.0391
     24 H          -3.3938    1.3951    1.4111 H       1  UNL1        0.0391
     25 H          -2.5677   -2.5259    0.7022 H       1  UNL1        0.0391
     26 H          -4.1841   -1.8303    1.0894 H       1  UNL1        0.0391
     27 H          -3.7139   -1.9264   -0.6163 H       1  UNL1        0.0391
     28 H          -2.6171   -0.1390   -1.6017 H       1  UNL1        0.0513
     29 H          -0.7443   -1.6839    0.2497 H       1  UNL1        0.0299
     30 H          -1.7250   -2.3325   -1.1455 H       1  UNL1        0.0299
     31 H          -0.1264   -0.9605   -2.6163 H       1  UNL1        0.0468
     32 H           0.6795   -2.2932   -1.6393 H       1  UNL1        0.0468
     33 H           2.6953   -2.0892   -1.8490 H       1  UNL1        0.0637
     34 H           4.9281   -2.5678   -1.0194 H       1  UNL1        0.0633
     35 H           2.1742    0.9301    1.1750 H       1  UNL1        0.0651
     36 H           2.1609    2.0362   -0.8721 H       1  UNL1        0.0636
     37 H           1.0285    4.2055   -0.7352 H       1  UNL1        0.0618
     38 H          -1.4683    4.3200   -0.6099 H       1  UNL1        0.0618
     39 H          -2.8219    2.3383   -0.6277 H       1  UNL1        0.0621
@<TRIPOS>BOND
     1     1     2    1
     2     2     3    1
     3     2     4    1
     4     4     5    1
     5     5     6    1
     6     6     7    1
     7     7     8    1
     8     8     9   ar
     9     9    10   ar
    10    10    11   ar
    11    11    12    1
    12    11    13   ar
    13    13    14    1
    14    13    15   ar
    15     7    16    1
    16    16    17   ar
    17    17    18   ar
    18    18    19   ar
    19    19    20   ar
    20    20    21   ar
    21    21     4    1
    22    15     8   ar
    23    21    16   ar
    24     1    22    1
    25     1    23    1
    26     1    24    1
    27     3    25    1
    28     3    26    1
    29     3    27    1
    30     4    28    1
    31     5    29    1
    32     5    30    1
    33     6    31    1
    34     6    32    1
    35     9    33    1
    36    10    34    1
    37    15    35    1
    38    17    36    1
    39    18    37    1
    40    19    38    1
    41    20    39    1
