
     RDKit          3D

 39 41  0  0  0  0  0  0  0  0999 V2000
   -3.7173    0.5199    0.8038 C   0  0  0  0  0  0  0  0  0  0  0  0
   -2.7234   -0.4120    0.4707 N   0  0  0  0  0  0  0  0  0  0  0  0
   -3.3061   -1.7401    0.3976 C   0  0  0  0  0  0  0  0  0  0  0  0
   -1.9351   -0.2232   -0.7146 C   0  0  2  0  0  0  0  0  0  0  0  0
   -1.0938   -1.4765   -0.7983 C   0  0  0  0  0  0  0  0  0  0  0  0
    0.1351   -1.3199   -1.6248 C   0  0  0  0  0  0  0  0  0  0  0  0
    0.9468   -0.3117   -0.9212 N   0  0  0  0  0  0  0  0  0  0  0  0
    2.2320   -0.5325   -0.4189 C   0  0  0  0  0  0  0  0  0  0  0  0
    3.0418   -1.5017   -0.9925 C   0  0  0  0  0  0  0  0  0  0  0  0
    4.3063   -1.7950   -0.5476 C   0  0  0  0  0  0  0  0  0  0  0  0
    4.7899   -1.0936    0.5166 C   0  0  0  0  0  0  0  0  0  0  0  0
    6.4054   -1.4601    1.0935 Cl  0  0  0  0  0  0  0  0  0  0  0  0
    4.0036   -0.1261    1.1031 C   0  0  0  0  0  0  0  0  0  0  0  0
    4.7002    0.7418    2.4794 Cl  0  0  0  0  0  0  0  0  0  0  0  0
    2.7377    0.1622    0.6522 C   0  0  0  0  0  0  0  0  0  0  0  0
    0.2873    0.9578   -0.8061 C   0  0  0  0  0  0  0  0  0  0  0  0
    1.0831    2.0847   -0.8086 C   0  0  0  0  0  0  0  0  0  0  0  0
    0.4271    3.3080   -0.7357 C   0  0  0  0  0  0  0  0  0  0  0  0
   -0.9495    3.3644   -0.6664 C   0  0  0  0  0  0  0  0  0  0  0  0
   -1.7259    2.2248   -0.6655 C   0  0  0  0  0  0  0  0  0  0  0  0
   -1.1050    0.9946   -0.7348 C   0  0  0  0  0  0  0  0  0  0  0  0
   -4.4164   -0.0279    1.5360 H   0  0  0  0  0  0  0  0  0  0  0  0
   -4.4276    0.7854   -0.0151 H   0  0  0  0  0  0  0  0  0  0  0  0
   -3.3938    1.3951    1.4111 H   0  0  0  0  0  0  0  0  0  0  0  0
   -2.5677   -2.5259    0.7022 H   0  0  0  0  0  0  0  0  0  0  0  0
   -4.1841   -1.8303    1.0894 H   0  0  0  0  0  0  0  0  0  0  0  0
   -3.7139   -1.9264   -0.6163 H   0  0  0  0  0  0  0  0  0  0  0  0
   -2.6171   -0.1390   -1.6017 H   0  0  0  0  0  0  0  0  0  0  0  0
   -0.7443   -1.6839    0.2497 H   0  0  0  0  0  0  0  0  0  0  0  0
   -1.7250   -2.3325   -1.1455 H   0  0  0  0  0  0  0  0  0  0  0  0
   -0.1264   -0.9605   -2.6163 H   0  0  0  0  0  0  0  0  0  0  0  0
    0.6795   -2.2932   -1.6393 H   0  0  0  0  0  0  0  0  0  0  0  0
    2.6953   -2.0892   -1.8490 H   0  0  0  0  0  0  0  0  0  0  0  0
    4.9281   -2.5678   -1.0194 H   0  0  0  0  0  0  0  0  0  0  0  0
    2.1742    0.9301    1.1750 H   0  0  0  0  0  0  0  0  0  0  0  0
    2.1609    2.0362   -0.8721 H   0  0  0  0  0  0  0  0  0  0  0  0
    1.0285    4.2055   -0.7352 H   0  0  0  0  0  0  0  0  0  0  0  0
   -1.4683    4.3200   -0.6099 H   0  0  0  0  0  0  0  0  0  0  0  0
   -2.8219    2.3383   -0.6277 H   0  0  0  0  0  0  0  0  0  0  0  0
  1  2  1  0
  2  3  1  0
  2  4  1  0
  4  5  1  0
  5  6  1  0
  6  7  1  0
  7  8  1  0
  8  9  2  0
  9 10  1  0
 10 11  2  0
 11 12  1  0
 11 13  1  0
 13 14  1  0
 13 15  2  0
  7 16  1  0
 16 17  2  0
 17 18  1  0
 18 19  2  0
 19 20  1  0
 20 21  2  0
 21  4  1  0
 15  8  1  0
 21 16  1  0
  1 22  1  0
  1 23  1  0
  1 24  1  0
  3 25  1  0
  3 26  1  0
  3 27  1  0
  4 28  1  6
  5 29  1  0
  5 30  1  0
  6 31  1  0
  6 32  1  0
  9 33  1  0
 10 34  1  0
 15 35  1  0
 17 36  1  0
 18 37  1  0
 19 38  1  0
 20 39  1  0
M  END
$$$$
