
     RDKit          3D

 69 74  0  0  0  0  0  0  0  0999 V2000
    0.3308    0.5267   -2.6653 O   0  0  0  0  0  0  0  0  0  0  0  0
   -0.2624    0.1601   -1.6480 C   0  0  0  0  0  0  0  0  0  0  0  0
    0.4527   -0.3666   -0.5608 N   0  0  0  0  0  0  0  0  0  0  0  0
    1.8513   -0.5420   -0.4653 C   0  0  0  0  0  0  0  0  0  0  0  0
    2.7604   -0.2246   -1.4303 C   0  0  0  0  0  0  0  0  0  0  0  0
    4.1131   -0.4493   -1.2064 C   0  0  0  0  0  0  0  0  0  0  0  0
    4.6130   -0.9857   -0.0419 C   0  0  0  0  0  0  0  0  0  0  0  0
    5.9315   -1.2201    0.2225 O   0  0  0  0  0  0  0  0  0  0  0  0
    6.7926   -0.3422    0.8742 C   0  0  0  0  0  0  0  0  0  0  0  0
    7.0529    0.9894    0.3138 C   0  0  0  0  0  0  0  0  0  0  0  0
    7.8403    1.7703    0.9275 O   0  0  0  0  0  0  0  0  0  0  0  0
    6.4920    1.4405   -0.8400 O   0  0  0  0  0  0  0  0  0  0  0  0
    7.9786   -1.0599    1.5195 C   0  0  0  0  0  0  0  0  0  0  0  0
    6.9385   -0.4317    2.3630 C   0  0  0  0  0  0  0  0  0  0  0  0
    3.6757   -1.3132    0.9526 C   0  0  0  0  0  0  0  0  0  0  0  0
    2.3418   -1.0913    0.7300 C   0  0  0  0  0  0  0  0  0  0  0  0
    1.4827   -1.4342    1.7434 F   0  0  0  0  0  0  0  0  0  0  0  0
   -1.7780    0.2606   -1.5296 C   0  0  2  0  0  0  0  0  0  0  0  0
   -2.0126    1.3968   -0.6086 C   0  0  0  0  0  0  0  0  0  0  0  0
   -1.3394    2.6638   -1.2412 C   0  0  0  0  0  0  0  0  0  0  0  0
   -1.6043    3.8136   -0.3218 C   0  0  0  0  0  0  0  0  0  0  0  0
   -3.0399    4.2545   -0.6134 C   0  0  0  0  0  0  0  0  0  0  0  0
   -3.8494    3.0689   -1.0970 C   0  0  0  0  0  0  0  0  0  0  0  0
   -3.4495    1.7918   -0.4193 C   0  0  0  0  0  0  0  0  0  0  0  0
   -2.2254   -1.0415   -1.1028 N   0  0  0  0  0  0  0  0  0  0  0  0
   -2.7899   -1.5165    0.0037 C   0  0  0  0  0  0  0  0  0  0  0  0
   -3.2415   -0.8747    1.2240 C   0  0  0  0  0  0  0  0  0  0  0  0
   -2.4351   -0.5055    2.2306 C   0  0  0  0  0  0  0  0  0  0  0  0
   -2.9743    0.0657    3.3978 C   0  0  0  0  0  0  0  0  0  0  0  0
   -4.3308    0.2516    3.5209 C   0  0  0  0  0  0  0  0  0  0  0  0
   -4.9941    0.9645    4.9795 Cl  0  0  0  0  0  0  0  0  0  0  0  0
   -5.1711   -0.1194    2.5038 C   0  0  0  0  0  0  0  0  0  0  0  0
   -4.6202   -0.6675    1.3905 C   0  0  0  0  0  0  0  0  0  0  0  0
   -2.9641   -2.8853   -0.1776 N   0  0  0  0  0  0  0  0  0  0  0  0
   -2.5167   -3.2444   -1.3759 C   0  0  0  0  0  0  0  0  0  0  0  0
   -2.4533   -4.4445   -2.0628 C   0  0  0  0  0  0  0  0  0  0  0  0
   -1.9403   -4.5429   -3.3281 C   0  0  0  0  0  0  0  0  0  0  0  0
   -1.8936   -5.7533   -3.9789 F   0  0  0  0  0  0  0  0  0  0  0  0
   -1.4687   -3.4094   -3.9456 C   0  0  0  0  0  0  0  0  0  0  0  0
   -0.9468   -3.4247   -5.1967 F   0  0  0  0  0  0  0  0  0  0  0  0
   -1.5351   -2.2131   -3.2523 C   0  0  0  0  0  0  0  0  0  0  0  0
   -2.0523   -2.1148   -1.9733 C   0  0  0  0  0  0  0  0  0  0  0  0
   -0.1328   -0.6695    0.2720 H   0  0  0  0  0  0  0  0  0  0  0  0
    2.4564    0.1970   -2.3643 H   0  0  0  0  0  0  0  0  0  0  0  0
    4.7810   -0.1965   -2.0105 H   0  0  0  0  0  0  0  0  0  0  0  0
    6.1865    2.3991   -0.9595 H   0  0  0  0  0  0  0  0  0  0  0  0
    8.9451   -0.5612    1.3582 H   0  0  0  0  0  0  0  0  0  0  0  0
    7.9963   -2.1700    1.5268 H   0  0  0  0  0  0  0  0  0  0  0  0
    6.2150   -1.0928    2.8944 H   0  0  0  0  0  0  0  0  0  0  0  0
    7.2147    0.4621    2.9294 H   0  0  0  0  0  0  0  0  0  0  0  0
    4.0093   -1.7382    1.8877 H   0  0  0  0  0  0  0  0  0  0  0  0
   -2.1417    0.4376   -2.5653 H   0  0  0  0  0  0  0  0  0  0  0  0
   -1.4680    1.2726    0.3245 H   0  0  0  0  0  0  0  0  0  0  0  0
   -1.8881    2.8236   -2.1879 H   0  0  0  0  0  0  0  0  0  0  0  0
   -0.2798    2.4626   -1.4325 H   0  0  0  0  0  0  0  0  0  0  0  0
   -0.9039    4.6354   -0.5485 H   0  0  0  0  0  0  0  0  0  0  0  0
   -1.5506    3.5218    0.7560 H   0  0  0  0  0  0  0  0  0  0  0  0
   -3.4578    4.7351    0.2715 H   0  0  0  0  0  0  0  0  0  0  0  0
   -2.9758    4.9714   -1.4575 H   0  0  0  0  0  0  0  0  0  0  0  0
   -3.9079    2.9653   -2.1781 H   0  0  0  0  0  0  0  0  0  0  0  0
   -4.9051    3.2739   -0.7499 H   0  0  0  0  0  0  0  0  0  0  0  0
   -3.6604    1.9370    0.6705 H   0  0  0  0  0  0  0  0  0  0  0  0
   -4.0666    0.9917   -0.8770 H   0  0  0  0  0  0  0  0  0  0  0  0
   -1.3661   -0.6419    2.1807 H   0  0  0  0  0  0  0  0  0  0  0  0
   -2.3446    0.3628    4.2028 H   0  0  0  0  0  0  0  0  0  0  0  0
   -6.2553    0.0188    2.5791 H   0  0  0  0  0  0  0  0  0  0  0  0
   -5.2641   -0.9672    0.5765 H   0  0  0  0  0  0  0  0  0  0  0  0
   -2.8261   -5.3217   -1.5671 H   0  0  0  0  0  0  0  0  0  0  0  0
   -1.1686   -1.3093   -3.7672 H   0  0  0  0  0  0  0  0  0  0  0  0
  1  2  2  0
  2  3  1  0
  3  4  1  0
  4  5  2  0
  5  6  1  0
  6  7  2  0
  7  8  1  0
  8  9  1  0
  9 10  1  0
 10 11  2  0
 10 12  1  0
  9 13  1  0
 13 14  1  0
  7 15  1  0
 15 16  2  0
 16 17  1  0
  2 18  1  0
 18 19  1  0
 19 20  1  0
 20 21  1  0
 21 22  1  0
 22 23  1  0
 23 24  1  0
 18 25  1  0
 25 26  1  0
 26 27  1  0
 27 28  2  0
 28 29  1  0
 29 30  2  0
 30 31  1  0
 30 32  1  0
 32 33  2  0
 26 34  2  0
 34 35  1  0
 35 36  2  0
 36 37  1  0
 37 38  1  0
 37 39  2  0
 39 40  1  0
 39 41  1  0
 41 42  2  0
 16  4  1  0
 24 19  1  0
 42 25  1  0
 14  9  1  0
 33 27  1  0
 42 35  1  0
  3 43  1  0
  5 44  1  0
  6 45  1  0
 12 46  1  0
 13 47  1  0
 13 48  1  0
 14 49  1  0
 14 50  1  0
 15 51  1  0
 18 52  1  6
 19 53  1  0
 20 54  1  0
 20 55  1  0
 21 56  1  0
 21 57  1  0
 22 58  1  0
 22 59  1  0
 23 60  1  0
 23 61  1  0
 24 62  1  0
 24 63  1  0
 28 64  1  0
 29 65  1  0
 32 66  1  0
 33 67  1  0
 36 68  1  0
 41 69  1  0
M  END
$$$$
