@<TRIPOS>MOLECULE
*****
 69 74 0 0 0
SMALL
GASTEIGER

@<TRIPOS>ATOM
      1 O           0.3308    0.5267   -2.6653 O.2     1  UNL1       -0.2732
      2 C          -0.2624    0.1601   -1.6480 C.2     1  UNL1        0.2405
      3 N           0.4527   -0.3666   -0.5608 N.am    1  UNL1       -0.2815
      4 C           1.8513   -0.5420   -0.4653 C.ar    1  UNL1        0.0693
      5 C           2.7604   -0.2246   -1.4303 C.ar    1  UNL1       -0.0342
      6 C           4.1131   -0.4493   -1.2064 C.ar    1  UNL1       -0.0180
      7 C           4.6130   -0.9857   -0.0419 C.ar    1  UNL1        0.1250
      8 O           5.9315   -1.2201    0.2225 O.3     1  UNL1       -0.4744
      9 C           6.7926   -0.3422    0.8742 C.3     1  UNL1        0.2061
     10 C           7.0529    0.9894    0.3138 C.2     1  UNL1        0.3490
     11 O           7.8403    1.7703    0.9275 O.2     1  UNL1       -0.2465
     12 O           6.4920    1.4405   -0.8400 O.3     1  UNL1       -0.4778
     13 C           7.9786   -1.0599    1.5195 C.3     1  UNL1        0.0019
     14 C           6.9385   -0.4317    2.3630 C.3     1  UNL1        0.0019
     15 C           3.6757   -1.3132    0.9526 C.ar    1  UNL1        0.0172
     16 C           2.3418   -1.0913    0.7300 C.ar    1  UNL1        0.1479
     17 F           1.4827   -1.4342    1.7434 F       1  UNL1       -0.2034
     18 C          -1.7780    0.2606   -1.5296 C.3     1  UNL1        0.1154
     19 C          -2.0126    1.3968   -0.6086 C.3     1  UNL1       -0.0116
     20 C          -1.3394    2.6638   -1.2412 C.3     1  UNL1       -0.0479
     21 C          -1.6043    3.8136   -0.3218 C.3     1  UNL1       -0.0527
     22 C          -3.0399    4.2545   -0.6134 C.3     1  UNL1       -0.0530
     23 C          -3.8494    3.0689   -1.0970 C.3     1  UNL1       -0.0527
     24 C          -3.4495    1.7918   -0.4193 C.3     1  UNL1       -0.0479
     25 N          -2.2254   -1.0415   -1.1028 N.ar    1  UNL1       -0.3112
     26 C          -2.7899   -1.5165    0.0037 C.ar    1  UNL1        0.1425
     27 C          -3.2415   -0.8747    1.2240 C.ar    1  UNL1        0.0176
     28 C          -2.4351   -0.5055    2.2306 C.ar    1  UNL1       -0.0497
     29 C          -2.9743    0.0657    3.3978 C.ar    1  UNL1       -0.0427
     30 C          -4.3308    0.2516    3.5209 C.ar    1  UNL1        0.0410
     31 CL         -4.9941    0.9645    4.9795 Cl      1  UNL1       -0.0835
     32 C          -5.1711   -0.1194    2.5038 C.ar    1  UNL1       -0.0427
     33 C          -4.6202   -0.6675    1.3905 C.ar    1  UNL1       -0.0497
     34 N          -2.9641   -2.8853   -0.1776 N.ar    1  UNL1       -0.2274
     35 C          -2.5167   -3.2444   -1.3759 C.ar    1  UNL1        0.0926
     36 C          -2.4533   -4.4445   -2.0628 C.ar    1  UNL1        0.0039
     37 C          -1.9403   -4.5429   -3.3281 C.ar    1  UNL1        0.1605
     38 F          -1.8936   -5.7533   -3.9789 F       1  UNL1       -0.2024
     39 C          -1.4687   -3.4094   -3.9456 C.ar    1  UNL1        0.1605
     40 F          -0.9468   -3.4247   -5.1967 F       1  UNL1       -0.2024
     41 C          -1.5351   -2.2131   -3.2523 C.ar    1  UNL1        0.0021
     42 C          -2.0523   -2.1148   -1.9733 C.ar    1  UNL1        0.0727
     43 H          -0.1328   -0.6695    0.2720 H       1  UNL1        0.1549
     44 H           2.4564    0.1970   -2.3643 H       1  UNL1        0.0638
     45 H           4.7810   -0.1965   -2.0105 H       1  UNL1        0.0655
     46 H           6.1865    2.3991   -0.9595 H       1  UNL1        0.2952
     47 H           8.9451   -0.5612    1.3582 H       1  UNL1        0.0311
     48 H           7.9963   -2.1700    1.5268 H       1  UNL1        0.0311
     49 H           6.2150   -1.0928    2.8944 H       1  UNL1        0.0311
     50 H           7.2147    0.4621    2.9294 H       1  UNL1        0.0311
     51 H           4.0093   -1.7382    1.8877 H       1  UNL1        0.0683
     52 H          -2.1417    0.4376   -2.5653 H       1  UNL1        0.0627
     53 H          -1.4680    1.2726    0.3245 H       1  UNL1        0.0325
     54 H          -1.8881    2.8236   -2.1879 H       1  UNL1        0.0269
     55 H          -0.2798    2.4626   -1.4325 H       1  UNL1        0.0269
     56 H          -0.9039    4.6354   -0.5485 H       1  UNL1        0.0265
     57 H          -1.5506    3.5218    0.7560 H       1  UNL1        0.0265
     58 H          -3.4578    4.7351    0.2715 H       1  UNL1        0.0265
     59 H          -2.9758    4.9714   -1.4575 H       1  UNL1        0.0265
     60 H          -3.9079    2.9653   -2.1781 H       1  UNL1        0.0265
     61 H          -4.9051    3.2739   -0.7499 H       1  UNL1        0.0265
     62 H          -3.6604    1.9370    0.6705 H       1  UNL1        0.0269
     63 H          -4.0666    0.9917   -0.8770 H       1  UNL1        0.0269
     64 H          -1.3661   -0.6419    2.1807 H       1  UNL1        0.0625
     65 H          -2.3446    0.3628    4.2028 H       1  UNL1        0.0632
     66 H          -6.2553    0.0188    2.5791 H       1  UNL1        0.0632
     67 H          -5.2641   -0.9672    0.5765 H       1  UNL1        0.0625
     68 H          -2.8261   -5.3217   -1.5671 H       1  UNL1        0.0669
     69 H          -1.1686   -1.3093   -3.7672 H       1  UNL1        0.0668
@<TRIPOS>BOND
     1     1     2    2
     2     2     3   am
     3     3     4    1
     4     4     5   ar
     5     5     6   ar
     6     6     7   ar
     7     7     8    1
     8     8     9    1
     9     9    10    1
    10    10    11    2
    11    10    12    1
    12     9    13    1
    13    13    14    1
    14     7    15   ar
    15    15    16   ar
    16    16    17    1
    17     2    18    1
    18    18    19    1
    19    19    20    1
    20    20    21    1
    21    21    22    1
    22    22    23    1
    23    23    24    1
    24    18    25    1
    25    25    26   ar
    26    26    27    1
    27    27    28   ar
    28    28    29   ar
    29    29    30   ar
    30    30    31    1
    31    30    32   ar
    32    32    33   ar
    33    26    34   ar
    34    34    35   ar
    35    35    36   ar
    36    36    37   ar
    37    37    38    1
    38    37    39   ar
    39    39    40    1
    40    39    41   ar
    41    41    42   ar
    42    16     4   ar
    43    24    19    1
    44    42    25   ar
    45    14     9    1
    46    33    27   ar
    47    42    35   ar
    48     3    43    1
    49     5    44    1
    50     6    45    1
    51    12    46    1
    52    13    47    1
    53    13    48    1
    54    14    49    1
    55    14    50    1
    56    15    51    1
    57    18    52    1
    58    19    53    1
    59    20    54    1
    60    20    55    1
    61    21    56    1
    62    21    57    1
    63    22    58    1
    64    22    59    1
    65    23    60    1
    66    23    61    1
    67    24    62    1
    68    24    63    1
    69    28    64    1
    70    29    65    1
    71    32    66    1
    72    33    67    1
    73    36    68    1
    74    41    69    1
