@<TRIPOS>MOLECULE
*****
 61 65 0 0 0
SMALL
GASTEIGER

@<TRIPOS>ATOM
      1 C           4.6599   -0.5948    1.5980 C.3     1  UNL1       -0.0390
      2 C           4.9955   -0.7264    0.1654 C.ar    1  UNL1       -0.0376
      3 C           3.9870   -0.6426   -0.7695 C.ar    1  UNL1       -0.0146
      4 C           2.6022   -0.4138   -0.3217 C.3     1  UNL1        0.0931
      5 O           2.3012   -0.9941    0.8945 O.3     1  UNL1       -0.3859
      6 C           2.2119    1.0615   -0.3246 C.3     1  UNL1        0.0291
      7 N           0.8045    1.1529   -0.0947 N.3     1  UNL1       -0.2995
      8 C           0.3763    0.7672    1.2136 C.3     1  UNL1       -0.0001
      9 C          -0.9369    1.4599    1.5889 C.3     1  UNL1       -0.0261
     10 C          -1.8001    1.3651    0.3489 C.3     1  UNL1        0.0513
     11 C          -1.2460    2.2371   -0.7449 C.3     1  UNL1       -0.0261
     12 C           0.2425    2.4142   -0.5424 C.3     1  UNL1       -0.0001
     13 C          -1.8172   -0.0585   -0.1922 C.3     1  UNL1       -0.0226
     14 C          -3.1412   -0.0495   -0.9570 C.3     1  UNL1        0.0221
     15 N          -4.0181    0.5571    0.0259 N.am    1  UNL1       -0.2543
     16 C          -5.3621    0.1767    0.3109 C.ar    1  UNL1        0.1482
     17 C          -6.1330    0.7895    1.2503 C.ar    1  UNL1       -0.0144
     18 C          -7.4227    0.3590    1.4620 C.ar    1  UNL1        0.0076
     19 C          -7.9120   -0.6956    0.7098 C.ar    1  UNL1        0.2671
     20 O          -9.1009   -1.0780    0.9189 O.2     1  UNL1       -0.2662
     21 N          -7.1300   -1.2823   -0.2101 N.ar    1  UNL1       -0.2309
     22 C          -7.6804   -2.3792   -0.9734 C.3     1  UNL1        0.0340
     23 N          -5.8992   -0.8409   -0.3838 N.ar    1  UNL1       -0.1530
     24 C          -3.2390    1.5925    0.6209 C.2     1  UNL1        0.2272
     25 O          -3.7022    2.5602    1.2816 O.2     1  UNL1       -0.2746
     26 C           4.3205   -0.7758   -2.1203 C.ar    1  UNL1       -0.0550
     27 C           5.6308   -0.9852   -2.4956 C.ar    1  UNL1       -0.0470
     28 C           6.6352   -1.0680   -1.5528 C.ar    1  UNL1        0.0656
     29 C           6.3133   -0.9377   -0.2197 C.ar    1  UNL1        0.0069
     30 C           7.5656   -1.0644    0.5687 C.3     1  UNL1        0.1189
     31 O           8.5954   -1.2687   -0.3765 O.3     1  UNL1       -0.4564
     32 C           8.0940   -1.2805   -1.6696 C.2     1  UNL1        0.3399
     33 O           8.7487   -1.4413   -2.7471 O.2     1  UNL1       -0.2449
     34 H           4.2939   -1.5594    2.0316 H       1  UNL1        0.0278
     35 H           5.6291   -0.3984    2.1431 H       1  UNL1        0.0278
     36 H           4.0214    0.2516    1.8551 H       1  UNL1        0.0278
     37 H           1.9563   -0.9605   -1.0728 H       1  UNL1        0.0656
     38 H           2.2438   -1.9795    0.8544 H       1  UNL1        0.2103
     39 H           2.8232    1.6594    0.3514 H       1  UNL1        0.0455
     40 H           2.3960    1.4829   -1.3500 H       1  UNL1        0.0455
     41 H           0.0884   -0.3246    1.1533 H       1  UNL1        0.0427
     42 H           1.1331    0.8488    2.0029 H       1  UNL1        0.0427
     43 H          -1.4012    0.8516    2.3794 H       1  UNL1        0.0288
     44 H          -0.7981    2.5139    1.8240 H       1  UNL1        0.0288
     45 H          -1.3893    1.7960   -1.7536 H       1  UNL1        0.0288
     46 H          -1.7613    3.2096   -0.7363 H       1  UNL1        0.0288
     47 H           0.6870    2.6287   -1.5355 H       1  UNL1        0.0427
     48 H           0.4570    3.2462    0.1510 H       1  UNL1        0.0427
     49 H          -1.9236   -0.7949    0.6137 H       1  UNL1        0.0290
     50 H          -0.9595   -0.2704   -0.8368 H       1  UNL1        0.0290
     51 H          -3.0707    0.5941   -1.8647 H       1  UNL1        0.0469
     52 H          -3.4523   -1.0908   -1.2156 H       1  UNL1        0.0469
     53 H          -5.7543    1.6010    1.8267 H       1  UNL1        0.0654
     54 H          -8.0751    0.8225    2.2038 H       1  UNL1        0.0673
     55 H          -7.6405   -3.3424   -0.3951 H       1  UNL1        0.0474
     56 H          -7.0231   -2.5721   -1.8652 H       1  UNL1        0.0474
     57 H          -8.6897   -2.1748   -1.3612 H       1  UNL1        0.0474
     58 H           3.5136   -0.7081   -2.8513 H       1  UNL1        0.0621
     59 H           5.8530   -1.0829   -3.5407 H       1  UNL1        0.0626
     60 H           7.5150   -1.9921    1.2112 H       1  UNL1        0.0749
     61 H           7.7848   -0.1710    1.1750 H       1  UNL1        0.0749
@<TRIPOS>BOND
     1     1     2    1
     2     2     3   ar
     3     3     4    1
     4     4     5    1
     5     4     6    1
     6     6     7    1
     7     7     8    1
     8     8     9    1
     9     9    10    1
    10    10    11    1
    11    11    12    1
    12    10    13    1
    13    13    14    1
    14    14    15    1
    15    15    16    1
    16    16    17   ar
    17    17    18   ar
    18    18    19   ar
    19    19    20    2
    20    19    21   ar
    21    21    22    1
    22    21    23   ar
    23    15    24   am
    24    24    25    2
    25     3    26   ar
    26    26    27   ar
    27    27    28   ar
    28    28    29   ar
    29    29    30    1
    30    30    31    1
    31    31    32    1
    32    32    33    2
    33    29     2   ar
    34    12     7    1
    35    23    16   ar
    36    32    28    1
    37    24    10    1
    38     1    34    1
    39     1    35    1
    40     1    36    1
    41     4    37    1
    42     5    38    1
    43     6    39    1
    44     6    40    1
    45     8    41    1
    46     8    42    1
    47     9    43    1
    48     9    44    1
    49    11    45    1
    50    11    46    1
    51    12    47    1
    52    12    48    1
    53    13    49    1
    54    13    50    1
    55    14    51    1
    56    14    52    1
    57    17    53    1
    58    18    54    1
    59    22    55    1
    60    22    56    1
    61    22    57    1
    62    26    58    1
    63    27    59    1
    64    30    60    1
    65    30    61    1
