
     RDKit          3D

 61 65  0  0  0  0  0  0  0  0999 V2000
    4.6599   -0.5948    1.5980 C   0  0  0  0  0  0  0  0  0  0  0  0
    4.9955   -0.7264    0.1654 C   0  0  0  0  0  0  0  0  0  0  0  0
    3.9870   -0.6426   -0.7695 C   0  0  0  0  0  0  0  0  0  0  0  0
    2.6022   -0.4138   -0.3217 C   0  0  1  0  0  0  0  0  0  0  0  0
    2.3012   -0.9941    0.8945 O   0  0  0  0  0  0  0  0  0  0  0  0
    2.2119    1.0615   -0.3246 C   0  0  0  0  0  0  0  0  0  0  0  0
    0.8045    1.1529   -0.0947 N   0  0  0  0  0  0  0  0  0  0  0  0
    0.3763    0.7672    1.2136 C   0  0  0  0  0  0  0  0  0  0  0  0
   -0.9369    1.4599    1.5889 C   0  0  0  0  0  0  0  0  0  0  0  0
   -1.8001    1.3651    0.3489 C   0  0  0  0  0  0  0  0  0  0  0  0
   -1.2460    2.2371   -0.7449 C   0  0  0  0  0  0  0  0  0  0  0  0
    0.2425    2.4142   -0.5424 C   0  0  0  0  0  0  0  0  0  0  0  0
   -1.8172   -0.0585   -0.1922 C   0  0  0  0  0  0  0  0  0  0  0  0
   -3.1412   -0.0495   -0.9570 C   0  0  0  0  0  0  0  0  0  0  0  0
   -4.0181    0.5571    0.0259 N   0  0  0  0  0  0  0  0  0  0  0  0
   -5.3621    0.1767    0.3109 C   0  0  0  0  0  0  0  0  0  0  0  0
   -6.1330    0.7895    1.2503 C   0  0  0  0  0  0  0  0  0  0  0  0
   -7.4227    0.3590    1.4620 C   0  0  0  0  0  0  0  0  0  0  0  0
   -7.9120   -0.6956    0.7098 C   0  0  0  0  0  0  0  0  0  0  0  0
   -9.1009   -1.0780    0.9189 O   0  0  0  0  0  0  0  0  0  0  0  0
   -7.1300   -1.2823   -0.2101 N   0  0  0  0  0  0  0  0  0  0  0  0
   -7.6804   -2.3792   -0.9734 C   0  0  0  0  0  0  0  0  0  0  0  0
   -5.8992   -0.8409   -0.3838 N   0  0  0  0  0  0  0  0  0  0  0  0
   -3.2390    1.5925    0.6209 C   0  0  0  0  0  0  0  0  0  0  0  0
   -3.7022    2.5602    1.2816 O   0  0  0  0  0  0  0  0  0  0  0  0
    4.3205   -0.7758   -2.1203 C   0  0  0  0  0  0  0  0  0  0  0  0
    5.6308   -0.9852   -2.4956 C   0  0  0  0  0  0  0  0  0  0  0  0
    6.6352   -1.0680   -1.5528 C   0  0  0  0  0  0  0  0  0  0  0  0
    6.3133   -0.9377   -0.2197 C   0  0  0  0  0  0  0  0  0  0  0  0
    7.5656   -1.0644    0.5687 C   0  0  0  0  0  0  0  0  0  0  0  0
    8.5954   -1.2687   -0.3765 O   0  0  0  0  0  0  0  0  0  0  0  0
    8.0940   -1.2805   -1.6696 C   0  0  0  0  0  0  0  0  0  0  0  0
    8.7487   -1.4413   -2.7471 O   0  0  0  0  0  0  0  0  0  0  0  0
    4.2939   -1.5594    2.0316 H   0  0  0  0  0  0  0  0  0  0  0  0
    5.6291   -0.3984    2.1431 H   0  0  0  0  0  0  0  0  0  0  0  0
    4.0214    0.2516    1.8551 H   0  0  0  0  0  0  0  0  0  0  0  0
    1.9563   -0.9605   -1.0728 H   0  0  0  0  0  0  0  0  0  0  0  0
    2.2438   -1.9795    0.8544 H   0  0  0  0  0  0  0  0  0  0  0  0
    2.8232    1.6594    0.3514 H   0  0  0  0  0  0  0  0  0  0  0  0
    2.3960    1.4829   -1.3500 H   0  0  0  0  0  0  0  0  0  0  0  0
    0.0884   -0.3246    1.1533 H   0  0  0  0  0  0  0  0  0  0  0  0
    1.1331    0.8488    2.0029 H   0  0  0  0  0  0  0  0  0  0  0  0
   -1.4012    0.8516    2.3794 H   0  0  0  0  0  0  0  0  0  0  0  0
   -0.7981    2.5139    1.8240 H   0  0  0  0  0  0  0  0  0  0  0  0
   -1.3893    1.7960   -1.7536 H   0  0  0  0  0  0  0  0  0  0  0  0
   -1.7613    3.2096   -0.7363 H   0  0  0  0  0  0  0  0  0  0  0  0
    0.6870    2.6287   -1.5355 H   0  0  0  0  0  0  0  0  0  0  0  0
    0.4570    3.2462    0.1510 H   0  0  0  0  0  0  0  0  0  0  0  0
   -1.9236   -0.7949    0.6137 H   0  0  0  0  0  0  0  0  0  0  0  0
   -0.9595   -0.2704   -0.8368 H   0  0  0  0  0  0  0  0  0  0  0  0
   -3.0707    0.5941   -1.8647 H   0  0  0  0  0  0  0  0  0  0  0  0
   -3.4523   -1.0908   -1.2156 H   0  0  0  0  0  0  0  0  0  0  0  0
   -5.7543    1.6010    1.8267 H   0  0  0  0  0  0  0  0  0  0  0  0
   -8.0751    0.8225    2.2038 H   0  0  0  0  0  0  0  0  0  0  0  0
   -7.6405   -3.3424   -0.3951 H   0  0  0  0  0  0  0  0  0  0  0  0
   -7.0231   -2.5721   -1.8652 H   0  0  0  0  0  0  0  0  0  0  0  0
   -8.6897   -2.1748   -1.3612 H   0  0  0  0  0  0  0  0  0  0  0  0
    3.5136   -0.7081   -2.8513 H   0  0  0  0  0  0  0  0  0  0  0  0
    5.8530   -1.0829   -3.5407 H   0  0  0  0  0  0  0  0  0  0  0  0
    7.5150   -1.9921    1.2112 H   0  0  0  0  0  0  0  0  0  0  0  0
    7.7848   -0.1710    1.1750 H   0  0  0  0  0  0  0  0  0  0  0  0
  1  2  1  0
  2  3  2  0
  3  4  1  0
  4  5  1  0
  4  6  1  0
  6  7  1  0
  7  8  1  0
  8  9  1  0
  9 10  1  0
 10 11  1  0
 11 12  1  0
 10 13  1  0
 13 14  1  0
 14 15  1  0
 15 16  1  0
 16 17  1  0
 17 18  2  0
 18 19  1  0
 19 20  2  0
 19 21  1  0
 21 22  1  0
 21 23  1  0
 15 24  1  0
 24 25  2  0
  3 26  1  0
 26 27  2  0
 27 28  1  0
 28 29  2  0
 29 30  1  0
 30 31  1  0
 31 32  1  0
 32 33  2  0
 29  2  1  0
 12  7  1  0
 23 16  2  0
 32 28  1  0
 24 10  1  0
  1 34  1  0
  1 35  1  0
  1 36  1  0
  4 37  1  6
  5 38  1  0
  6 39  1  0
  6 40  1  0
  8 41  1  0
  8 42  1  0
  9 43  1  0
  9 44  1  0
 11 45  1  0
 11 46  1  0
 12 47  1  0
 12 48  1  0
 13 49  1  0
 13 50  1  0
 14 51  1  0
 14 52  1  0
 17 53  1  0
 18 54  1  0
 22 55  1  0
 22 56  1  0
 22 57  1  0
 26 58  1  0
 27 59  1  0
 30 60  1  0
 30 61  1  0
M  END
$$$$
