@<TRIPOS>MOLECULE
*****
 59 61 0 0 0
SMALL
GASTEIGER

@<TRIPOS>ATOM
      1 C          -4.7544   -2.7704   -1.3383 C.3     1  UNL1       -0.0307
      2 C          -3.6881   -2.7607   -0.2773 C.3     1  UNL1        0.0868
      3 O          -3.3276   -1.4860    0.1018 O.3     1  UNL1       -0.4914
      4 C          -4.1621   -0.5884    0.6781 C.ar    1  UNL1        0.1347
      5 C          -5.4505   -0.9545    0.9256 C.ar    1  UNL1        0.0081
      6 C          -6.3069   -0.0615    1.5085 C.ar    1  UNL1        0.1063
      7 N          -7.6555   -0.3038    1.8182 N.pl3   1  UNL1       -0.3526
      8 C          -5.7643    1.1660    1.8001 C.ar    1  UNL1        0.2945
      9 C          -4.4698    1.5726    1.5654 C.ar    1  UNL1        0.0331
     10 C          -3.6053    0.6345    0.9639 C.ar    1  UNL1        0.0848
     11 C          -2.2589    1.1240    0.7385 C.2     1  UNL1        0.2480
     12 O          -1.9034    2.2642    1.0564 O.2     1  UNL1       -0.2701
     13 N          -1.2038    0.4116    0.1527 N.am    1  UNL1       -0.3083
     14 C           0.1706    0.8621   -0.0968 C.3     1  UNL1        0.0257
     15 C           0.4359    1.0318   -1.5474 C.3     1  UNL1       -0.0216
     16 C           1.5594    0.2544   -2.0992 C.3     1  UNL1        0.0006
     17 N           2.5877   -0.1817   -1.2292 N.3     1  UNL1       -0.3019
     18 C           3.6556    0.7080   -1.1147 C.3     1  UNL1        0.0020
     19 C           4.7932    0.3218   -0.2338 C.3     1  UNL1       -0.0245
     20 C           5.4518   -0.9619   -0.6892 C.3     1  UNL1       -0.0453
     21 C           6.8678   -0.7375   -1.2020 C.3     1  UNL1       -0.0345
     22 C           7.6133   -0.1276   -0.0677 C.2     1  UNL1       -0.0879
     23 C           7.0866    0.9995    0.4268 C.2     1  UNL1       -0.0876
     24 C           5.8306    1.4334   -0.2694 C.3     1  UNL1       -0.0307
     25 C           2.0180   -0.7918   -0.0905 C.3     1  UNL1        0.0006
     26 C           1.1716    0.1587    0.7158 C.3     1  UNL1       -0.0216
     27 N          -6.5836    2.1432    2.4050 N.pl3   1  UNL1        0.0815
     28 O          -7.3623    3.0628    2.9799 O.co2   1  UNL1       -0.5760
     29 O          -6.4297    3.3777    2.3023 O.2     1  UNL1        0.0415
     30 H          -5.5720   -3.4314   -1.0617 H       1  UNL1        0.0262
     31 H          -5.1259   -1.7520   -1.5181 H       1  UNL1        0.0262
     32 H          -4.3327   -3.1669   -2.3088 H       1  UNL1        0.0262
     33 H          -2.7777   -3.3290   -0.5990 H       1  UNL1        0.0694
     34 H          -4.0411   -3.3107    0.6354 H       1  UNL1        0.0694
     35 H          -5.8797   -1.9191    0.7098 H       1  UNL1        0.0675
     36 H          -7.8370   -0.7742    2.7569 H       1  UNL1        0.1425
     37 H          -7.6264   -0.7660    2.7631 H       1  UNL1        0.1425
     38 H          -4.1249    2.5644    1.8289 H       1  UNL1        0.0695
     39 H          -1.3336   -0.5656   -0.1722 H       1  UNL1        0.1493
     40 H           0.1279    1.9293    0.3306 H       1  UNL1        0.0499
     41 H          -0.5108    0.9022   -2.1599 H       1  UNL1        0.0295
     42 H           0.6715    2.1272   -1.7380 H       1  UNL1        0.0295
     43 H           2.0666    0.8882   -2.8958 H       1  UNL1        0.0427
     44 H           1.1640   -0.6187   -2.6972 H       1  UNL1        0.0427
     45 H           4.1025    0.8231   -2.1450 H       1  UNL1        0.0429
     46 H           3.2884    1.7200   -0.8434 H       1  UNL1        0.0429
     47 H           4.5359    0.2091    0.8317 H       1  UNL1        0.0316
     48 H           4.9044   -1.4735   -1.5039 H       1  UNL1        0.0271
     49 H           5.5527   -1.6815    0.1676 H       1  UNL1        0.0271
     50 H           6.8640   -0.0833   -2.0800 H       1  UNL1        0.0307
     51 H           7.2651   -1.7387   -1.4684 H       1  UNL1        0.0307
     52 H           8.5146   -0.5146    0.3690 H       1  UNL1        0.0569
     53 H           7.6117    1.4720    1.2621 H       1  UNL1        0.0569
     54 H           6.1280    1.6571   -1.3207 H       1  UNL1        0.0310
     55 H           5.4018    2.3612    0.1689 H       1  UNL1        0.0310
     56 H           2.6940   -1.3986    0.5170 H       1  UNL1        0.0427
     57 H           1.2881   -1.5493   -0.5093 H       1  UNL1        0.0427
     58 H           1.9124    0.8737    1.1903 H       1  UNL1        0.0295
     59 H           0.7526   -0.3685    1.6063 H       1  UNL1        0.0295
@<TRIPOS>UNITY_ATOM_ATTR
27 1
charge 1
28 1
charge -1
@<TRIPOS>BOND
     1     1     2    1
     2     2     3    1
     3     3     4    1
     4     4     5   ar
     5     5     6   ar
     6     6     7    1
     7     6     8   ar
     8     8     9   ar
     9     9    10   ar
    10    10    11    1
    11    11    12    2
    12    11    13   am
    13    13    14    1
    14    14    15    1
    15    15    16    1
    16    16    17    1
    17    17    18    1
    18    18    19    1
    19    19    20    1
    20    20    21    1
    21    21    22    1
    22    22    23    2
    23    23    24    1
    24    17    25    1
    25    25    26    1
    26     8    27    1
    27    27    28    1
    28    27    29    2
    29    10     4   ar
    30    26    14    1
    31    24    19    1
    32     1    30    1
    33     1    31    1
    34     1    32    1
    35     2    33    1
    36     2    34    1
    37     5    35    1
    38     7    36    1
    39     7    37    1
    40     9    38    1
    41    13    39    1
    42    14    40    1
    43    15    41    1
    44    15    42    1
    45    16    43    1
    46    16    44    1
    47    18    45    1
    48    18    46    1
    49    19    47    1
    50    20    48    1
    51    20    49    1
    52    21    50    1
    53    21    51    1
    54    22    52    1
    55    23    53    1
    56    24    54    1
    57    24    55    1
    58    25    56    1
    59    25    57    1
    60    26    58    1
    61    26    59    1
