@<TRIPOS>MOLECULE
*****
 57 62 0 0 0
SMALL
GASTEIGER

@<TRIPOS>ATOM
      1 C           3.2554    1.6532   -3.2182 C.3     1  UNL1       -0.0376
      2 C           2.8126    0.8475   -2.0567 C.ar    1  UNL1       -0.0205
      3 C           3.5080    0.0398   -1.2142 C.ar    1  UNL1        0.0090
      4 N           2.6913   -0.5136   -0.2651 N.ar    1  UNL1       -0.3423
      5 C           3.1940   -1.4093    0.6978 C.3     1  UNL1        0.0597
      6 C           2.4791   -1.6803    1.9500 C.3     1  UNL1        0.0207
      7 N           3.8052   -1.9834    2.5395 N.3     1  UNL1       -0.3013
      8 C           4.2213   -3.3171    2.1464 C.3     1  UNL1       -0.0126
      9 C           4.3019   -0.9426    1.6181 C.3     1  UNL1        0.0207
     10 C           1.4735   -0.0312   -0.5295 C.ar    1  UNL1        0.0571
     11 C           1.4838    0.7950   -1.6132 C.ar    1  UNL1        0.0630
     12 C           0.1099    1.1581   -1.9871 C.2     1  UNL1        0.2548
     13 O          -0.2287    1.9114   -2.9135 O.2     1  UNL1       -0.2695
     14 N          -0.7057    0.4629   -1.0641 N.am    1  UNL1       -0.2388
     15 C          -2.1132    0.1725   -1.1980 C.ar    1  UNL1        0.1313
     16 C          -2.8589    0.6992   -2.2249 C.ar    1  UNL1       -0.0161
     17 C          -4.1950    0.3517   -2.3280 C.ar    1  UNL1       -0.0164
     18 C          -5.0431    0.9045   -3.4337 C.3     1  UNL1       -0.0374
     19 C          -4.7743   -0.5084   -1.4186 C.ar    1  UNL1        0.1345
     20 N          -6.0065   -1.0338   -1.2381 N.ar    1  UNL1       -0.1276
     21 N          -5.9769   -1.8198   -0.1683 N.ar    1  UNL1       -0.0635
     22 N          -4.7626   -1.8286    0.3620 N.ar    1  UNL1       -0.2297
     23 C          -4.3269   -2.5585    1.5298 C.3     1  UNL1        0.0341
     24 C          -4.0069   -1.0148   -0.4098 C.ar    1  UNL1        0.1803
     25 N          -2.7336   -0.6680   -0.3326 N.ar    1  UNL1       -0.2108
     26 C           0.1058    0.0495    0.0349 C.3     1  UNL1        0.0986
     27 C           0.0617    1.2196    1.0157 C.ar    1  UNL1       -0.0207
     28 C           1.2401    1.6696    1.5717 C.ar    1  UNL1       -0.0550
     29 C           1.2469    2.7370    2.4698 C.ar    1  UNL1       -0.0431
     30 C           0.0738    3.3537    2.8107 C.ar    1  UNL1        0.0410
     31 CL          0.0879    4.6987    3.9434 Cl      1  UNL1       -0.0835
     32 C          -1.0959    2.9310    2.2784 C.ar    1  UNL1       -0.0431
     33 C          -1.0888    1.8602    1.3795 C.ar    1  UNL1       -0.0550
     34 H           4.2712    1.2910   -3.5191 H       1  UNL1        0.0278
     35 H           3.2812    2.7508   -2.9728 H       1  UNL1        0.0278
     36 H           2.5905    1.4750   -4.0734 H       1  UNL1        0.0278
     37 H           4.5801   -0.1251   -1.3096 H       1  UNL1        0.0812
     38 H           3.5489   -2.4027    0.2678 H       1  UNL1        0.0553
     39 H           2.0557   -0.8890    2.5591 H       1  UNL1        0.0447
     40 H           1.8952   -2.6350    2.0037 H       1  UNL1        0.0447
     41 H           3.3771   -3.8797    1.6642 H       1  UNL1        0.0391
     42 H           5.1062   -3.2969    1.4791 H       1  UNL1        0.0391
     43 H           4.4215   -3.8728    3.0999 H       1  UNL1        0.0391
     44 H           4.1060    0.0311    2.0668 H       1  UNL1        0.0447
     45 H           5.3264   -1.1412    1.2493 H       1  UNL1        0.0447
     46 H          -2.4609    1.3682   -2.9542 H       1  UNL1        0.0655
     47 H          -5.5461    1.8034   -3.0180 H       1  UNL1        0.0278
     48 H          -5.7755    0.1086   -3.6983 H       1  UNL1        0.0278
     49 H          -4.4067    1.1264   -4.3002 H       1  UNL1        0.0278
     50 H          -4.6947   -2.0903    2.4787 H       1  UNL1        0.0474
     51 H          -3.2064   -2.5965    1.5268 H       1  UNL1        0.0474
     52 H          -4.6973   -3.6044    1.5048 H       1  UNL1        0.0474
     53 H          -0.2450   -0.8131    0.5673 H       1  UNL1        0.0620
     54 H           2.1665    1.1841    1.2972 H       1  UNL1        0.0621
     55 H           2.1592    3.0794    2.8956 H       1  UNL1        0.0632
     56 H          -2.0581    3.3884    2.5172 H       1  UNL1        0.0632
     57 H          -2.0305    1.5348    0.9551 H       1  UNL1        0.0621
@<TRIPOS>BOND
     1     1     2    1
     2     2     3   ar
     3     3     4   ar
     4     4     5    1
     5     5     6    1
     6     6     7    1
     7     7     8    1
     8     7     9    1
     9     4    10   ar
    10    10    11   ar
    11    11    12    1
    12    12    13    2
    13    12    14   am
    14    14    15    1
    15    15    16   ar
    16    16    17   ar
    17    17    18    1
    18    17    19   ar
    19    19    20   ar
    20    20    21   ar
    21    21    22   ar
    22    22    23    1
    23    22    24   ar
    24    24    25   ar
    25    14    26    1
    26    26    27    1
    27    27    28   ar
    28    28    29   ar
    29    29    30   ar
    30    30    31    1
    31    30    32   ar
    32    32    33   ar
    33    11     2   ar
    34    25    15   ar
    35    33    27   ar
    36     9     5    1
    37    26    10    1
    38    24    19   ar
    39     1    34    1
    40     1    35    1
    41     1    36    1
    42     3    37    1
    43     5    38    1
    44     6    39    1
    45     6    40    1
    46     8    41    1
    47     8    42    1
    48     8    43    1
    49     9    44    1
    50     9    45    1
    51    16    46    1
    52    18    47    1
    53    18    48    1
    54    18    49    1
    55    23    50    1
    56    23    51    1
    57    23    52    1
    58    26    53    1
    59    28    54    1
    60    29    55    1
    61    32    56    1
    62    33    57    1
