
     RDKit          3D

 72 75  0  0  0  0  0  0  0  0999 V2000
    9.7725   -0.1682    1.3727 C   0  0  0  0  0  0  0  0  0  0  0  0
    8.9150    1.0437    1.0750 C   0  0  0  0  0  0  0  0  0  0  0  0
    8.8503    1.9900    2.2526 C   0  0  0  0  0  0  0  0  0  0  0  0
    7.5398    0.6410    0.7795 N   0  0  0  0  0  0  0  0  0  0  0  0
    6.8663    1.2079   -0.2372 C   0  0  0  0  0  0  0  0  0  0  0  0
    5.5747    0.8400   -0.5303 C   0  0  0  0  0  0  0  0  0  0  0  0
    4.9225   -0.1222    0.2059 C   0  0  0  0  0  0  0  0  0  0  0  0
    3.5420   -0.5236   -0.1041 C   0  0  0  0  0  0  0  0  0  0  0  0
    3.1205   -1.8115    0.1401 C   0  0  0  0  0  0  0  0  0  0  0  0
    1.8297   -2.1961   -0.1533 C   0  0  0  0  0  0  0  0  0  0  0  0
    0.8847   -1.3213   -0.7063 C   0  0  0  0  0  0  0  0  0  0  0  0
   -0.4881   -1.8274   -0.9973 C   0  0  2  0  0  0  0  0  0  0  0  0
   -0.5403   -2.3142   -2.4080 C   0  0  0  0  0  0  0  0  0  0  0  0
   -1.5537   -0.9544   -0.6244 N   0  0  0  0  0  0  0  0  0  0  0  0
   -1.8658    0.2824   -1.2985 C   0  0  0  0  0  0  0  0  0  0  0  0
   -3.3657    0.4498   -1.5543 C   0  0  0  0  0  0  0  0  0  0  0  0
   -4.2074    0.2045   -0.3296 C   0  0  2  0  0  0  0  0  0  0  0  0
   -5.3110   -0.7289   -0.6824 C   0  0  0  0  0  0  0  0  0  0  0  0
   -6.2466   -1.1004    0.4100 C   0  0  0  0  0  0  0  0  0  0  0  0
   -7.2826   -2.0567   -0.1890 C   0  0  0  0  0  0  0  0  0  0  0  0
   -5.5926   -1.8455    1.5458 C   0  0  0  0  0  0  0  0  0  0  0  0
   -6.9267   -0.0058    0.8896 O   0  0  0  0  0  0  0  0  0  0  0  0
   -4.6894    1.5655    0.1068 C   0  0  0  0  0  0  0  0  0  0  0  0
   -5.8105    2.1341   -0.4430 C   0  0  0  0  0  0  0  0  0  0  0  0
   -6.2111    3.3727   -0.0011 C   0  0  0  0  0  0  0  0  0  0  0  0
   -5.5136    4.0494    0.9749 C   0  0  0  0  0  0  0  0  0  0  0  0
   -4.3786    3.4447    1.5130 C   0  0  0  0  0  0  0  0  0  0  0  0
   -3.9683    2.2100    1.0819 C   0  0  0  0  0  0  0  0  0  0  0  0
   -3.4095   -0.3332    0.7364 O   0  0  0  0  0  0  0  0  0  0  0  0
   -2.4378   -1.2957    0.4690 C   0  0  0  0  0  0  0  0  0  0  0  0
   -2.2885   -2.3640    1.0706 O   0  0  0  0  0  0  0  0  0  0  0  0
    1.3204   -0.0447   -0.9423 C   0  0  0  0  0  0  0  0  0  0  0  0
    2.6338    0.3522   -0.6452 C   0  0  0  0  0  0  0  0  0  0  0  0
    5.6198   -0.7014    1.2505 C   0  0  0  0  0  0  0  0  0  0  0  0
    6.9138   -0.2958    1.5021 C   0  0  0  0  0  0  0  0  0  0  0  0
    7.5755   -0.8063    2.4485 O   0  0  0  0  0  0  0  0  0  0  0  0
    9.3510   -1.0498    0.8450 H   0  0  0  0  0  0  0  0  0  0  0  0
   10.7691    0.0091    0.9209 H   0  0  0  0  0  0  0  0  0  0  0  0
    9.8962   -0.3296    2.4441 H   0  0  0  0  0  0  0  0  0  0  0  0
    9.2833    1.6225    0.1933 H   0  0  0  0  0  0  0  0  0  0  0  0
    9.7379    2.6496    2.3204 H   0  0  0  0  0  0  0  0  0  0  0  0
    7.9644    2.6574    2.1077 H   0  0  0  0  0  0  0  0  0  0  0  0
    8.6589    1.4431    3.1991 H   0  0  0  0  0  0  0  0  0  0  0  0
    7.3904    1.9773   -0.8248 H   0  0  0  0  0  0  0  0  0  0  0  0
    5.0740    1.3152   -1.3479 H   0  0  0  0  0  0  0  0  0  0  0  0
    3.8445   -2.5077    0.5714 H   0  0  0  0  0  0  0  0  0  0  0  0
    1.5095   -3.2132    0.0436 H   0  0  0  0  0  0  0  0  0  0  0  0
   -0.5776   -2.7513   -0.3293 H   0  0  0  0  0  0  0  0  0  0  0  0
    0.1517   -1.6658   -3.0091 H   0  0  0  0  0  0  0  0  0  0  0  0
   -0.1409   -3.3523   -2.4553 H   0  0  0  0  0  0  0  0  0  0  0  0
   -1.5360   -2.3274   -2.8494 H   0  0  0  0  0  0  0  0  0  0  0  0
   -1.4188    0.3090   -2.3218 H   0  0  0  0  0  0  0  0  0  0  0  0
   -1.5846    1.1694   -0.6994 H   0  0  0  0  0  0  0  0  0  0  0  0
   -3.4592    1.5031   -1.9479 H   0  0  0  0  0  0  0  0  0  0  0  0
   -3.6858   -0.1999   -2.4174 H   0  0  0  0  0  0  0  0  0  0  0  0
   -5.8618   -0.3199   -1.5521 H   0  0  0  0  0  0  0  0  0  0  0  0
   -4.8138   -1.6562   -1.0914 H   0  0  0  0  0  0  0  0  0  0  0  0
   -7.3996   -1.8741   -1.2761 H   0  0  0  0  0  0  0  0  0  0  0  0
   -6.9266   -3.1240   -0.1012 H   0  0  0  0  0  0  0  0  0  0  0  0
   -8.2654   -1.9777    0.3204 H   0  0  0  0  0  0  0  0  0  0  0  0
   -6.4266   -2.2847    2.1525 H   0  0  0  0  0  0  0  0  0  0  0  0
   -5.0169   -1.2026    2.2212 H   0  0  0  0  0  0  0  0  0  0  0  0
   -5.0166   -2.7191    1.1625 H   0  0  0  0  0  0  0  0  0  0  0  0
   -7.7529    0.1163    0.3310 H   0  0  0  0  0  0  0  0  0  0  0  0
   -6.3735    1.6044   -1.2310 H   0  0  0  0  0  0  0  0  0  0  0  0
   -7.1000    3.8195   -0.4388 H   0  0  0  0  0  0  0  0  0  0  0  0
   -5.8540    5.0174    1.2984 H   0  0  0  0  0  0  0  0  0  0  0  0
   -3.8509    4.0137    2.2866 H   0  0  0  0  0  0  0  0  0  0  0  0
   -3.0778    1.7739    1.5267 H   0  0  0  0  0  0  0  0  0  0  0  0
    0.6386    0.6841   -1.3696 H   0  0  0  0  0  0  0  0  0  0  0  0
    2.9563    1.3618   -0.8392 H   0  0  0  0  0  0  0  0  0  0  0  0
    5.1203   -1.4623    1.8423 H   0  0  0  0  0  0  0  0  0  0  0  0
  1  2  1  0
  2  3  1  0
  2  4  1  0
  4  5  1  0
  5  6  2  0
  6  7  1  0
  7  8  1  0
  8  9  2  0
  9 10  1  0
 10 11  2  0
 11 12  1  0
 12 13  1  0
 12 14  1  0
 14 15  1  0
 15 16  1  0
 16 17  1  0
 17 18  1  6
 18 19  1  0
 19 20  1  0
 19 21  1  0
 19 22  1  0
 17 23  1  0
 23 24  2  0
 24 25  1  0
 25 26  2  0
 26 27  1  0
 27 28  2  0
 17 29  1  0
 29 30  1  0
 30 31  2  0
 11 32  1  0
 32 33  2  0
  7 34  2  0
 34 35  1  0
 35 36  2  0
 35  4  1  0
 33  8  1  0
 30 14  1  0
 28 23  1  0
  1 37  1  0
  1 38  1  0
  1 39  1  0
  2 40  1  0
  3 41  1  0
  3 42  1  0
  3 43  1  0
  5 44  1  0
  6 45  1  0
  9 46  1  0
 10 47  1  0
 12 48  1  1
 13 49  1  0
 13 50  1  0
 13 51  1  0
 15 52  1  0
 15 53  1  0
 16 54  1  0
 16 55  1  0
 18 56  1  0
 18 57  1  0
 20 58  1  0
 20 59  1  0
 20 60  1  0
 21 61  1  0
 21 62  1  0
 21 63  1  0
 22 64  1  0
 24 65  1  0
 25 66  1  0
 26 67  1  0
 27 68  1  0
 28 69  1  0
 32 70  1  0
 33 71  1  0
 34 72  1  0
M  END
$$$$
