@<TRIPOS>MOLECULE
*****
 72 75 0 0 0
SMALL
GASTEIGER

@<TRIPOS>ATOM
      1 C           9.7725   -0.1682    1.3727 C.3     1  UNL1       -0.0444
      2 C           8.9150    1.0437    1.0750 C.3     1  UNL1        0.0317
      3 C           8.8503    1.9900    2.2526 C.3     1  UNL1       -0.0444
      4 N           7.5398    0.6410    0.7795 N.ar    1  UNL1       -0.3127
      5 C           6.8663    1.2079   -0.2372 C.ar    1  UNL1        0.0088
      6 C           5.5747    0.8400   -0.5303 C.ar    1  UNL1       -0.0376
      7 C           4.9225   -0.1222    0.2059 C.ar    1  UNL1       -0.0114
      8 C           3.5420   -0.5236   -0.1041 C.ar    1  UNL1       -0.0177
      9 C           3.1205   -1.8115    0.1401 C.ar    1  UNL1       -0.0537
     10 C           1.8297   -2.1961   -0.1533 C.ar    1  UNL1       -0.0562
     11 C           0.8847   -1.3213   -0.7063 C.ar    1  UNL1       -0.0271
     12 C          -0.4881   -1.8274   -0.9973 C.3     1  UNL1        0.0515
     13 C          -0.5403   -2.3142   -2.4080 C.3     1  UNL1       -0.0421
     14 N          -1.5537   -0.9544   -0.6244 N.am    1  UNL1       -0.2605
     15 C          -1.8658    0.2824   -1.2985 C.3     1  UNL1        0.0224
     16 C          -3.3657    0.4498   -1.5543 C.3     1  UNL1        0.0076
     17 C          -4.2074    0.2045   -0.3296 C.3     1  UNL1        0.1440
     18 C          -5.3110   -0.7289   -0.6824 C.3     1  UNL1        0.0199
     19 C          -6.2466   -1.1004    0.4100 C.3     1  UNL1        0.0645
     20 C          -7.2826   -2.0567   -0.1890 C.3     1  UNL1       -0.0362
     21 C          -5.5926   -1.8455    1.5458 C.3     1  UNL1       -0.0362
     22 O          -6.9267   -0.0058    0.8896 O.3     1  UNL1       -0.3890
     23 C          -4.6894    1.5655    0.1068 C.ar    1  UNL1       -0.0040
     24 C          -5.8105    2.1341   -0.4430 C.ar    1  UNL1       -0.0548
     25 C          -6.2111    3.3727   -0.0011 C.ar    1  UNL1       -0.0614
     26 C          -5.5136    4.0494    0.9749 C.ar    1  UNL1       -0.0617
     27 C          -4.3786    3.4447    1.5130 C.ar    1  UNL1       -0.0614
     28 C          -3.9683    2.2100    1.0819 C.ar    1  UNL1       -0.0548
     29 O          -3.4095   -0.3332    0.7364 O.3     1  UNL1       -0.4387
     30 C          -2.4378   -1.2957    0.4690 C.2     1  UNL1        0.4042
     31 O          -2.2885   -2.3640    1.0706 O.2     1  UNL1       -0.2262
     32 C           1.3204   -0.0447   -0.9423 C.ar    1  UNL1       -0.0562
     33 C           2.6338    0.3522   -0.6452 C.ar    1  UNL1       -0.0537
     34 C           5.6198   -0.7014    1.2505 C.ar    1  UNL1        0.0107
     35 C           6.9138   -0.2958    1.5021 C.ar    1  UNL1        0.2521
     36 O           7.5755   -0.8063    2.4485 O.2     1  UNL1       -0.2677
     37 H           9.3510   -1.0498    0.8450 H       1  UNL1        0.0249
     38 H          10.7691    0.0091    0.9209 H       1  UNL1        0.0249
     39 H           9.8962   -0.3296    2.4441 H       1  UNL1        0.0249
     40 H           9.2833    1.6225    0.1933 H       1  UNL1        0.0523
     41 H           9.7379    2.6496    2.3204 H       1  UNL1        0.0249
     42 H           7.9644    2.6574    2.1077 H       1  UNL1        0.0249
     43 H           8.6589    1.4431    3.1991 H       1  UNL1        0.0249
     44 H           7.3904    1.9773   -0.8248 H       1  UNL1        0.0810
     45 H           5.0740    1.3152   -1.3479 H       1  UNL1        0.0638
     46 H           3.8445   -2.5077    0.5714 H       1  UNL1        0.0624
     47 H           1.5095   -3.2132    0.0436 H       1  UNL1        0.0621
     48 H          -0.5776   -2.7513   -0.3293 H       1  UNL1        0.0549
     49 H           0.1517   -1.6658   -3.0091 H       1  UNL1        0.0251
     50 H          -0.1409   -3.3523   -2.4553 H       1  UNL1        0.0251
     51 H          -1.5360   -2.3274   -2.8494 H       1  UNL1        0.0251
     52 H          -1.4188    0.3090   -2.3218 H       1  UNL1        0.0467
     53 H          -1.5846    1.1694   -0.6994 H       1  UNL1        0.0467
     54 H          -3.4592    1.5031   -1.9479 H       1  UNL1        0.0322
     55 H          -3.6858   -0.1999   -2.4174 H       1  UNL1        0.0322
     56 H          -5.8618   -0.3199   -1.5521 H       1  UNL1        0.0335
     57 H          -4.8138   -1.6562   -1.0914 H       1  UNL1        0.0335
     58 H          -7.3996   -1.8741   -1.2761 H       1  UNL1        0.0257
     59 H          -6.9266   -3.1240   -0.1012 H       1  UNL1        0.0257
     60 H          -8.2654   -1.9777    0.3204 H       1  UNL1        0.0257
     61 H          -6.4266   -2.2847    2.1525 H       1  UNL1        0.0257
     62 H          -5.0169   -1.2026    2.2212 H       1  UNL1        0.0257
     63 H          -5.0166   -2.7191    1.1625 H       1  UNL1        0.0257
     64 H          -7.7529    0.1163    0.3310 H       1  UNL1        0.2101
     65 H          -6.3735    1.6044   -1.2310 H       1  UNL1        0.0622
     66 H          -7.1000    3.8195   -0.4388 H       1  UNL1        0.0618
     67 H          -5.8540    5.0174    1.2984 H       1  UNL1        0.0618
     68 H          -3.8509    4.0137    2.2866 H       1  UNL1        0.0618
     69 H          -3.0778    1.7739    1.5267 H       1  UNL1        0.0622
     70 H           0.6386    0.6841   -1.3696 H       1  UNL1        0.0621
     71 H           2.9563    1.3618   -0.8392 H       1  UNL1        0.0624
     72 H           5.1203   -1.4623    1.8423 H       1  UNL1        0.0678
@<TRIPOS>BOND
     1     1     2    1
     2     2     3    1
     3     2     4    1
     4     4     5   ar
     5     5     6   ar
     6     6     7   ar
     7     7     8    1
     8     8     9   ar
     9     9    10   ar
    10    10    11   ar
    11    11    12    1
    12    12    13    1
    13    12    14    1
    14    14    15    1
    15    15    16    1
    16    16    17    1
    17    17    18    1
    18    18    19    1
    19    19    20    1
    20    19    21    1
    21    19    22    1
    22    17    23    1
    23    23    24   ar
    24    24    25   ar
    25    25    26   ar
    26    26    27   ar
    27    27    28   ar
    28    17    29    1
    29    29    30    1
    30    30    31    2
    31    11    32   ar
    32    32    33   ar
    33     7    34   ar
    34    34    35   ar
    35    35    36    2
    36    35     4   ar
    37    33     8   ar
    38    30    14   am
    39    28    23   ar
    40     1    37    1
    41     1    38    1
    42     1    39    1
    43     2    40    1
    44     3    41    1
    45     3    42    1
    46     3    43    1
    47     5    44    1
    48     6    45    1
    49     9    46    1
    50    10    47    1
    51    12    48    1
    52    13    49    1
    53    13    50    1
    54    13    51    1
    55    15    52    1
    56    15    53    1
    57    16    54    1
    58    16    55    1
    59    18    56    1
    60    18    57    1
    61    20    58    1
    62    20    59    1
    63    20    60    1
    64    21    61    1
    65    21    62    1
    66    21    63    1
    67    22    64    1
    68    24    65    1
    69    25    66    1
    70    26    67    1
    71    27    68    1
    72    28    69    1
    73    32    70    1
    74    33    71    1
    75    34    72    1
