@<TRIPOS>MOLECULE
*****
 69 73 0 0 0
SMALL
GASTEIGER

@<TRIPOS>ATOM
      1 C           0.6079    1.5988    3.2392 C.3     1  UNL1       -0.0421
      2 C           0.3909    1.8802    1.7819 C.3     1  UNL1        0.0515
      3 C           1.4598    1.2408    0.9398 C.ar    1  UNL1       -0.0271
      4 C           1.2918    1.1375   -0.4250 C.ar    1  UNL1       -0.0562
      5 C           2.2765    0.5438   -1.2308 C.ar    1  UNL1       -0.0522
      6 C           3.4244    0.0539   -0.6847 C.ar    1  UNL1        0.0021
      7 C           4.4679   -0.5683   -1.4854 C.ar    1  UNL1        0.0916
      8 C           4.4013   -0.7190   -2.8322 C.ar    1  UNL1       -0.0289
      9 C           5.4212   -1.3179   -3.5474 C.ar    1  UNL1        0.0064
     10 C           6.5431   -1.7821   -2.9059 C.ar    1  UNL1        0.2675
     11 O           7.5118   -2.3345   -3.4649 O.2     1  UNL1       -0.2662
     12 N           6.5833   -1.6200   -1.5706 N.ar    1  UNL1       -0.2259
     13 C           7.7322   -2.0826   -0.8185 C.3     1  UNL1        0.0566
     14 C           9.0815   -1.5431   -1.0690 C.3     1  UNL1       -0.0284
     15 C           8.3161   -1.0085    0.1058 C.3     1  UNL1       -0.0284
     16 N           5.6054   -1.0470   -0.8942 N.ar    1  UNL1       -0.1680
     17 C           3.5857    0.1605    0.6804 C.ar    1  UNL1       -0.0522
     18 C           2.6211    0.7454    1.4943 C.ar    1  UNL1       -0.0562
     19 N          -0.8976    1.3964    1.4004 N.am    1  UNL1       -0.2605
     20 C          -1.2497   -0.0296    1.4713 C.3     1  UNL1        0.0224
     21 C          -2.6536   -0.0785    1.9938 C.3     1  UNL1        0.0076
     22 C          -3.6133    0.4808    0.8889 C.3     1  UNL1        0.1440
     23 C          -4.9572    0.3678    1.4936 C.3     1  UNL1        0.0199
     24 C          -6.1539    0.8206    0.7578 C.3     1  UNL1        0.0645
     25 C          -6.4093    0.0906   -0.5181 C.3     1  UNL1       -0.0362
     26 C          -7.3611    0.5038    1.6716 C.3     1  UNL1       -0.0362
     27 O          -6.1304    2.2063    0.5107 O.3     1  UNL1       -0.3890
     28 C          -3.3993   -0.2910   -0.3389 C.ar    1  UNL1       -0.0040
     29 C          -3.1180   -1.6639   -0.3060 C.ar    1  UNL1       -0.0548
     30 C          -2.8694   -2.3870   -1.4490 C.ar    1  UNL1       -0.0614
     31 C          -2.8890   -1.7770   -2.6819 C.ar    1  UNL1       -0.0617
     32 C          -3.1635   -0.4372   -2.7151 C.ar    1  UNL1       -0.0614
     33 C          -3.4134    0.2975   -1.5843 C.ar    1  UNL1       -0.0548
     34 O          -3.1958    1.8238    0.6872 O.3     1  UNL1       -0.4387
     35 C          -1.9002    2.2659    0.9351 C.2     1  UNL1        0.4042
     36 O          -1.6363    3.4801    0.7319 O.2     1  UNL1       -0.2262
     37 H           0.8845    0.5518    3.4553 H       1  UNL1        0.0251
     38 H          -0.2952    1.8759    3.7956 H       1  UNL1        0.0251
     39 H           1.4271    2.2869    3.5925 H       1  UNL1        0.0251
     40 H           0.4229    2.9767    1.6448 H       1  UNL1        0.0549
     41 H           0.3830    1.5195   -0.8991 H       1  UNL1        0.0621
     42 H           2.1302    0.4711   -2.2933 H       1  UNL1        0.0624
     43 H           3.5555   -0.3817   -3.4079 H       1  UNL1        0.0641
     44 H           5.3859   -1.4473   -4.6232 H       1  UNL1        0.0673
     45 H           7.6276   -3.1017   -0.4110 H       1  UNL1        0.0546
     46 H           9.9265   -2.2098   -0.7988 H       1  UNL1        0.0286
     47 H           9.3024   -0.8739   -1.9206 H       1  UNL1        0.0286
     48 H           8.5768   -1.3436    1.1307 H       1  UNL1        0.0286
     49 H           7.9590    0.0176    0.0064 H       1  UNL1        0.0286
     50 H           4.5049   -0.2286    1.1401 H       1  UNL1        0.0624
     51 H           2.7585    0.8235    2.5642 H       1  UNL1        0.0621
     52 H          -1.1391   -0.4034    0.4339 H       1  UNL1        0.0467
     53 H          -0.5785   -0.5677    2.1432 H       1  UNL1        0.0467
     54 H          -2.7402    0.6723    2.8201 H       1  UNL1        0.0322
     55 H          -3.0044   -1.0482    2.3346 H       1  UNL1        0.0322
     56 H          -5.0755   -0.7198    1.7961 H       1  UNL1        0.0335
     57 H          -4.8915    0.8771    2.5160 H       1  UNL1        0.0335
     58 H          -6.1691    0.7512   -1.3770 H       1  UNL1        0.0257
     59 H          -5.8148   -0.8303   -0.5822 H       1  UNL1        0.0257
     60 H          -7.5163   -0.1586   -0.6305 H       1  UNL1        0.0257
     61 H          -7.5175   -0.5899    1.5725 H       1  UNL1        0.0257
     62 H          -8.2178    1.1112    1.3480 H       1  UNL1        0.0257
     63 H          -7.0460    0.6894    2.7202 H       1  UNL1        0.0257
     64 H          -5.8948    2.6457    1.3518 H       1  UNL1        0.2101
     65 H          -3.0950   -2.1789    0.6524 H       1  UNL1        0.0622
     66 H          -2.6562   -3.4458   -1.3791 H       1  UNL1        0.0618
     67 H          -2.6925   -2.3472   -3.5896 H       1  UNL1        0.0618
     68 H          -3.1828    0.0648   -3.6898 H       1  UNL1        0.0618
     69 H          -3.6281    1.3729   -1.6777 H       1  UNL1        0.0622
@<TRIPOS>BOND
     1     1     2    1
     2     2     3    1
     3     3     4   ar
     4     4     5   ar
     5     5     6   ar
     6     6     7    1
     7     7     8   ar
     8     8     9   ar
     9     9    10   ar
    10    10    11    2
    11    10    12   ar
    12    12    13    1
    13    13    14    1
    14    14    15    1
    15    12    16   ar
    16     6    17   ar
    17    17    18   ar
    18     2    19    1
    19    19    20    1
    20    20    21    1
    21    21    22    1
    22    22    23    1
    23    23    24    1
    24    24    25    1
    25    24    26    1
    26    24    27    1
    27    22    28    1
    28    28    29   ar
    29    29    30   ar
    30    30    31   ar
    31    31    32   ar
    32    32    33   ar
    33    22    34    1
    34    34    35    1
    35    35    36    2
    36    18     3   ar
    37    35    19   am
    38    16     7   ar
    39    33    28   ar
    40    15    13    1
    41     1    37    1
    42     1    38    1
    43     1    39    1
    44     2    40    1
    45     4    41    1
    46     5    42    1
    47     8    43    1
    48     9    44    1
    49    13    45    1
    50    14    46    1
    51    14    47    1
    52    15    48    1
    53    15    49    1
    54    17    50    1
    55    18    51    1
    56    20    52    1
    57    20    53    1
    58    21    54    1
    59    21    55    1
    60    23    56    1
    61    23    57    1
    62    25    58    1
    63    25    59    1
    64    25    60    1
    65    26    61    1
    66    26    62    1
    67    26    63    1
    68    27    64    1
    69    29    65    1
    70    30    66    1
    71    31    67    1
    72    32    68    1
    73    33    69    1
