@<TRIPOS>MOLECULE
*****
 95 100 0 0 0
SMALL
GASTEIGER

@<TRIPOS>ATOM
      1 O          11.5054    1.2529    1.0433 O.2     1  UNL1       -0.2737
      2 C          12.5356    0.7680    0.5218 C.2     1  UNL1        0.2354
      3 C          12.5972   -0.5252   -0.1955 C.3     1  UNL1        0.0259
      4 C          11.2933   -1.2757   -0.1435 C.3     1  UNL1       -0.0447
      5 C          10.9307   -1.6166    1.2592 C.3     1  UNL1       -0.0526
      6 C           9.6369   -2.3876    1.3561 C.3     1  UNL1       -0.0526
      7 C           8.5167   -1.5811    0.7824 C.3     1  UNL1       -0.0448
      8 C           7.2038   -2.3397    0.9082 C.3     1  UNL1        0.0243
      9 C           6.0971   -1.5281    0.3221 C.2     1  UNL1        0.2172
     10 O           6.3862   -0.4415   -0.2204 O.2     1  UNL1       -0.2755
     11 N           4.7535   -1.9387    0.3584 N.am    1  UNL1       -0.2855
     12 C           3.6284   -1.2624   -0.1648 C.ar    1  UNL1        0.0334
     13 C           2.3419   -1.7812    0.0529 C.ar    1  UNL1       -0.0401
     14 C           1.2074   -1.1828   -0.4377 C.ar    1  UNL1       -0.0520
     15 C           1.2497   -0.0254   -1.1819 C.ar    1  UNL1        0.0080
     16 C           0.0239    0.6244   -1.7124 C.3     1  UNL1        0.1863
     17 O          -0.9893    0.7578   -0.7594 O.3     1  UNL1       -0.3392
     18 C          -1.8891    1.6750   -1.3498 C.3     1  UNL1        0.0893
     19 C          -2.7251    2.3871   -0.3986 C.ar    1  UNL1       -0.0187
     20 C          -2.9235    3.7378   -0.6008 C.ar    1  UNL1       -0.0558
     21 C          -3.6713    4.4974    0.2379 C.ar    1  UNL1       -0.0561
     22 C          -4.2531    3.8848    1.3350 C.ar    1  UNL1       -0.0222
     23 C          -5.0707    4.7282    2.2529 C.3     1  UNL1        0.0692
     24 O          -4.2442    5.2629    3.2504 O.3     1  UNL1       -0.3904
     25 C          -4.0628    2.5281    1.5509 C.ar    1  UNL1       -0.0561
     26 C          -3.2968    1.7853    0.6788 C.ar    1  UNL1       -0.0558
     27 C          -2.6294    0.9101   -2.4287 C.3     1  UNL1        0.0050
     28 C          -1.7864   -0.1712   -2.9576 C.3     1  UNL1        0.0741
     29 C          -2.0556   -1.5887   -2.5582 C.3     1  UNL1        0.0291
     30 S          -3.6411   -2.2384   -2.9918 S.3     1  UNL1       -0.0646
     31 C          -4.9941   -1.7515   -1.9728 C.ar    1  UNL1        0.2581
     32 N          -6.2833   -2.1382   -2.2613 N.ar    1  UNL1       -0.2027
     33 C          -7.1166   -1.6482   -1.3409 C.ar    1  UNL1        0.1181
     34 C          -8.5570   -1.8729   -1.3641 C.ar    1  UNL1        0.0041
     35 C          -9.1413   -2.5933   -0.3697 C.ar    1  UNL1       -0.0524
     36 C         -10.5212   -2.8020   -0.3964 C.ar    1  UNL1       -0.0611
     37 C         -11.2746   -2.2862   -1.4133 C.ar    1  UNL1       -0.0617
     38 C         -10.6668   -1.5693   -2.3961 C.ar    1  UNL1       -0.0611
     39 C          -9.3208   -1.3521   -2.3918 C.ar    1  UNL1       -0.0524
     40 C          -6.3345   -0.9439   -0.4630 C.ar    1  UNL1        0.1639
     41 C          -6.8122   -0.2377    0.7040 C.ar    1  UNL1        0.0195
     42 C          -7.0888   -0.9563    1.8582 C.ar    1  UNL1       -0.0510
     43 C          -7.5621   -0.3822    3.0132 C.ar    1  UNL1       -0.0611
     44 C          -7.7690    0.9715    3.0171 C.ar    1  UNL1       -0.0617
     45 C          -7.5048    1.7253    1.8842 C.ar    1  UNL1       -0.0611
     46 C          -7.0332    1.1220    0.7480 C.ar    1  UNL1       -0.0510
     47 O          -5.1071   -1.0415   -0.8857 O.2     1  UNL1       -0.4300
     48 O          -0.4107    0.1137   -2.9060 O.3     1  UNL1       -0.3430
     49 C           2.5019    0.5004   -1.4072 C.ar    1  UNL1       -0.0520
     50 C           3.6644   -0.1063   -0.9088 C.ar    1  UNL1       -0.0401
     51 N          13.7787    1.4914    0.6034 N.am    1  UNL1       -0.1975
     52 O          13.8207    2.6788    1.2391 O.3     1  UNL1       -0.2952
     53 H          12.8749   -0.3205   -1.2682 H       1  UNL1        0.0359
     54 H          13.4410   -1.1363    0.1941 H       1  UNL1        0.0359
     55 H          11.4139   -2.1854   -0.7837 H       1  UNL1        0.0270
     56 H          10.5115   -0.5976   -0.5937 H       1  UNL1        0.0270
     57 H          10.8352   -0.7083    1.8576 H       1  UNL1        0.0265
     58 H          11.7575   -2.2581    1.6579 H       1  UNL1        0.0265
     59 H           9.7166   -3.3213    0.7407 H       1  UNL1        0.0265
     60 H           9.4460   -2.6621    2.4077 H       1  UNL1        0.0265
     61 H           8.6974   -1.3379   -0.2873 H       1  UNL1        0.0270
     62 H           8.4330   -0.6311    1.3395 H       1  UNL1        0.0270
     63 H           6.9896   -2.4221    1.9925 H       1  UNL1        0.0358
     64 H           7.2720   -3.3540    0.4972 H       1  UNL1        0.0358
     65 H           4.5691   -2.8717    0.8364 H       1  UNL1        0.1548
     66 H           2.2910   -2.7054    0.6461 H       1  UNL1        0.0636
     67 H           0.2326   -1.6097   -0.2497 H       1  UNL1        0.0622
     68 H           0.3199    1.6973   -1.9387 H       1  UNL1        0.0965
     69 H          -1.2235    2.4070   -1.9050 H       1  UNL1        0.0648
     70 H          -2.4735    4.2347   -1.4585 H       1  UNL1        0.0621
     71 H          -3.7976    5.5683    0.0311 H       1  UNL1        0.0621
     72 H          -5.8756    4.1316    2.7551 H       1  UNL1        0.0607
     73 H          -5.4663    5.5687    1.6737 H       1  UNL1        0.0607
     74 H          -3.9840    6.2061    3.0281 H       1  UNL1        0.2098
     75 H          -4.5485    2.1259    2.4258 H       1  UNL1        0.0621
     76 H          -3.1830    0.7235    0.8994 H       1  UNL1        0.0621
     77 H          -2.8109    1.6699   -3.2736 H       1  UNL1        0.0319
     78 H          -3.6180    0.5760   -2.1668 H       1  UNL1        0.0319
     79 H          -1.9799   -0.1795   -4.0967 H       1  UNL1        0.0606
     80 H          -1.2865   -2.1967   -3.1488 H       1  UNL1        0.0406
     81 H          -1.8228   -1.7301   -1.4593 H       1  UNL1        0.0406
     82 H          -8.5758   -3.0120    0.4391 H       1  UNL1        0.0624
     83 H         -10.9706   -3.3766    0.4019 H       1  UNL1        0.0618
     84 H         -12.3481   -2.4326   -1.4591 H       1  UNL1        0.0618
     85 H         -11.2782   -1.1562   -3.2126 H       1  UNL1        0.0618
     86 H          -8.8024   -0.7864   -3.1566 H       1  UNL1        0.0624
     87 H          -6.9096   -2.0363    1.8272 H       1  UNL1        0.0625
     88 H          -7.7497   -1.0336    3.8692 H       1  UNL1        0.0618
     89 H          -8.1438    1.4308    3.9278 H       1  UNL1        0.0618
     90 H          -7.6882    2.8017    1.9387 H       1  UNL1        0.0618
     91 H          -6.8222    1.7056   -0.1463 H       1  UNL1        0.0625
     92 H           2.5769    1.4196   -1.9946 H       1  UNL1        0.0622
     93 H           4.6020    0.3606   -1.1291 H       1  UNL1        0.0636
     94 H          14.6407    1.1043    0.1754 H       1  UNL1        0.1822
     95 H          13.8010    2.4929    2.2186 H       1  UNL1        0.2414
@<TRIPOS>BOND
     1     1     2    2
     2     2     3    1
     3     3     4    1
     4     4     5    1
     5     5     6    1
     6     6     7    1
     7     7     8    1
     8     8     9    1
     9     9    10    2
    10     9    11   am
    11    11    12    1
    12    12    13   ar
    13    13    14   ar
    14    14    15   ar
    15    15    16    1
    16    16    17    1
    17    17    18    1
    18    18    19    1
    19    19    20   ar
    20    20    21   ar
    21    21    22   ar
    22    22    23    1
    23    23    24    1
    24    22    25   ar
    25    25    26   ar
    26    18    27    1
    27    27    28    1
    28    28    29    1
    29    29    30    1
    30    30    31    1
    31    31    32   ar
    32    32    33   ar
    33    33    34    1
    34    34    35   ar
    35    35    36   ar
    36    36    37   ar
    37    37    38   ar
    38    38    39   ar
    39    33    40   ar
    40    40    41    1
    41    41    42   ar
    42    42    43   ar
    43    43    44   ar
    44    44    45   ar
    45    45    46   ar
    46    40    47   ar
    47    28    48    1
    48    15    49   ar
    49    49    50   ar
    50     2    51   am
    51    51    52    1
    52    50    12   ar
    53    48    16    1
    54    26    19   ar
    55    47    31   ar
    56    39    34   ar
    57    46    41   ar
    58     3    53    1
    59     3    54    1
    60     4    55    1
    61     4    56    1
    62     5    57    1
    63     5    58    1
    64     6    59    1
    65     6    60    1
    66     7    61    1
    67     7    62    1
    68     8    63    1
    69     8    64    1
    70    11    65    1
    71    13    66    1
    72    14    67    1
    73    16    68    1
    74    18    69    1
    75    20    70    1
    76    21    71    1
    77    23    72    1
    78    23    73    1
    79    24    74    1
    80    25    75    1
    81    26    76    1
    82    27    77    1
    83    27    78    1
    84    28    79    1
    85    29    80    1
    86    29    81    1
    87    35    82    1
    88    36    83    1
    89    37    84    1
    90    38    85    1
    91    39    86    1
    92    42    87    1
    93    43    88    1
    94    44    89    1
    95    45    90    1
    96    46    91    1
    97    49    92    1
    98    50    93    1
    99    51    94    1
   100    52    95    1
