@<TRIPOS>MOLECULE
*****
 46 46 0 0 0
SMALL
GASTEIGER

@<TRIPOS>ATOM
      1 C           8.9513    1.3368   -0.8397 C.3     1  UNL1        0.0817
      2 O           7.6527    0.8266   -1.1377 O.3     1  UNL1       -0.4679
      3 C           6.6910    0.6691   -0.1491 C.2     1  UNL1        0.3071
      4 O           6.9887    0.9884    1.0305 O.2     1  UNL1       -0.2509
      5 C           5.3154    0.1345   -0.4335 C.3     1  UNL1        0.0489
      6 C           4.5745    0.1108    0.8643 C.3     1  UNL1       -0.0176
      7 C           3.1939   -0.3894    0.7790 C.ar    1  UNL1       -0.0466
      8 C           2.8392   -1.7118    0.9271 C.ar    1  UNL1       -0.0551
      9 C           1.5355   -2.1493    0.8416 C.ar    1  UNL1       -0.0197
     10 C           0.5068   -1.2380    0.5951 C.ar    1  UNL1        0.1206
     11 O          -0.7886   -1.7222    0.5172 O.3     1  UNL1       -0.4894
     12 C          -1.8148   -0.7942    0.2687 C.3     1  UNL1        0.1166
     13 C          -3.1848   -1.4263    0.2034 C.3     1  UNL1        0.1015
     14 O          -3.4907   -2.0582    1.4068 O.3     1  UNL1       -0.3872
     15 C          -4.1696   -0.2638    0.0296 C.3     1  UNL1        0.0254
     16 N          -5.5235   -0.7147   -0.0050 N.3     1  UNL1       -0.3112
     17 C          -6.4272    0.3938   -0.1685 C.3     1  UNL1        0.0021
     18 C          -6.3062    1.3965    0.9699 C.3     1  UNL1       -0.0499
     19 C          -6.0358    1.1276   -1.4351 C.3     1  UNL1       -0.0499
     20 C           0.8255    0.1035    0.4402 C.ar    1  UNL1       -0.0197
     21 C           2.1468    0.4931    0.5346 C.ar    1  UNL1       -0.0551
     22 H           9.6960    0.5506   -0.6696 H       1  UNL1        0.0661
     23 H           9.2381    2.0012   -1.6625 H       1  UNL1        0.0661
     24 H           8.8099    1.9961    0.0530 H       1  UNL1        0.0661
     25 H           5.4203   -0.9064   -0.8115 H       1  UNL1        0.0381
     26 H           4.7994    0.7164   -1.2132 H       1  UNL1        0.0381
     27 H           5.2027   -0.4175    1.6070 H       1  UNL1        0.0318
     28 H           4.5014    1.1629    1.2646 H       1  UNL1        0.0318
     29 H           3.6493   -2.4073    1.1180 H       1  UNL1        0.0621
     30 H           1.2796   -3.2054    0.9629 H       1  UNL1        0.0654
     31 H          -1.8321   -0.0856    1.1243 H       1  UNL1        0.0723
     32 H          -1.6159   -0.2167   -0.6347 H       1  UNL1        0.0723
     33 H          -3.3303   -2.1114   -0.6311 H       1  UNL1        0.0640
     34 H          -3.7611   -2.9842    1.2295 H       1  UNL1        0.2100
     35 H          -3.9311    0.5077    0.7611 H       1  UNL1        0.0450
     36 H          -3.9399    0.1089   -1.0105 H       1  UNL1        0.0450
     37 H          -5.8051   -1.3971    0.7050 H       1  UNL1        0.1223
     38 H          -7.4836    0.0557   -0.2101 H       1  UNL1        0.0455
     39 H          -5.5625    2.1885    0.6884 H       1  UNL1        0.0245
     40 H          -7.2849    1.9312    1.0341 H       1  UNL1        0.0245
     41 H          -6.1030    0.9244    1.9383 H       1  UNL1        0.0245
     42 H          -5.1380    1.7529   -1.1618 H       1  UNL1        0.0245
     43 H          -6.8415    1.8858   -1.6590 H       1  UNL1        0.0245
     44 H          -5.8636    0.4738   -2.2986 H       1  UNL1        0.0245
     45 H           0.0312    0.8218    0.2478 H       1  UNL1        0.0654
     46 H           2.3847    1.5411    0.4123 H       1  UNL1        0.0621
@<TRIPOS>BOND
     1     1     2    1
     2     2     3    1
     3     3     4    2
     4     3     5    1
     5     5     6    1
     6     6     7    1
     7     7     8   ar
     8     8     9   ar
     9     9    10   ar
    10    10    11    1
    11    11    12    1
    12    12    13    1
    13    13    14    1
    14    13    15    1
    15    15    16    1
    16    16    17    1
    17    17    18    1
    18    17    19    1
    19    10    20   ar
    20    20    21   ar
    21    21     7   ar
    22     1    22    1
    23     1    23    1
    24     1    24    1
    25     5    25    1
    26     5    26    1
    27     6    27    1
    28     6    28    1
    29     8    29    1
    30     9    30    1
    31    12    31    1
    32    12    32    1
    33    13    33    1
    34    14    34    1
    35    15    35    1
    36    15    36    1
    37    16    37    1
    38    17    38    1
    39    18    39    1
    40    18    40    1
    41    18    41    1
    42    19    42    1
    43    19    43    1
    44    19    44    1
    45    20    45    1
    46    21    46    1
