
     RDKit          3D

 46 46  0  0  0  0  0  0  0  0999 V2000
    8.9513    1.3368   -0.8397 C   0  0  0  0  0  0  0  0  0  0  0  0
    7.6527    0.8266   -1.1377 O   0  0  0  0  0  0  0  0  0  0  0  0
    6.6910    0.6691   -0.1491 C   0  0  0  0  0  0  0  0  0  0  0  0
    6.9887    0.9884    1.0305 O   0  0  0  0  0  0  0  0  0  0  0  0
    5.3154    0.1345   -0.4335 C   0  0  0  0  0  0  0  0  0  0  0  0
    4.5745    0.1108    0.8643 C   0  0  0  0  0  0  0  0  0  0  0  0
    3.1939   -0.3894    0.7790 C   0  0  0  0  0  0  0  0  0  0  0  0
    2.8392   -1.7118    0.9271 C   0  0  0  0  0  0  0  0  0  0  0  0
    1.5355   -2.1493    0.8416 C   0  0  0  0  0  0  0  0  0  0  0  0
    0.5068   -1.2380    0.5951 C   0  0  0  0  0  0  0  0  0  0  0  0
   -0.7886   -1.7222    0.5172 O   0  0  0  0  0  0  0  0  0  0  0  0
   -1.8148   -0.7942    0.2687 C   0  0  0  0  0  0  0  0  0  0  0  0
   -3.1848   -1.4263    0.2034 C   0  0  0  0  0  0  0  0  0  0  0  0
   -3.4907   -2.0582    1.4068 O   0  0  0  0  0  0  0  0  0  0  0  0
   -4.1696   -0.2638    0.0296 C   0  0  0  0  0  0  0  0  0  0  0  0
   -5.5235   -0.7147   -0.0050 N   0  0  0  0  0  0  0  0  0  0  0  0
   -6.4272    0.3938   -0.1685 C   0  0  0  0  0  0  0  0  0  0  0  0
   -6.3062    1.3965    0.9699 C   0  0  0  0  0  0  0  0  0  0  0  0
   -6.0358    1.1276   -1.4351 C   0  0  0  0  0  0  0  0  0  0  0  0
    0.8255    0.1035    0.4402 C   0  0  0  0  0  0  0  0  0  0  0  0
    2.1468    0.4931    0.5346 C   0  0  0  0  0  0  0  0  0  0  0  0
    9.6960    0.5506   -0.6696 H   0  0  0  0  0  0  0  0  0  0  0  0
    9.2381    2.0012   -1.6625 H   0  0  0  0  0  0  0  0  0  0  0  0
    8.8099    1.9961    0.0530 H   0  0  0  0  0  0  0  0  0  0  0  0
    5.4203   -0.9064   -0.8115 H   0  0  0  0  0  0  0  0  0  0  0  0
    4.7994    0.7164   -1.2132 H   0  0  0  0  0  0  0  0  0  0  0  0
    5.2027   -0.4175    1.6070 H   0  0  0  0  0  0  0  0  0  0  0  0
    4.5014    1.1629    1.2646 H   0  0  0  0  0  0  0  0  0  0  0  0
    3.6493   -2.4073    1.1180 H   0  0  0  0  0  0  0  0  0  0  0  0
    1.2796   -3.2054    0.9629 H   0  0  0  0  0  0  0  0  0  0  0  0
   -1.8321   -0.0856    1.1243 H   0  0  0  0  0  0  0  0  0  0  0  0
   -1.6159   -0.2167   -0.6347 H   0  0  0  0  0  0  0  0  0  0  0  0
   -3.3303   -2.1114   -0.6311 H   0  0  0  0  0  0  0  0  0  0  0  0
   -3.7611   -2.9842    1.2295 H   0  0  0  0  0  0  0  0  0  0  0  0
   -3.9311    0.5077    0.7611 H   0  0  0  0  0  0  0  0  0  0  0  0
   -3.9399    0.1089   -1.0105 H   0  0  0  0  0  0  0  0  0  0  0  0
   -5.8051   -1.3971    0.7050 H   0  0  0  0  0  0  0  0  0  0  0  0
   -7.4836    0.0557   -0.2101 H   0  0  0  0  0  0  0  0  0  0  0  0
   -5.5625    2.1885    0.6884 H   0  0  0  0  0  0  0  0  0  0  0  0
   -7.2849    1.9312    1.0341 H   0  0  0  0  0  0  0  0  0  0  0  0
   -6.1030    0.9244    1.9383 H   0  0  0  0  0  0  0  0  0  0  0  0
   -5.1380    1.7529   -1.1618 H   0  0  0  0  0  0  0  0  0  0  0  0
   -6.8415    1.8858   -1.6590 H   0  0  0  0  0  0  0  0  0  0  0  0
   -5.8636    0.4738   -2.2986 H   0  0  0  0  0  0  0  0  0  0  0  0
    0.0312    0.8218    0.2478 H   0  0  0  0  0  0  0  0  0  0  0  0
    2.3847    1.5411    0.4123 H   0  0  0  0  0  0  0  0  0  0  0  0
  1  2  1  0
  2  3  1  0
  3  4  2  0
  3  5  1  0
  5  6  1  0
  6  7  1  0
  7  8  2  0
  8  9  1  0
  9 10  2  0
 10 11  1  0
 11 12  1  0
 12 13  1  0
 13 14  1  0
 13 15  1  0
 15 16  1  0
 16 17  1  0
 17 18  1  0
 17 19  1  0
 10 20  1  0
 20 21  2  0
 21  7  1  0
  1 22  1  0
  1 23  1  0
  1 24  1  0
  5 25  1  0
  5 26  1  0
  6 27  1  0
  6 28  1  0
  8 29  1  0
  9 30  1  0
 12 31  1  0
 12 32  1  0
 13 33  1  0
 14 34  1  0
 15 35  1  0
 15 36  1  0
 16 37  1  0
 17 38  1  0
 18 39  1  0
 18 40  1  0
 18 41  1  0
 19 42  1  0
 19 43  1  0
 19 44  1  0
 20 45  1  0
 21 46  1  0
M  END
$$$$
