@<TRIPOS>MOLECULE
*****
 21 22 0 0 0
SMALL
GASTEIGER

@<TRIPOS>ATOM
      1 C          -3.4700    0.2331   -0.6270 C.3     1  UNL1        0.0415
      2 C          -1.9986    0.4862   -0.4185 C.2     1  UNL1        0.3148
      3 N          -1.6287    1.7190   -0.3633 N.2     1  UNL1        0.0902
      4 S           0.0384    2.0511   -0.1270 S.O2    1  UNL1        0.1824
      5 O           0.2858    2.9301    1.0741 O.2     1  UNL1       -0.1250
      6 O           0.5397    2.8216   -1.3355 O.2     1  UNL1       -0.1250
      7 C           0.8796    0.5288   -0.0118 C.ar    1  UNL1        0.1802
      8 C           0.2144   -0.6755   -0.1088 C.ar    1  UNL1        0.1476
      9 N          -1.1943   -0.6679   -0.3077 N.pl3   1  UNL1       -0.2012
     10 C           0.9582   -1.8347   -0.0065 C.ar    1  UNL1       -0.0136
     11 C           2.3246   -1.7748    0.1867 C.ar    1  UNL1       -0.0395
     12 C           3.0034   -0.5668    0.2855 C.ar    1  UNL1        0.0432
     13 CL          4.7362   -0.6040    0.5303 Cl      1  UNL1       -0.0835
     14 C           2.2299    0.5954    0.1791 C.ar    1  UNL1       -0.0105
     15 H          -4.0170    1.1587   -0.8459 H       1  UNL1        0.0352
     16 H          -3.5936   -0.5268   -1.4280 H       1  UNL1        0.0352
     17 H          -3.8155   -0.2364    0.3130 H       1  UNL1        0.0352
     18 H          -1.5991   -1.6283   -0.3673 H       1  UNL1        0.2982
     19 H           0.4518   -2.8002   -0.0804 H       1  UNL1        0.0659
     20 H           2.8368   -2.7221    0.2567 H       1  UNL1        0.0633
     21 H           2.8179    1.5137    0.2644 H       1  UNL1        0.0654
@<TRIPOS>BOND
     1     1     2    1
     2     2     3    2
     3     3     4    1
     4     4     5    2
     5     4     6    2
     6     4     7    1
     7     7     8   ar
     8     8     9    1
     9     8    10   ar
    10    10    11   ar
    11    11    12   ar
    12    12    13    1
    13    12    14   ar
    14     9     2    1
    15    14     7   ar
    16     1    15    1
    17     1    16    1
    18     1    17    1
    19     9    18    1
    20    10    19    1
    21    11    20    1
    22    14    21    1
