
     RDKit          3D

 53 56  0  0  0  0  0  0  0  0999 V2000
   -9.3875    1.3372    0.3539 C   0  0  0  0  0  0  0  0  0  0  0  0
   -8.2583    1.3567    1.1514 O   0  0  0  0  0  0  0  0  0  0  0  0
   -7.2569    0.4230    1.2586 C   0  0  0  0  0  0  0  0  0  0  0  0
   -7.2103   -0.7663    0.5414 C   0  0  0  0  0  0  0  0  0  0  0  0
   -6.1488   -1.6310    0.7349 C   0  0  0  0  0  0  0  0  0  0  0  0
   -5.1052   -1.4079    1.6016 C   0  0  0  0  0  0  0  0  0  0  0  0
   -4.0158   -2.3985    1.7589 C   0  0  0  0  0  0  0  0  0  0  0  0
   -2.9425   -2.2759    0.8309 N   0  0  0  0  0  0  0  0  0  0  0  0
   -1.9281   -1.2853    0.8934 C   0  0  0  0  0  0  0  0  0  0  0  0
   -1.9508   -0.4351    1.8339 O   0  0  0  0  0  0  0  0  0  0  0  0
   -0.8523   -1.2014   -0.0853 C   0  0  0  0  0  0  0  0  0  0  0  0
    0.0884   -0.2020    0.0123 C   0  0  0  0  0  0  0  0  0  0  0  0
    1.0736   -0.1602   -0.9442 C   0  0  0  0  0  0  0  0  0  0  0  0
    2.0571    0.8280   -0.9115 C   0  0  0  0  0  0  0  0  0  0  0  0
    2.0290    1.6830    0.0164 O   0  0  0  0  0  0  0  0  0  0  0  0
    3.0275    0.8904   -1.8402 N   0  0  0  0  0  0  0  0  0  0  0  0
    4.0602    1.9050   -1.8470 C   0  0  0  0  0  0  0  0  0  0  0  0
    5.2718    1.5369   -1.0871 C   0  0  0  0  0  0  0  0  0  0  0  0
    5.4061    1.8182    0.2677 C   0  0  0  0  0  0  0  0  0  0  0  0
    6.5467    1.4745    0.9658 C   0  0  0  0  0  0  0  0  0  0  0  0
    7.6052    0.8364    0.3538 C   0  0  0  0  0  0  0  0  0  0  0  0
    8.8051    0.4808    1.1053 C   0  0  0  0  0  0  0  0  0  0  0  0
    9.7802   -0.0962    0.5702 O   0  0  0  0  0  0  0  0  0  0  0  0
    8.8746    0.7885    2.4508 O   0  0  0  0  0  0  0  0  0  0  0  0
    7.4600    0.5620   -0.9929 C   0  0  0  0  0  0  0  0  0  0  0  0
    6.3219    0.9001   -1.7109 C   0  0  0  0  0  0  0  0  0  0  0  0
    2.9903   -0.0589   -2.8009 C   0  0  0  0  0  0  0  0  0  0  0  0
    2.0612   -1.0262   -2.8675 N   0  0  0  0  0  0  0  0  0  0  0  0
    1.0729   -1.1154   -1.9496 C   0  0  0  0  0  0  0  0  0  0  0  0
    0.1219   -2.1141   -2.0357 C   0  0  0  0  0  0  0  0  0  0  0  0
   -0.8343   -2.1190   -1.0697 N   0  0  0  0  0  0  0  0  0  0  0  0
   -5.1562   -0.2244    2.3120 C   0  0  0  0  0  0  0  0  0  0  0  0
   -6.2019    0.6550    2.1389 C   0  0  0  0  0  0  0  0  0  0  0  0
   -9.5199    0.3346   -0.0898 H   0  0  0  0  0  0  0  0  0  0  0  0
   -9.2273    2.0589   -0.4772 H   0  0  0  0  0  0  0  0  0  0  0  0
  -10.3322    1.5520    0.9028 H   0  0  0  0  0  0  0  0  0  0  0  0
   -8.0078   -0.9876   -0.1504 H   0  0  0  0  0  0  0  0  0  0  0  0
   -6.1071   -2.5682    0.1689 H   0  0  0  0  0  0  0  0  0  0  0  0
   -3.5822   -2.3679    2.7939 H   0  0  0  0  0  0  0  0  0  0  0  0
   -4.4225   -3.4394    1.6691 H   0  0  0  0  0  0  0  0  0  0  0  0
   -2.8419   -2.9460    0.0158 H   0  0  0  0  0  0  0  0  0  0  0  0
    0.0942    0.5444    0.7944 H   0  0  0  0  0  0  0  0  0  0  0  0
    4.3143    2.2054   -2.9034 H   0  0  0  0  0  0  0  0  0  0  0  0
    3.5786    2.8329   -1.4237 H   0  0  0  0  0  0  0  0  0  0  0  0
    4.5874    2.3189    0.7682 H   0  0  0  0  0  0  0  0  0  0  0  0
    6.6636    1.6895    2.0300 H   0  0  0  0  0  0  0  0  0  0  0  0
    9.5202    0.3804    3.1115 H   0  0  0  0  0  0  0  0  0  0  0  0
    8.3018    0.0531   -1.4807 H   0  0  0  0  0  0  0  0  0  0  0  0
    6.2471    0.6653   -2.7817 H   0  0  0  0  0  0  0  0  0  0  0  0
    3.7814   -0.0114   -3.5638 H   0  0  0  0  0  0  0  0  0  0  0  0
    0.1266   -2.8581   -2.8248 H   0  0  0  0  0  0  0  0  0  0  0  0
   -4.3485   -0.0002    3.0220 H   0  0  0  0  0  0  0  0  0  0  0  0
   -6.2307    1.5854    2.7095 H   0  0  0  0  0  0  0  0  0  0  0  0
  1  2  1  0
  2  3  1  0
  3  4  2  0
  4  5  1  0
  5  6  2  0
  6  7  1  0
  7  8  1  0
  8  9  1  0
  9 10  2  0
  9 11  1  0
 11 12  2  0
 12 13  1  0
 13 14  1  0
 14 15  2  0
 14 16  1  0
 16 17  1  0
 17 18  1  0
 18 19  2  0
 19 20  1  0
 20 21  2  0
 21 22  1  0
 22 23  2  0
 22 24  1  0
 21 25  1  0
 25 26  2  0
 16 27  1  0
 27 28  2  0
 28 29  1  0
 29 30  1  0
 30 31  2  0
  6 32  1  0
 32 33  2  0
 33  3  1  0
 31 11  1  0
 29 13  2  0
 26 18  1  0
  1 34  1  0
  1 35  1  0
  1 36  1  0
  4 37  1  0
  5 38  1  0
  7 39  1  0
  7 40  1  0
  8 41  1  0
 12 42  1  0
 17 43  1  0
 17 44  1  0
 19 45  1  0
 20 46  1  0
 24 47  1  0
 25 48  1  0
 26 49  1  0
 27 50  1  0
 30 51  1  0
 32 52  1  0
 33 53  1  0
M  END
$$$$
