@<TRIPOS>MOLECULE
*****
 53 56 0 0 0
SMALL
GASTEIGER

@<TRIPOS>ATOM
      1 C          -9.3875    1.3372    0.3539 C.3     1  UNL1        0.0788
      2 O          -8.2583    1.3567    1.1514 O.3     1  UNL1       -0.4951
      3 C          -7.2569    0.4230    1.2586 C.ar    1  UNL1        0.1201
      4 C          -7.2103   -0.7663    0.5414 C.ar    1  UNL1       -0.0196
      5 C          -6.1488   -1.6310    0.7349 C.ar    1  UNL1       -0.0536
      6 C          -5.1052   -1.4079    1.6016 C.ar    1  UNL1       -0.0301
      7 C          -4.0158   -2.3985    1.7589 C.3     1  UNL1        0.0372
      8 N          -2.9425   -2.2759    0.8309 N.am    1  UNL1       -0.3060
      9 C          -1.9281   -1.2853    0.8934 C.2     1  UNL1        0.2627
     10 O          -1.9508   -0.4351    1.8339 O.2     1  UNL1       -0.2685
     11 C          -0.8523   -1.2014   -0.0853 C.ar    1  UNL1        0.1262
     12 C           0.0884   -0.2020    0.0123 C.ar    1  UNL1       -0.0168
     13 C           1.0736   -0.1602   -0.9442 C.ar    1  UNL1        0.0685
     14 C           2.0571    0.8280   -0.9115 C.ar    1  UNL1        0.2620
     15 O           2.0290    1.6830    0.0164 O.2     1  UNL1       -0.2669
     16 N           3.0275    0.8904   -1.8402 N.ar    1  UNL1       -0.2943
     17 C           4.0602    1.9050   -1.8470 C.3     1  UNL1        0.0525
     18 C           5.2718    1.5369   -1.0871 C.ar    1  UNL1       -0.0276
     19 C           5.4061    1.8182    0.2677 C.ar    1  UNL1       -0.0561
     20 C           6.5467    1.4745    0.9658 C.ar    1  UNL1       -0.0475
     21 C           7.6052    0.8364    0.3538 C.ar    1  UNL1        0.0589
     22 C           8.8051    0.4808    1.1053 C.2     1  UNL1        0.3368
     23 O           9.7802   -0.0962    0.5702 O.2     1  UNL1       -0.2451
     24 O           8.8746    0.7885    2.4508 O.3     1  UNL1       -0.4771
     25 C           7.4600    0.5620   -0.9929 C.ar    1  UNL1       -0.0475
     26 C           6.3219    0.9001   -1.7109 C.ar    1  UNL1       -0.0561
     27 C           2.9903   -0.0589   -2.8009 C.ar    1  UNL1        0.0996
     28 N           2.0612   -1.0262   -2.8675 N.ar    1  UNL1       -0.2354
     29 C           1.0729   -1.1154   -1.9496 C.ar    1  UNL1        0.0959
     30 C           0.1219   -2.1141   -2.0357 C.ar    1  UNL1        0.0546
     31 N          -0.8343   -2.1190   -1.0697 N.ar    1  UNL1       -0.2482
     32 C          -5.1562   -0.2244    2.3120 C.ar    1  UNL1       -0.0536
     33 C          -6.2019    0.6550    2.1389 C.ar    1  UNL1       -0.0196
     34 H          -9.5199    0.3346   -0.0898 H       1  UNL1        0.0660
     35 H          -9.2273    2.0589   -0.4772 H       1  UNL1        0.0660
     36 H         -10.3322    1.5520    0.9028 H       1  UNL1        0.0660
     37 H          -8.0078   -0.9876   -0.1504 H       1  UNL1        0.0654
     38 H          -6.1071   -2.5682    0.1689 H       1  UNL1        0.0622
     39 H          -3.5822   -2.3679    2.7939 H       1  UNL1        0.0512
     40 H          -4.4225   -3.4394    1.6691 H       1  UNL1        0.0512
     41 H          -2.8419   -2.9460    0.0158 H       1  UNL1        0.1494
     42 H           0.0942    0.5444    0.7944 H       1  UNL1        0.0649
     43 H           4.3143    2.2054   -2.9034 H       1  UNL1        0.0543
     44 H           3.5786    2.8329   -1.4237 H       1  UNL1        0.0543
     45 H           4.5874    2.3189    0.7682 H       1  UNL1        0.0621
     46 H           6.6636    1.6895    2.0300 H       1  UNL1        0.0626
     47 H           9.5202    0.3804    3.1115 H       1  UNL1        0.2954
     48 H           8.3018    0.0531   -1.4807 H       1  UNL1        0.0626
     49 H           6.2471    0.6653   -2.7817 H       1  UNL1        0.0621
     50 H           3.7814   -0.0114   -3.5638 H       1  UNL1        0.1030
     51 H           0.1266   -2.8581   -2.8248 H       1  UNL1        0.0852
     52 H          -4.3485   -0.0002    3.0220 H       1  UNL1        0.0622
     53 H          -6.2307    1.5854    2.7095 H       1  UNL1        0.0654
@<TRIPOS>BOND
     1     1     2    1
     2     2     3    1
     3     3     4   ar
     4     4     5   ar
     5     5     6   ar
     6     6     7    1
     7     7     8    1
     8     8     9   am
     9     9    10    2
    10     9    11    1
    11    11    12   ar
    12    12    13   ar
    13    13    14   ar
    14    14    15    2
    15    14    16   ar
    16    16    17    1
    17    17    18    1
    18    18    19   ar
    19    19    20   ar
    20    20    21   ar
    21    21    22    1
    22    22    23    2
    23    22    24    1
    24    21    25   ar
    25    25    26   ar
    26    16    27   ar
    27    27    28   ar
    28    28    29   ar
    29    29    30   ar
    30    30    31   ar
    31     6    32   ar
    32    32    33   ar
    33    33     3   ar
    34    31    11   ar
    35    29    13   ar
    36    26    18   ar
    37     1    34    1
    38     1    35    1
    39     1    36    1
    40     4    37    1
    41     5    38    1
    42     7    39    1
    43     7    40    1
    44     8    41    1
    45    12    42    1
    46    17    43    1
    47    17    44    1
    48    19    45    1
    49    20    46    1
    50    24    47    1
    51    25    48    1
    52    26    49    1
    53    27    50    1
    54    30    51    1
    55    32    52    1
    56    33    53    1
