
     RDKit          3D

 48 51  0  0  0  0  0  0  0  0999 V2000
   -6.4707   -0.0281    2.9664 C   0  0  0  0  0  0  0  0  0  0  0  0
   -5.7529   -0.2127    1.7699 O   0  0  0  0  0  0  0  0  0  0  0  0
   -4.5084    0.3006    1.5008 C   0  0  0  0  0  0  0  0  0  0  0  0
   -3.9301    0.9949    2.3637 O   0  0  0  0  0  0  0  0  0  0  0  0
   -3.8516    0.0460    0.2203 C   0  0  2  0  0  0  0  0  0  0  0  0
   -3.5988   -1.4223   -0.1191 C   0  0  0  0  0  0  0  0  0  0  0  0
   -2.4972   -0.4992    0.1387 C   0  0  1  0  0  0  0  0  0  0  0  0
   -1.5973    0.0749   -0.8704 C   0  0  1  0  0  0  0  0  0  0  0  0
   -1.0842    1.4331   -0.3011 C   0  0  0  0  0  0  0  0  0  0  0  0
   -0.3729   -0.7748   -0.9681 C   0  0  0  0  0  0  0  0  0  0  0  0
    0.8634   -0.3857   -0.4789 C   0  0  0  0  0  0  0  0  0  0  0  0
    1.9636   -1.1994   -0.5576 C   0  0  0  0  0  0  0  0  0  0  0  0
    3.2664   -0.8019   -0.0394 C   0  0  0  0  0  0  0  0  0  0  0  0
    3.7485    0.4164   -0.1675 C   0  0  0  0  0  0  0  0  0  0  0  0
    2.9496    1.3041   -0.8256 F   0  0  0  0  0  0  0  0  0  0  0  0
    5.0371    0.8707    0.3344 C   0  0  0  0  0  0  0  0  0  0  0  0
    5.8464    0.0032    1.0055 C   0  0  0  0  0  0  0  0  0  0  0  0
    7.0723    0.4867    1.4725 C   0  0  0  0  0  0  0  0  0  0  0  0
    7.4456    1.7841    1.2622 C   0  0  0  0  0  0  0  0  0  0  0  0
    8.9980    2.2974    1.8846 Cl  0  0  0  0  0  0  0  0  0  0  0  0
    6.6036    2.6291    0.5809 C   0  0  0  0  0  0  0  0  0  0  0  0
    5.4465    2.1411    0.1505 N   0  0  0  0  0  0  0  0  0  0  0  0
    1.8029   -2.4527   -1.1555 C   0  0  0  0  0  0  0  0  0  0  0  0
    0.5841   -2.8557   -1.6472 C   0  0  0  0  0  0  0  0  0  0  0  0
   -0.5218   -2.0138   -1.5569 C   0  0  0  0  0  0  0  0  0  0  0  0
   -1.6955   -2.4494   -2.0664 F   0  0  0  0  0  0  0  0  0  0  0  0
   -2.0885    0.2775   -2.1840 N   0  0  0  0  0  0  0  0  0  0  0  0
   -3.2410    0.7372   -2.5175 C   0  0  0  0  0  0  0  0  0  0  0  0
   -3.6498    0.9072   -3.8672 N   0  0  0  0  0  0  0  0  0  0  0  0
   -4.3133    1.1525   -1.1245 S   0  0  0  0  0  0  0  0  0  0  0  0
   -6.1654    0.8781    3.5310 H   0  0  0  0  0  0  0  0  0  0  0  0
   -6.2858   -0.8988    3.6266 H   0  0  0  0  0  0  0  0  0  0  0  0
   -7.5799   -0.0106    2.7934 H   0  0  0  0  0  0  0  0  0  0  0  0
   -3.8674   -2.1710    0.6844 H   0  0  0  0  0  0  0  0  0  0  0  0
   -4.0170   -1.7049   -1.0833 H   0  0  0  0  0  0  0  0  0  0  0  0
   -1.9903   -0.6236    1.1423 H   0  0  0  0  0  0  0  0  0  0  0  0
   -0.8092    1.2761    0.7384 H   0  0  0  0  0  0  0  0  0  0  0  0
   -0.3195    1.8697   -0.9467 H   0  0  0  0  0  0  0  0  0  0  0  0
   -1.9784    2.1248   -0.2882 H   0  0  0  0  0  0  0  0  0  0  0  0
    0.9482    0.5889   -0.0190 H   0  0  0  0  0  0  0  0  0  0  0  0
    3.8475   -1.5536    0.4697 H   0  0  0  0  0  0  0  0  0  0  0  0
    5.6087   -1.0448    1.2089 H   0  0  0  0  0  0  0  0  0  0  0  0
    7.7338   -0.1953    2.0138 H   0  0  0  0  0  0  0  0  0  0  0  0
    6.9222    3.6508    0.4272 H   0  0  0  0  0  0  0  0  0  0  0  0
    2.6617   -3.1122   -1.2283 H   0  0  0  0  0  0  0  0  0  0  0  0
    0.4418   -3.8350   -2.1228 H   0  0  0  0  0  0  0  0  0  0  0  0
   -3.9747    0.1329   -4.4875 H   0  0  0  0  0  0  0  0  0  0  0  0
   -3.6303    1.8674   -4.2785 H   0  0  0  0  0  0  0  0  0  0  0  0
  1  2  1  0
  2  3  1  0
  3  4  2  0
  5  3  1  1
  5  6  1  0
  6  7  1  0
  7  8  1  0
  8  9  1  1
  8 10  1  0
 10 11  2  0
 11 12  1  0
 12 13  1  0
 13 14  2  0
 14 15  1  0
 14 16  1  0
 16 17  2  0
 17 18  1  0
 18 19  2  0
 19 20  1  0
 19 21  1  0
 21 22  2  0
 12 23  2  0
 23 24  1  0
 24 25  2  0
 25 26  1  0
  8 27  1  0
 27 28  2  0
 28 29  1  0
 28 30  1  0
  7  5  1  0
 25 10  1  0
 30  5  1  0
 22 16  1  0
  1 31  1  0
  1 32  1  0
  1 33  1  0
  6 34  1  0
  6 35  1  0
  7 36  1  1
  9 37  1  0
  9 38  1  0
  9 39  1  0
 11 40  1  0
 13 41  1  0
 17 42  1  0
 18 43  1  0
 21 44  1  0
 23 45  1  0
 24 46  1  0
 29 47  1  0
 29 48  1  0
M  END
$$$$
