@<TRIPOS>MOLECULE
*****
 48 51 0 0 0
SMALL
GASTEIGER

@<TRIPOS>ATOM
      1 C          -6.4707   -0.0281    2.9664 C.3     1  UNL1        0.0817
      2 O          -5.7529   -0.2127    1.7699 O.3     1  UNL1       -0.4670
      3 C          -4.5084    0.3006    1.5008 C.2     1  UNL1        0.3238
      4 O          -3.9301    0.9949    2.3637 O.2     1  UNL1       -0.2493
      5 C          -3.8516    0.0460    0.2203 C.3     1  UNL1        0.1259
      6 C          -3.5988   -1.4223   -0.1191 C.3     1  UNL1       -0.0201
      7 C          -2.4972   -0.4992    0.1387 C.3     1  UNL1        0.0154
      8 C          -1.5973    0.0749   -0.8704 C.3     1  UNL1        0.0936
      9 C          -1.0842    1.4331   -0.3011 C.3     1  UNL1       -0.0351
     10 C          -0.3729   -0.7748   -0.9681 C.ar    1  UNL1        0.0158
     11 C           0.8634   -0.3857   -0.4789 C.ar    1  UNL1       -0.0463
     12 C           1.9636   -1.1994   -0.5576 C.ar    1  UNL1       -0.0217
     13 C           3.2664   -0.8019   -0.0394 C.2     1  UNL1       -0.0172
     14 C           3.7485    0.4164   -0.1675 C.2     1  UNL1        0.1492
     15 F           2.9496    1.3041   -0.8256 F       1  UNL1       -0.2032
     16 C           5.0371    0.8707    0.3344 C.ar    1  UNL1        0.0990
     17 C           5.8464    0.0032    1.0055 C.ar    1  UNL1       -0.0321
     18 C           7.0723    0.4867    1.4725 C.ar    1  UNL1       -0.0398
     19 C           7.4456    1.7841    1.2622 C.ar    1  UNL1        0.0591
     20 CL          8.9980    2.2974    1.8846 Cl      1  UNL1       -0.0820
     21 C           6.6036    2.6291    0.5809 C.ar    1  UNL1        0.0466
     22 N           5.4465    2.1411    0.1505 N.ar    1  UNL1       -0.2512
     23 C           1.8029   -2.4527   -1.1555 C.ar    1  UNL1       -0.0518
     24 C           0.5841   -2.8557   -1.6472 C.ar    1  UNL1       -0.0255
     25 C          -0.5218   -2.0138   -1.5569 C.ar    1  UNL1        0.1289
     26 F          -1.6955   -2.4494   -2.0664 F       1  UNL1       -0.2051
     27 N          -2.0885    0.2775   -2.1840 N.2     1  UNL1       -0.2521
     28 C          -3.2410    0.7372   -2.5175 C.2     1  UNL1        0.1485
     29 N          -3.6498    0.9072   -3.8672 N.pl3   1  UNL1       -0.3380
     30 S          -4.3133    1.1525   -1.1245 S.3     1  UNL1       -0.0726
     31 H          -6.1654    0.8781    3.5310 H       1  UNL1        0.0661
     32 H          -6.2858   -0.8988    3.6266 H       1  UNL1        0.0661
     33 H          -7.5799   -0.0106    2.7934 H       1  UNL1        0.0661
     34 H          -3.8674   -2.1710    0.6844 H       1  UNL1        0.0288
     35 H          -4.0170   -1.7049   -1.0833 H       1  UNL1        0.0288
     36 H          -1.9903   -0.6236    1.1423 H       1  UNL1        0.0347
     37 H          -0.8092    1.2761    0.7384 H       1  UNL1        0.0256
     38 H          -0.3195    1.8697   -0.9467 H       1  UNL1        0.0256
     39 H          -1.9784    2.1248   -0.2882 H       1  UNL1        0.0256
     40 H           0.9482    0.5889   -0.0190 H       1  UNL1        0.0628
     41 H           3.8475   -1.5536    0.4697 H       1  UNL1        0.0653
     42 H           5.6087   -1.0448    1.2089 H       1  UNL1        0.0640
     43 H           7.7338   -0.1953    2.0138 H       1  UNL1        0.0633
     44 H           6.9222    3.6508    0.4272 H       1  UNL1        0.0844
     45 H           2.6617   -3.1122   -1.2283 H       1  UNL1        0.0624
     46 H           0.4418   -3.8350   -2.1228 H       1  UNL1        0.0646
     47 H          -3.9747    0.1329   -4.4875 H       1  UNL1        0.1442
     48 H          -3.6303    1.8674   -4.2785 H       1  UNL1        0.1442
@<TRIPOS>BOND
     1     1     2    1
     2     2     3    1
     3     3     4    2
     4     5     3    1
     5     5     6    1
     6     6     7    1
     7     7     8    1
     8     8     9    1
     9     8    10    1
    10    10    11   ar
    11    11    12   ar
    12    12    13    1
    13    13    14    2
    14    14    15    1
    15    14    16    1
    16    16    17   ar
    17    17    18   ar
    18    18    19   ar
    19    19    20    1
    20    19    21   ar
    21    21    22   ar
    22    12    23   ar
    23    23    24   ar
    24    24    25   ar
    25    25    26    1
    26     8    27    1
    27    27    28    2
    28    28    29    1
    29    28    30    1
    30     7     5    1
    31    25    10   ar
    32    30     5    1
    33    22    16   ar
    34     1    31    1
    35     1    32    1
    36     1    33    1
    37     6    34    1
    38     6    35    1
    39     7    36    1
    40     9    37    1
    41     9    38    1
    42     9    39    1
    43    11    40    1
    44    13    41    1
    45    17    42    1
    46    18    43    1
    47    21    44    1
    48    23    45    1
    49    24    46    1
    50    29    47    1
    51    29    48    1
