@<TRIPOS>MOLECULE
*****
 39 40 0 0 0
SMALL
GASTEIGER

@<TRIPOS>ATOM
      1 C           2.2953    2.7725   -1.5796 C.2     1  UNL1       -0.1012
      2 C           2.5751    1.8517   -0.5532 C.2     1  UNL1       -0.0739
      3 C           2.4339    0.4648   -1.0576 C.3     1  UNL1        0.0329
      4 N           1.2908   -0.1503   -0.2568 N.am    1  UNL1       -0.2932
      5 C           1.6677   -1.1678    0.6686 C.3     1  UNL1        0.0329
      6 C           1.9507   -0.5974    2.0093 C.2     1  UNL1       -0.0739
      7 C           3.1319   -0.7472    2.6067 C.2     1  UNL1       -0.1012
      8 C           0.0120    0.3387   -0.5297 C.2     1  UNL1        0.2274
      9 O          -0.0260    1.3407   -1.3443 O.2     1  UNL1       -0.2746
     10 C          -1.2864   -0.0722   -0.0365 C.3     1  UNL1        0.0824
     11 C          -1.4854   -1.5646    0.1233 C.ar    1  UNL1        0.0050
     12 C          -1.3117   -2.5762   -0.7880 C.ar    1  UNL1       -0.0505
     13 C          -1.5678   -3.8354   -0.4132 C.ar    1  UNL1       -0.0544
     14 C          -1.9924   -4.1411    0.8237 C.ar    1  UNL1       -0.0240
     15 S          -2.0266   -2.4016    1.5469 S.2     1  UNL1       -0.1006
     16 C          -1.6395    0.6413    1.2664 C.3     1  UNL1       -0.0289
     17 C          -2.4472    0.8393   -0.0113 C.3     1  UNL1       -0.0089
     18 C          -2.5157    2.2163   -0.5574 C.3     1  UNL1       -0.0028
     19 N          -2.3017    2.3811   -1.9564 N.3     1  UNL1       -0.3297
     20 H           2.0594    2.3999   -2.5151 H       1  UNL1        0.0532
     21 H           2.3461    3.8111   -1.3277 H       1  UNL1        0.0532
     22 H           2.8316    2.1645    0.3646 H       1  UNL1        0.0582
     23 H           2.2320    0.3657   -2.1025 H       1  UNL1        0.0508
     24 H           3.3224   -0.0899   -0.7569 H       1  UNL1        0.0508
     25 H           0.9736   -2.0389    0.7312 H       1  UNL1        0.0508
     26 H           2.6306   -1.6331    0.3012 H       1  UNL1        0.0508
     27 H           1.1831   -0.0193    2.5625 H       1  UNL1        0.0582
     28 H           3.8843   -1.3133    2.0551 H       1  UNL1        0.0532
     29 H           3.3148   -0.3286    3.5763 H       1  UNL1        0.0532
     30 H          -0.9623   -2.3229   -1.8293 H       1  UNL1        0.0626
     31 H          -1.4364   -4.7106   -1.1302 H       1  UNL1        0.0623
     32 H          -2.2613   -4.9584    1.3724 H       1  UNL1        0.0693
     33 H          -2.0810    0.0627    2.1088 H       1  UNL1        0.0282
     34 H          -1.0428    1.5094    1.5534 H       1  UNL1        0.0282
     35 H          -3.4567    0.3361    0.0575 H       1  UNL1        0.0327
     36 H          -1.8067    2.9221    0.0030 H       1  UNL1        0.0425
     37 H          -3.5116    2.6475   -0.3248 H       1  UNL1        0.0425
     38 H          -3.2084    2.3398   -2.4769 H       1  UNL1        0.1182
     39 H          -1.7677    3.2633   -2.1834 H       1  UNL1        0.1182
@<TRIPOS>BOND
     1     1     2    2
     2     2     3    1
     3     3     4    1
     4     4     5    1
     5     5     6    1
     6     6     7    2
     7     4     8   am
     8     8     9    2
     9    10     8    1
    10    10    11    1
    11    11    12   ar
    12    12    13   ar
    13    13    14   ar
    14    14    15   ar
    15    10    16    1
    16    16    17    1
    17    17    18    1
    18    18    19    1
    19    17    10    1
    20    15    11   ar
    21     1    20    1
    22     1    21    1
    23     2    22    1
    24     3    23    1
    25     3    24    1
    26     5    25    1
    27     5    26    1
    28     6    27    1
    29     7    28    1
    30     7    29    1
    31    12    30    1
    32    13    31    1
    33    14    32    1
    34    16    33    1
    35    16    34    1
    36    17    35    1
    37    18    36    1
    38    18    37    1
    39    19    38    1
    40    19    39    1
