@<TRIPOS>MOLECULE
*****
 41 43 0 0 0
SMALL
GASTEIGER

@<TRIPOS>ATOM
      1 C           0.2421    0.4939   -2.5568 C.3     1  UNL1       -0.0607
      2 C          -0.0717   -0.7660   -1.7876 C.3     1  UNL1       -0.0231
      3 C          -1.2806   -0.6552   -0.9814 C.ar    1  UNL1        0.0060
      4 S          -2.9101   -1.1078   -1.7553 S.2     1  UNL1       -0.0723
      5 C          -3.8886   -0.6510   -0.3513 C.ar    1  UNL1        0.1183
      6 N          -5.2290   -0.6988   -0.1598 N.ar    1  UNL1       -0.2087
      7 C          -5.7562   -0.2867    1.0223 C.ar    1  UNL1        0.1940
      8 N          -7.1409   -0.3086    1.2909 N.pl3   1  UNL1       -0.3289
      9 N          -4.9140    0.1559    1.9597 N.ar    1  UNL1       -0.2947
     10 C          -3.5885    0.2084    1.7851 C.ar    1  UNL1        0.2620
     11 O          -2.9178    0.6467    2.7511 O.2     1  UNL1       -0.2671
     12 C          -2.9787   -0.2083    0.5726 C.ar    1  UNL1        0.0860
     13 C          -1.6646   -0.2299    0.2089 C.ar    1  UNL1        0.0375
     14 S          -0.4261    0.2428    1.4727 S.3     1  UNL1       -0.0840
     15 C           1.2280    0.0067    1.0346 C.ar    1  UNL1        0.0578
     16 C           1.9159   -1.1862    1.2009 C.ar    1  UNL1       -0.0027
     17 C           3.2357   -1.2504    0.8829 C.ar    1  UNL1        0.1214
     18 O           3.9318   -2.4558    1.0512 O.3     1  UNL1       -0.4951
     19 C           5.3046   -2.5538    0.7289 C.3     1  UNL1        0.0788
     20 C           3.9397   -0.1714    0.3949 C.ar    1  UNL1       -0.0164
     21 C           3.2593    1.0407    0.2214 C.ar    1  UNL1       -0.0154
     22 C           1.9313    1.1206    0.5370 C.ar    1  UNL1        0.1340
     23 O           1.2282    2.3322    0.3725 O.3     1  UNL1       -0.4940
     24 C           1.9272    3.4409   -0.1245 C.3     1  UNL1        0.0788
     25 H           0.6835    1.2934   -1.9969 H       1  UNL1        0.0233
     26 H          -0.6288    0.8037   -3.1886 H       1  UNL1        0.0233
     27 H           1.0106    0.1858   -3.3285 H       1  UNL1        0.0233
     28 H          -0.2610   -1.5427   -2.5955 H       1  UNL1        0.0316
     29 H           0.8365   -1.0889   -1.3098 H       1  UNL1        0.0316
     30 H          -7.5813   -1.1464    1.7118 H       1  UNL1        0.1451
     31 H          -7.7386    0.5076    1.0715 H       1  UNL1        0.1451
     32 H          -5.3122    0.4834    2.8934 H       1  UNL1        0.1716
     33 H           1.3972   -2.0316    1.5741 H       1  UNL1        0.0666
     34 H           5.8755   -1.8565    1.4016 H       1  UNL1        0.0660
     35 H           5.6425   -3.5818    0.9335 H       1  UNL1        0.0660
     36 H           5.4795   -2.2191   -0.2999 H       1  UNL1        0.0660
     37 H           4.9944   -0.2156    0.1388 H       1  UNL1        0.0655
     38 H           3.8262    1.8964   -0.1641 H       1  UNL1        0.0655
     39 H           1.2349    4.2232   -0.5288 H       1  UNL1        0.0660
     40 H           2.5390    3.9053    0.6968 H       1  UNL1        0.0660
     41 H           2.6248    3.2248   -0.9549 H       1  UNL1        0.0660
@<TRIPOS>BOND
     1     1     2    1
     2     2     3    1
     3     3     4   ar
     4     4     5   ar
     5     5     6   ar
     6     6     7   ar
     7     7     8    1
     8     7     9   ar
     9     9    10   ar
    10    10    11    2
    11    10    12   ar
    12    12    13   ar
    13    13    14    1
    14    14    15    1
    15    15    16   ar
    16    16    17   ar
    17    17    18    1
    18    18    19    1
    19    17    20   ar
    20    20    21   ar
    21    21    22   ar
    22    22    23    1
    23    23    24    1
    24    13     3   ar
    25    22    15   ar
    26    12     5   ar
    27     1    25    1
    28     1    26    1
    29     1    27    1
    30     2    28    1
    31     2    29    1
    32     8    30    1
    33     8    31    1
    34     9    32    1
    35    16    33    1
    36    19    34    1
    37    19    35    1
    38    19    36    1
    39    20    37    1
    40    21    38    1
    41    24    39    1
    42    24    40    1
    43    24    41    1
