
     RDKit          3D

 41 43  0  0  0  0  0  0  0  0999 V2000
    0.2421    0.4939   -2.5568 C   0  0  0  0  0  0  0  0  0  0  0  0
   -0.0717   -0.7660   -1.7876 C   0  0  0  0  0  0  0  0  0  0  0  0
   -1.2806   -0.6552   -0.9814 C   0  0  0  0  0  0  0  0  0  0  0  0
   -2.9101   -1.1078   -1.7553 S   0  0  0  0  0  0  0  0  0  0  0  0
   -3.8886   -0.6510   -0.3513 C   0  0  0  0  0  0  0  0  0  0  0  0
   -5.2290   -0.6988   -0.1598 N   0  0  0  0  0  0  0  0  0  0  0  0
   -5.7562   -0.2867    1.0223 C   0  0  0  0  0  0  0  0  0  0  0  0
   -7.1409   -0.3086    1.2909 N   0  0  0  0  0  0  0  0  0  0  0  0
   -4.9140    0.1559    1.9597 N   0  0  0  0  0  0  0  0  0  0  0  0
   -3.5885    0.2084    1.7851 C   0  0  0  0  0  0  0  0  0  0  0  0
   -2.9178    0.6467    2.7511 O   0  0  0  0  0  0  0  0  0  0  0  0
   -2.9787   -0.2083    0.5726 C   0  0  0  0  0  0  0  0  0  0  0  0
   -1.6646   -0.2299    0.2089 C   0  0  0  0  0  0  0  0  0  0  0  0
   -0.4261    0.2428    1.4727 S   0  0  0  0  0  0  0  0  0  0  0  0
    1.2280    0.0067    1.0346 C   0  0  0  0  0  0  0  0  0  0  0  0
    1.9159   -1.1862    1.2009 C   0  0  0  0  0  0  0  0  0  0  0  0
    3.2357   -1.2504    0.8829 C   0  0  0  0  0  0  0  0  0  0  0  0
    3.9318   -2.4558    1.0512 O   0  0  0  0  0  0  0  0  0  0  0  0
    5.3046   -2.5538    0.7289 C   0  0  0  0  0  0  0  0  0  0  0  0
    3.9397   -0.1714    0.3949 C   0  0  0  0  0  0  0  0  0  0  0  0
    3.2593    1.0407    0.2214 C   0  0  0  0  0  0  0  0  0  0  0  0
    1.9313    1.1206    0.5370 C   0  0  0  0  0  0  0  0  0  0  0  0
    1.2282    2.3322    0.3725 O   0  0  0  0  0  0  0  0  0  0  0  0
    1.9272    3.4409   -0.1245 C   0  0  0  0  0  0  0  0  0  0  0  0
    0.6835    1.2934   -1.9969 H   0  0  0  0  0  0  0  0  0  0  0  0
   -0.6288    0.8037   -3.1886 H   0  0  0  0  0  0  0  0  0  0  0  0
    1.0106    0.1858   -3.3285 H   0  0  0  0  0  0  0  0  0  0  0  0
   -0.2610   -1.5427   -2.5955 H   0  0  0  0  0  0  0  0  0  0  0  0
    0.8365   -1.0889   -1.3098 H   0  0  0  0  0  0  0  0  0  0  0  0
   -7.5813   -1.1464    1.7118 H   0  0  0  0  0  0  0  0  0  0  0  0
   -7.7386    0.5076    1.0715 H   0  0  0  0  0  0  0  0  0  0  0  0
   -5.3122    0.4834    2.8934 H   0  0  0  0  0  0  0  0  0  0  0  0
    1.3972   -2.0316    1.5741 H   0  0  0  0  0  0  0  0  0  0  0  0
    5.8755   -1.8565    1.4016 H   0  0  0  0  0  0  0  0  0  0  0  0
    5.6425   -3.5818    0.9335 H   0  0  0  0  0  0  0  0  0  0  0  0
    5.4795   -2.2191   -0.2999 H   0  0  0  0  0  0  0  0  0  0  0  0
    4.9944   -0.2156    0.1388 H   0  0  0  0  0  0  0  0  0  0  0  0
    3.8262    1.8964   -0.1641 H   0  0  0  0  0  0  0  0  0  0  0  0
    1.2349    4.2232   -0.5288 H   0  0  0  0  0  0  0  0  0  0  0  0
    2.5390    3.9053    0.6968 H   0  0  0  0  0  0  0  0  0  0  0  0
    2.6248    3.2248   -0.9549 H   0  0  0  0  0  0  0  0  0  0  0  0
  1  2  1  0
  2  3  1  0
  3  4  1  0
  4  5  1  0
  5  6  1  0
  6  7  2  0
  7  8  1  0
  7  9  1  0
  9 10  1  0
 10 11  2  0
 10 12  1  0
 12 13  1  0
 13 14  1  0
 14 15  1  0
 15 16  2  0
 16 17  1  0
 17 18  1  0
 18 19  1  0
 17 20  2  0
 20 21  1  0
 21 22  2  0
 22 23  1  0
 23 24  1  0
 13  3  2  0
 22 15  1  0
 12  5  2  0
  1 25  1  0
  1 26  1  0
  1 27  1  0
  2 28  1  0
  2 29  1  0
  8 30  1  0
  8 31  1  0
  9 32  1  0
 16 33  1  0
 19 34  1  0
 19 35  1  0
 19 36  1  0
 20 37  1  0
 21 38  1  0
 24 39  1  0
 24 40  1  0
 24 41  1  0
M  END
$$$$
