@<TRIPOS>MOLECULE
*****
 44 47 0 0 0
SMALL
GASTEIGER

@<TRIPOS>ATOM
      1 C           0.4604   -2.1435    2.6708 C.3     1  UNL1       -0.0260
      2 C           1.3750   -2.0082    1.5032 C.2     1  UNL1        0.0161
      3 C           0.9227   -1.3917    0.4426 C.2     1  UNL1        0.0392
      4 C          -0.3704   -0.7984    0.2102 C.2     1  UNL1        0.2463
      5 O          -0.4874   -0.2522   -0.9732 O.2     1  UNL1       -0.2701
      6 N          -1.5104   -0.6912    0.9844 N.am    1  UNL1       -0.2817
      7 C          -2.6812   -0.0096    0.4400 C.ar    1  UNL1        0.0344
      8 C          -3.6428   -0.7010   -0.2609 C.ar    1  UNL1       -0.0384
      9 C          -4.7713   -0.1269   -0.8026 C.ar    1  UNL1       -0.0345
     10 C          -4.9185    1.2400   -0.6111 C.ar    1  UNL1        0.0658
     11 N          -5.9038    2.0721   -1.0169 N.ar    1  UNL1       -0.2770
     12 N          -5.6137    3.2901   -0.6008 N.ar    1  UNL1       -0.1812
     13 C          -4.4480    3.2781    0.0765 C.ar    1  UNL1        0.0569
     14 C          -3.9826    1.9861    0.0859 C.ar    1  UNL1        0.0212
     15 C          -2.8650    1.3454    0.6076 C.ar    1  UNL1       -0.0298
     16 C           1.8630   -1.2652   -0.7525 C.3     1  UNL1        0.0239
     17 C           2.4477    0.0912   -0.8151 C.ar    1  UNL1       -0.0378
     18 C           2.1831    0.9075   -1.9263 C.ar    1  UNL1       -0.0565
     19 C           2.7181    2.1561   -1.9890 C.ar    1  UNL1       -0.0417
     20 C           3.5192    2.6298   -0.9710 C.ar    1  UNL1        0.0593
     21 CL          4.1664    4.2425   -1.1285 Cl      1  UNL1       -0.0820
     22 C           3.7976    1.8488    0.1360 C.ar    1  UNL1        0.0595
     23 CL          4.8162    2.4794    1.4079 Cl      1  UNL1       -0.0820
     24 C           3.2559    0.5855    0.1988 C.ar    1  UNL1       -0.0382
     25 C           2.9261   -2.2873   -0.7751 C.3     1  UNL1        0.0353
     26 C           3.5728   -2.4687    0.5511 C.2     1  UNL1        0.2179
     27 O           4.8135   -2.5236    0.7054 O.2     1  UNL1       -0.2754
     28 N           2.6888   -2.5769    1.6409 N.am    1  UNL1       -0.2889
     29 H           0.2657   -1.1614    3.1387 H       1  UNL1        0.0290
     30 H           1.0733   -2.6559    3.4955 H       1  UNL1        0.0290
     31 H          -0.3705   -2.8222    2.5324 H       1  UNL1        0.0290
     32 H          -1.5226   -1.0862    1.9078 H       1  UNL1        0.1551
     33 H          -3.5169   -1.7626   -0.4028 H       1  UNL1        0.0637
     34 H          -5.5049   -0.7125   -1.3490 H       1  UNL1        0.0639
     35 H          -6.7461    1.7640   -1.5705 H       1  UNL1        0.1889
     36 H          -3.9174    4.0996    0.5526 H       1  UNL1        0.0854
     37 H          -2.1517    1.9335    1.1428 H       1  UNL1        0.0643
     38 H           1.2469   -1.4214   -1.6904 H       1  UNL1        0.0404
     39 H           1.5573    0.5038   -2.6947 H       1  UNL1        0.0621
     40 H           2.4966    2.7693   -2.8634 H       1  UNL1        0.0633
     41 H           3.4943    0.0077    1.0748 H       1  UNL1        0.0635
     42 H           3.7420   -2.0073   -1.4653 H       1  UNL1        0.0368
     43 H           2.5457   -3.2931   -1.1102 H       1  UNL1        0.0368
     44 H           2.9768   -3.0636    2.5437 H       1  UNL1        0.1545
@<TRIPOS>BOND
     1     1     2    1
     2     2     3    2
     3     3     4    1
     4     4     5    2
     5     4     6   am
     6     6     7    1
     7     7     8   ar
     8     8     9   ar
     9     9    10   ar
    10    10    11   ar
    11    11    12   ar
    12    12    13   ar
    13    13    14   ar
    14    14    15   ar
    15     3    16    1
    16    16    17    1
    17    17    18   ar
    18    18    19   ar
    19    19    20   ar
    20    20    21    1
    21    20    22   ar
    22    22    23    1
    23    22    24   ar
    24    16    25    1
    25    25    26    1
    26    26    27    2
    27    26    28   am
    28    28     2    1
    29    15     7   ar
    30    24    17   ar
    31    14    10   ar
    32     1    29    1
    33     1    30    1
    34     1    31    1
    35     6    32    1
    36     8    33    1
    37     9    34    1
    38    11    35    1
    39    13    36    1
    40    15    37    1
    41    16    38    1
    42    18    39    1
    43    19    40    1
    44    24    41    1
    45    25    42    1
    46    25    43    1
    47    28    44    1
