
     RDKit          3D

 98104  0  0  0  0  0  0  0  0999 V2000
  -10.6832   -1.9680   -5.6167 C   0  0  0  0  0  0  0  0  0  0  0  0
   -9.7406   -0.8178   -5.3558 C   0  0  0  0  0  0  0  0  0  0  0  0
   -9.2913   -0.7374   -3.9464 C   0  0  0  0  0  0  0  0  0  0  0  0
   -8.1703   -1.3462   -3.3992 C   0  0  0  0  0  0  0  0  0  0  0  0
   -8.1154   -1.0171   -2.0767 C   0  0  0  0  0  0  0  0  0  0  0  0
   -7.1410   -1.3941   -1.0953 N   0  0  0  0  0  0  0  0  0  0  0  0
   -6.0135   -0.5227   -0.8918 C   0  0  0  0  0  0  0  0  0  0  0  0
   -5.9639    0.4949   -1.5927 O   0  0  0  0  0  0  0  0  0  0  0  0
   -5.0206   -0.8270    0.0667 N   0  0  0  0  0  0  0  0  0  0  0  0
   -3.8642   -0.0263    0.3303 C   0  0  0  0  0  0  0  0  0  0  0  0
   -3.4709    0.9879   -0.5071 C   0  0  0  0  0  0  0  0  0  0  0  0
   -2.3754    1.7495   -0.1840 C   0  0  0  0  0  0  0  0  0  0  0  0
   -1.6231    1.5529    0.9626 C   0  0  0  0  0  0  0  0  0  0  0  0
   -0.5283    2.3657    1.2174 O   0  0  0  0  0  0  0  0  0  0  0  0
    0.7391    1.8240    1.2343 C   0  0  0  0  0  0  0  0  0  0  0  0
    1.8348    2.6502    1.5068 C   0  0  0  0  0  0  0  0  0  0  0  0
    3.1109    2.1469    1.5294 C   0  0  0  0  0  0  0  0  0  0  0  0
    3.2721    0.8410    1.2828 N   0  0  0  0  0  0  0  0  0  0  0  0
    2.2465   -0.0092    1.0129 C   0  0  0  0  0  0  0  0  0  0  0  0
    2.3993   -1.3824    0.7471 N   0  0  0  0  0  0  0  0  0  0  0  0
    3.6673   -1.9617    0.5711 C   0  0  0  0  0  0  0  0  0  0  0  0
    3.8122   -3.3317    0.8196 C   0  0  0  0  0  0  0  0  0  0  0  0
    5.0053   -3.9950    0.6552 C   0  0  0  0  0  0  0  0  0  0  0  0
    5.0754   -5.3603    0.9226 O   0  0  0  0  0  0  0  0  0  0  0  0
    6.3403   -5.9989    0.7352 C   0  0  0  0  0  0  0  0  0  0  0  0
    6.0893   -3.2669    0.2282 C   0  0  0  0  0  0  0  0  0  0  0  0
    6.0213   -1.9105   -0.0378 C   0  0  0  0  0  0  0  0  0  0  0  0
    7.1923   -1.1796   -0.4883 C   0  0  0  0  0  0  0  0  0  0  0  0
    8.3061   -1.7897   -0.5963 O   0  0  0  0  0  0  0  0  0  0  0  0
    7.1853    0.1898   -0.8242 N   0  0  0  0  0  0  0  0  0  0  0  0
    8.3508    0.9427   -1.2752 C   0  0  0  0  0  0  0  0  0  0  0  0
    9.4313    0.9468   -0.2190 C   0  0  0  0  0  0  0  0  0  0  0  0
   10.5868    1.7313   -0.6900 N   0  0  0  0  0  0  0  0  0  0  0  0
   11.5789    1.7038    0.3642 C   0  0  0  0  0  0  0  0  0  0  0  0
   12.8526    2.4075   -0.0655 C   0  0  0  0  0  0  0  0  0  0  0  0
   12.5129    3.5467   -0.7685 O   0  0  0  0  0  0  0  0  0  0  0  0
   11.2735    4.0501   -0.4566 C   0  0  0  0  0  0  0  0  0  0  0  0
   10.1408    3.1019   -0.8132 C   0  0  0  0  0  0  0  0  0  0  0  0
    4.8074   -1.2864    0.1402 C   0  0  0  0  0  0  0  0  0  0  0  0
    0.9996    0.5404    1.0020 N   0  0  0  0  0  0  0  0  0  0  0  0
   -2.0082    0.5452    1.8046 C   0  0  0  0  0  0  0  0  0  0  0  0
   -1.2729    0.3535    2.9736 C   0  0  0  0  0  0  0  0  0  0  0  0
   -1.6582   -0.6397    3.8347 C   0  0  0  0  0  0  0  0  0  0  0  0
   -2.7439   -1.4240    3.5484 C   0  0  0  0  0  0  0  0  0  0  0  0
   -3.4751   -1.2220    2.3741 C   0  0  0  0  0  0  0  0  0  0  0  0
   -3.1130   -0.2430    1.5039 C   0  0  0  0  0  0  0  0  0  0  0  0
   -9.1809   -0.2218   -1.8167 N   0  0  0  0  0  0  0  0  0  0  0  0
   -9.4377    0.3207   -0.5089 C   0  0  0  0  0  0  0  0  0  0  0  0
  -10.2152   -0.3440    0.4154 C   0  0  0  0  0  0  0  0  0  0  0  0
  -10.4551    0.1733    1.6770 C   0  0  0  0  0  0  0  0  0  0  0  0
   -9.9195    1.3852    2.0589 C   0  0  0  0  0  0  0  0  0  0  0  0
  -10.1538    1.9793    3.4100 C   0  0  0  0  0  0  0  0  0  0  0  0
   -9.1396    2.0559    1.1365 C   0  0  0  0  0  0  0  0  0  0  0  0
   -8.9021    1.5323   -0.1285 C   0  0  0  0  0  0  0  0  0  0  0  0
   -9.8707   -0.0624   -2.9290 N   0  0  0  0  0  0  0  0  0  0  0  0
  -11.5864   -1.8544   -4.9938 H   0  0  0  0  0  0  0  0  0  0  0  0
  -11.0123   -1.8527   -6.6851 H   0  0  0  0  0  0  0  0  0  0  0  0
  -10.2010   -2.9499   -5.5057 H   0  0  0  0  0  0  0  0  0  0  0  0
   -8.8907   -0.8421   -6.0711 H   0  0  0  0  0  0  0  0  0  0  0  0
  -10.3138    0.1223   -5.6070 H   0  0  0  0  0  0  0  0  0  0  0  0
   -7.4711   -1.9730   -3.9450 H   0  0  0  0  0  0  0  0  0  0  0  0
   -7.2393   -2.2696   -0.5357 H   0  0  0  0  0  0  0  0  0  0  0  0
   -5.1873   -1.7371    0.5913 H   0  0  0  0  0  0  0  0  0  0  0  0
   -4.0031    1.1881   -1.4296 H   0  0  0  0  0  0  0  0  0  0  0  0
   -2.0572    2.5605   -0.8466 H   0  0  0  0  0  0  0  0  0  0  0  0
    1.6144    3.6949    1.6943 H   0  0  0  0  0  0  0  0  0  0  0  0
    3.9077    2.8280    1.7429 H   0  0  0  0  0  0  0  0  0  0  0  0
    1.5571   -1.9833    0.6797 H   0  0  0  0  0  0  0  0  0  0  0  0
    2.9542   -3.9025    1.1566 H   0  0  0  0  0  0  0  0  0  0  0  0
    7.1457   -5.4440    1.2643 H   0  0  0  0  0  0  0  0  0  0  0  0
    6.6323   -6.0721   -0.3153 H   0  0  0  0  0  0  0  0  0  0  0  0
    6.3520   -7.0239    1.1731 H   0  0  0  0  0  0  0  0  0  0  0  0
    7.0197   -3.7673    0.0964 H   0  0  0  0  0  0  0  0  0  0  0  0
    6.2517    0.7002   -0.7379 H   0  0  0  0  0  0  0  0  0  0  0  0
    8.0473    1.9927   -1.4213 H   0  0  0  0  0  0  0  0  0  0  0  0
    8.7408    0.5405   -2.2326 H   0  0  0  0  0  0  0  0  0  0  0  0
    9.7370   -0.0875    0.0223 H   0  0  0  0  0  0  0  0  0  0  0  0
    9.0834    1.4305    0.7160 H   0  0  0  0  0  0  0  0  0  0  0  0
   11.1784    2.2969    1.2368 H   0  0  0  0  0  0  0  0  0  0  0  0
   11.7856    0.6804    0.7379 H   0  0  0  0  0  0  0  0  0  0  0  0
   13.5145    2.6076    0.8003 H   0  0  0  0  0  0  0  0  0  0  0  0
   13.3907    1.7254   -0.7786 H   0  0  0  0  0  0  0  0  0  0  0  0
   11.1234    4.9615   -1.0864 H   0  0  0  0  0  0  0  0  0  0  0  0
   11.1527    4.3122    0.6182 H   0  0  0  0  0  0  0  0  0  0  0  0
    9.3001    3.2353   -0.0733 H   0  0  0  0  0  0  0  0  0  0  0  0
    9.7762    3.2514   -1.8550 H   0  0  0  0  0  0  0  0  0  0  0  0
    4.7101   -0.2370   -0.0694 H   0  0  0  0  0  0  0  0  0  0  0  0
   -0.4235    0.9810    3.2247 H   0  0  0  0  0  0  0  0  0  0  0  0
   -1.0965   -0.8018    4.7469 H   0  0  0  0  0  0  0  0  0  0  0  0
   -3.0652   -2.2154    4.2158 H   0  0  0  0  0  0  0  0  0  0  0  0
   -4.3317   -1.8557    2.1786 H   0  0  0  0  0  0  0  0  0  0  0  0
  -10.6442   -1.2919    0.1390 H   0  0  0  0  0  0  0  0  0  0  0  0
  -11.0656   -0.3427    2.4122 H   0  0  0  0  0  0  0  0  0  0  0  0
   -9.2614    1.8743    4.0596 H   0  0  0  0  0  0  0  0  0  0  0  0
  -11.0502    1.5300    3.8655 H   0  0  0  0  0  0  0  0  0  0  0  0
  -10.3649    3.0837    3.3172 H   0  0  0  0  0  0  0  0  0  0  0  0
   -8.7086    3.0036    1.4078 H   0  0  0  0  0  0  0  0  0  0  0  0
   -8.2855    2.0690   -0.8501 H   0  0  0  0  0  0  0  0  0  0  0  0
  1  2  1  0
  2  3  1  0
  3  4  1  0
  4  5  2  0
  5  6  1  0
  6  7  1  0
  7  8  2  0
  7  9  1  0
  9 10  1  0
 10 11  2  0
 11 12  1  0
 12 13  2  0
 13 14  1  0
 14 15  1  0
 15 16  2  0
 16 17  1  0
 17 18  2  0
 18 19  1  0
 19 20  1  0
 20 21  1  0
 21 22  2  0
 22 23  1  0
 23 24  1  0
 24 25  1  0
 23 26  2  0
 26 27  1  0
 27 28  1  0
 28 29  2  0
 28 30  1  0
 30 31  1  0
 31 32  1  0
 32 33  1  0
 33 34  1  0
 34 35  1  0
 35 36  1  0
 36 37  1  0
 37 38  1  0
 27 39  2  0
 19 40  2  0
 13 41  1  0
 41 42  2  0
 42 43  1  0
 43 44  2  0
 44 45  1  0
 45 46  2  0
  5 47  1  0
 47 48  1  0
 48 49  2  0
 49 50  1  0
 50 51  2  0
 51 52  1  0
 51 53  1  0
 53 54  2  0
 47 55  1  0
 55  3  2  0
 46 10  1  0
 54 48  1  0
 40 15  1  0
 46 41  1  0
 39 21  1  0
 38 33  1  0
  1 56  1  0
  1 57  1  0
  1 58  1  0
  2 59  1  0
  2 60  1  0
  4 61  1  0
  6 62  1  0
  9 63  1  0
 11 64  1  0
 12 65  1  0
 16 66  1  0
 17 67  1  0
 20 68  1  0
 22 69  1  0
 25 70  1  0
 25 71  1  0
 25 72  1  0
 26 73  1  0
 30 74  1  0
 31 75  1  0
 31 76  1  0
 32 77  1  0
 32 78  1  0
 34 79  1  0
 34 80  1  0
 35 81  1  0
 35 82  1  0
 37 83  1  0
 37 84  1  0
 38 85  1  0
 38 86  1  0
 39 87  1  0
 42 88  1  0
 43 89  1  0
 44 90  1  0
 45 91  1  0
 49 92  1  0
 50 93  1  0
 52 94  1  0
 52 95  1  0
 52 96  1  0
 53 97  1  0
 54 98  1  0
M  END
$$$$
