@<TRIPOS>MOLECULE
*****
 98 104 0 0 0
SMALL
GASTEIGER

@<TRIPOS>ATOM
      1 C         -10.6832   -1.9680   -5.6167 C.3     1  UNL1       -0.0598
      2 C          -9.7406   -0.8178   -5.3558 C.3     1  UNL1       -0.0114
      3 C          -9.2913   -0.7374   -3.9464 C.ar    1  UNL1        0.0650
      4 C          -8.1703   -1.3462   -3.3992 C.ar    1  UNL1        0.0015
      5 C          -8.1154   -1.0171   -2.0767 C.ar    1  UNL1        0.1299
      6 N          -7.1410   -1.3941   -1.0953 N.am    1  UNL1       -0.2538
      7 C          -6.0135   -0.5227   -0.8918 C.2     1  UNL1        0.3092
      8 O          -5.9639    0.4949   -1.5927 O.2     1  UNL1       -0.2521
      9 N          -5.0206   -0.8270    0.0667 N.am    1  UNL1       -0.2686
     10 C          -3.8642   -0.0263    0.3303 C.ar    1  UNL1        0.0427
     11 C          -3.4709    0.9879   -0.5071 C.ar    1  UNL1       -0.0363
     12 C          -2.3754    1.7495   -0.1840 C.ar    1  UNL1       -0.0169
     13 C          -1.6231    1.5529    0.9626 C.ar    1  UNL1        0.1381
     14 O          -0.5283    2.3657    1.2174 O.3     1  UNL1       -0.4373
     15 C           0.7391    1.8240    1.2343 C.ar    1  UNL1        0.2249
     16 C           1.8348    2.6502    1.5068 C.ar    1  UNL1        0.0186
     17 C           3.1109    2.1469    1.5294 C.ar    1  UNL1        0.0362
     18 N           3.2721    0.8410    1.2828 N.ar    1  UNL1       -0.2225
     19 C           2.2465   -0.0092    1.0129 C.ar    1  UNL1        0.2226
     20 N           2.3993   -1.3824    0.7471 N.pl3   1  UNL1       -0.2834
     21 C           3.6673   -1.9617    0.5711 C.ar    1  UNL1        0.0378
     22 C           3.8122   -3.3317    0.8196 C.ar    1  UNL1        0.0013
     23 C           5.0053   -3.9950    0.6552 C.ar    1  UNL1        0.1226
     24 O           5.0754   -5.3603    0.9226 O.3     1  UNL1       -0.4950
     25 C           6.3403   -5.9989    0.7352 C.3     1  UNL1        0.0788
     26 C           6.0893   -3.2669    0.2282 C.ar    1  UNL1       -0.0077
     27 C           6.0213   -1.9105   -0.0378 C.ar    1  UNL1        0.0419
     28 C           7.1923   -1.1796   -0.4883 C.2     1  UNL1        0.2443
     29 O           8.3061   -1.7897   -0.5963 O.2     1  UNL1       -0.2702
     30 N           7.1853    0.1898   -0.8242 N.am    1  UNL1       -0.3101
     31 C           8.3508    0.9427   -1.2752 C.3     1  UNL1        0.0247
     32 C           9.4313    0.9468   -0.2190 C.3     1  UNL1        0.0146
     33 N          10.5868    1.7313   -0.6900 N.3     1  UNL1       -0.2965
     34 C          11.5789    1.7038    0.3642 C.3     1  UNL1        0.0225
     35 C          12.8526    2.4075   -0.0655 C.3     1  UNL1        0.0604
     36 O          12.5129    3.5467   -0.7685 O.3     1  UNL1       -0.3772
     37 C          11.2735    4.0501   -0.4566 C.3     1  UNL1        0.0604
     38 C          10.1408    3.1019   -0.8132 C.3     1  UNL1        0.0225
     39 C           4.8074   -1.2864    0.1402 C.ar    1  UNL1       -0.0281
     40 N           0.9996    0.5404    1.0020 N.ar    1  UNL1       -0.1789
     41 C          -2.0082    0.5452    1.8046 C.ar    1  UNL1        0.0262
     42 C          -1.2729    0.3535    2.9736 C.ar    1  UNL1       -0.0505
     43 C          -1.6582   -0.6397    3.8347 C.ar    1  UNL1       -0.0611
     44 C          -2.7439   -1.4240    3.5484 C.ar    1  UNL1       -0.0611
     45 C          -3.4751   -1.2220    2.3741 C.ar    1  UNL1       -0.0521
     46 C          -3.1130   -0.2430    1.5039 C.ar    1  UNL1        0.0069
     47 N          -9.1809   -0.2218   -1.8167 N.ar    1  UNL1       -0.2181
     48 C          -9.4377    0.3207   -0.5089 C.ar    1  UNL1        0.0674
     49 C         -10.2152   -0.3440    0.4154 C.ar    1  UNL1       -0.0359
     50 C         -10.4551    0.1733    1.6770 C.ar    1  UNL1       -0.0568
     51 C          -9.9195    1.3852    2.0589 C.ar    1  UNL1       -0.0503
     52 C         -10.1538    1.9793    3.4100 C.3     1  UNL1       -0.0397
     53 C          -9.1396    2.0559    1.1365 C.ar    1  UNL1       -0.0568
     54 C          -8.9021    1.5323   -0.1285 C.ar    1  UNL1       -0.0359
     55 N          -9.8707   -0.0624   -2.9290 N.ar    1  UNL1       -0.1696
     56 H         -11.5864   -1.8544   -4.9938 H       1  UNL1        0.0233
     57 H         -11.0123   -1.8527   -6.6851 H       1  UNL1        0.0233
     58 H         -10.2010   -2.9499   -5.5057 H       1  UNL1        0.0233
     59 H          -8.8907   -0.8421   -6.0711 H       1  UNL1        0.0326
     60 H         -10.3138    0.1223   -5.6070 H       1  UNL1        0.0326
     61 H          -7.4711   -1.9730   -3.9450 H       1  UNL1        0.0670
     62 H          -7.2393   -2.2696   -0.5357 H       1  UNL1        0.1578
     63 H          -5.1873   -1.7371    0.5913 H       1  UNL1        0.1564
     64 H          -4.0031    1.1881   -1.4296 H       1  UNL1        0.0637
     65 H          -2.0572    2.5605   -0.8466 H       1  UNL1        0.0655
     66 H           1.6144    3.6949    1.6943 H       1  UNL1        0.0686
     67 H           3.9077    2.8280    1.7429 H       1  UNL1        0.0832
     68 H           1.5571   -1.9833    0.6797 H       1  UNL1        0.1550
     69 H           2.9542   -3.9025    1.1566 H       1  UNL1        0.0673
     70 H           7.1457   -5.4440    1.2643 H       1  UNL1        0.0660
     71 H           6.6323   -6.0721   -0.3153 H       1  UNL1        0.0660
     72 H           6.3520   -7.0239    1.1731 H       1  UNL1        0.0660
     73 H           7.0197   -3.7673    0.0964 H       1  UNL1        0.0662
     74 H           6.2517    0.7002   -0.7379 H       1  UNL1        0.1490
     75 H           8.0473    1.9927   -1.4213 H       1  UNL1        0.0475
     76 H           8.7408    0.5405   -2.2326 H       1  UNL1        0.0475
     77 H           9.7370   -0.0875    0.0223 H       1  UNL1        0.0442
     78 H           9.0834    1.4305    0.7160 H       1  UNL1        0.0442
     79 H          11.1784    2.2969    1.2368 H       1  UNL1        0.0449
     80 H          11.7856    0.6804    0.7379 H       1  UNL1        0.0449
     81 H          13.5145    2.6076    0.8003 H       1  UNL1        0.0572
     82 H          13.3907    1.7254   -0.7786 H       1  UNL1        0.0572
     83 H          11.1234    4.9615   -1.0864 H       1  UNL1        0.0572
     84 H          11.1527    4.3122    0.6182 H       1  UNL1        0.0572
     85 H           9.3001    3.2353   -0.0733 H       1  UNL1        0.0449
     86 H           9.7762    3.2514   -1.8550 H       1  UNL1        0.0449
     87 H           4.7101   -0.2370   -0.0694 H       1  UNL1        0.0644
     88 H          -0.4235    0.9810    3.2247 H       1  UNL1        0.0625
     89 H          -1.0965   -0.8018    4.7469 H       1  UNL1        0.0618
     90 H          -3.0652   -2.2154    4.2158 H       1  UNL1        0.0618
     91 H          -4.3317   -1.8557    2.1786 H       1  UNL1        0.0624
     92 H         -10.6442   -1.2919    0.1390 H       1  UNL1        0.0639
     93 H         -11.0656   -0.3427    2.4122 H       1  UNL1        0.0621
     94 H          -9.2614    1.8743    4.0596 H       1  UNL1        0.0278
     95 H         -11.0502    1.5300    3.8655 H       1  UNL1        0.0278
     96 H         -10.3649    3.0837    3.3172 H       1  UNL1        0.0278
     97 H          -8.7086    3.0036    1.4078 H       1  UNL1        0.0621
     98 H          -8.2855    2.0690   -0.8501 H       1  UNL1        0.0639
@<TRIPOS>BOND
     1     1     2    1
     2     2     3    1
     3     3     4   ar
     4     4     5   ar
     5     5     6    1
     6     6     7   am
     7     7     8    2
     8     7     9   am
     9     9    10    1
    10    10    11   ar
    11    11    12   ar
    12    12    13   ar
    13    13    14    1
    14    14    15    1
    15    15    16   ar
    16    16    17   ar
    17    17    18   ar
    18    18    19   ar
    19    19    20    1
    20    20    21    1
    21    21    22   ar
    22    22    23   ar
    23    23    24    1
    24    24    25    1
    25    23    26   ar
    26    26    27   ar
    27    27    28    1
    28    28    29    2
    29    28    30   am
    30    30    31    1
    31    31    32    1
    32    32    33    1
    33    33    34    1
    34    34    35    1
    35    35    36    1
    36    36    37    1
    37    37    38    1
    38    27    39   ar
    39    19    40   ar
    40    13    41   ar
    41    41    42   ar
    42    42    43   ar
    43    43    44   ar
    44    44    45   ar
    45    45    46   ar
    46     5    47   ar
    47    47    48    1
    48    48    49   ar
    49    49    50   ar
    50    50    51   ar
    51    51    52    1
    52    51    53   ar
    53    53    54   ar
    54    47    55   ar
    55    55     3   ar
    56    46    10   ar
    57    54    48   ar
    58    40    15   ar
    59    46    41   ar
    60    39    21   ar
    61    38    33    1
    62     1    56    1
    63     1    57    1
    64     1    58    1
    65     2    59    1
    66     2    60    1
    67     4    61    1
    68     6    62    1
    69     9    63    1
    70    11    64    1
    71    12    65    1
    72    16    66    1
    73    17    67    1
    74    20    68    1
    75    22    69    1
    76    25    70    1
    77    25    71    1
    78    25    72    1
    79    26    73    1
    80    30    74    1
    81    31    75    1
    82    31    76    1
    83    32    77    1
    84    32    78    1
    85    34    79    1
    86    34    80    1
    87    35    81    1
    88    35    82    1
    89    37    83    1
    90    37    84    1
    91    38    85    1
    92    38    86    1
    93    39    87    1
    94    42    88    1
    95    43    89    1
    96    44    90    1
    97    45    91    1
    98    49    92    1
    99    50    93    1
   100    52    94    1
   101    52    95    1
   102    52    96    1
   103    53    97    1
   104    54    98    1
