@<TRIPOS>MOLECULE
*****
 81 83 0 0 0
SMALL
GASTEIGER

@<TRIPOS>ATOM
      1 C           0.1078    2.8159    3.1417 C.3     1  UNL1       -0.0605
      2 C          -0.7685    1.6124    2.7637 C.3     1  UNL1       -0.0197
      3 C          -2.1942    1.9763    2.9902 C.3     1  UNL1       -0.0605
      4 C          -0.4411    1.1635    1.3557 C.3     1  UNL1        0.1022
      5 N           0.9671    0.7979    1.3319 N.am    1  UNL1       -0.2998
      6 C           1.9046    1.4609    0.4955 C.2     1  UNL1        0.2447
      7 O           1.3858    2.3835   -0.2288 O.2     1  UNL1       -0.2702
      8 C           3.3354    1.2303    0.3617 C.ar    1  UNL1        0.0368
      9 C           4.0102    2.0107   -0.5395 C.ar    1  UNL1       -0.0489
     10 C           5.3891    1.8240   -0.7019 C.ar    1  UNL1       -0.0489
     11 C           6.0353    0.8436    0.0631 C.ar    1  UNL1        0.0369
     12 C           5.3166    0.0682    0.9702 C.ar    1  UNL1       -0.0489
     13 C           3.9401    0.2541    1.1332 C.ar    1  UNL1       -0.0489
     14 C           7.4392    0.7886   -0.2296 C.2     1  UNL1        0.2467
     15 O           8.1266    1.8342   -0.1028 O.2     1  UNL1       -0.2700
     16 N           8.3650   -0.1926   -0.6619 N.am    1  UNL1       -0.2932
     17 C           9.7331    0.2196   -0.8323 C.3     1  UNL1        0.0385
     18 C          10.6897   -0.6466   -0.0416 C.3     1  UNL1        0.0635
     19 O          10.4425   -1.9940   -0.2292 O.3     1  UNL1       -0.3767
     20 C           9.1257   -2.3444    0.0163 C.3     1  UNL1        0.0635
     21 C           8.2720   -1.6190   -1.0031 C.3     1  UNL1        0.0385
     22 C          -1.3491    0.1535    0.8358 C.2     1  UNL1        0.2368
     23 O          -0.2437   -0.4855    0.7142 O.2     1  UNL1       -0.2735
     24 N          -1.4458   -1.1564    0.2945 N.am    1  UNL1       -0.2884
     25 C          -0.6203   -2.3250   -0.0525 C.3     1  UNL1        0.0156
     26 C          -1.1091   -2.7079   -1.4392 C.3     1  UNL1       -0.0350
     27 C          -2.4285   -1.9487   -1.6105 C.3     1  UNL1       -0.0243
     28 C          -2.7319   -1.6713   -0.1299 C.3     1  UNL1        0.1023
     29 C          -3.8398   -0.7358    0.0443 C.2     1  UNL1        0.2341
     30 O          -3.6876    0.3515    0.6481 O.2     1  UNL1       -0.2738
     31 N          -5.1416   -1.0409   -0.4784 N.am    1  UNL1       -0.3037
     32 C          -6.2273   -0.0737   -0.2793 C.3     1  UNL1        0.0901
     33 C          -7.3614   -0.7970    0.3780 C.3     1  UNL1       -0.0211
     34 C          -8.5457    0.0936    0.6476 C.3     1  UNL1       -0.0606
     35 C          -6.8615   -1.5378    1.5797 C.3     1  UNL1       -0.0606
     36 C          -6.6057    0.5616   -1.5510 C.2     1  UNL1        0.2307
     37 O          -5.7593   -0.1504   -2.0726 O.2     1  UNL1       -0.2888
     38 C          -7.2868    1.4316   -2.5369 C.3     1  UNL1        0.3997
     39 F          -8.6585    1.2873   -2.5464 F       1  UNL1       -0.1871
     40 F          -7.0391    2.7686   -2.1960 F       1  UNL1       -0.1871
     41 C          -6.7471    1.1887   -3.9408 C.3     1  UNL1        0.4616
     42 F          -5.3902    1.4780   -3.8947 F       1  UNL1       -0.1646
     43 F          -6.9276   -0.1421   -4.2061 F       1  UNL1       -0.1646
     44 F          -7.4558    2.0060   -4.7672 F       1  UNL1       -0.1646
     45 H          -0.2453    3.6889    2.5923 H       1  UNL1        0.0233
     46 H           1.1540    2.5994    2.7865 H       1  UNL1        0.0233
     47 H           0.1112    2.8965    4.2399 H       1  UNL1        0.0233
     48 H          -0.4919    0.8125    3.4838 H       1  UNL1        0.0318
     49 H          -2.8065    1.1160    3.3805 H       1  UNL1        0.0233
     50 H          -2.6983    2.5051    2.1792 H       1  UNL1        0.0233
     51 H          -2.1999    2.6967    3.8585 H       1  UNL1        0.0233
     52 H          -0.5533    2.0596    0.7001 H       1  UNL1        0.0597
     53 H           1.3852    0.0367    1.9177 H       1  UNL1        0.1498
     54 H           3.5202    2.7808   -1.1444 H       1  UNL1        0.0625
     55 H           5.8691    2.4744   -1.4304 H       1  UNL1        0.0625
     56 H           5.9148   -0.6671    1.5167 H       1  UNL1        0.0625
     57 H           3.4219   -0.3675    1.8473 H       1  UNL1        0.0625
     58 H           9.9813    0.0400   -1.9190 H       1  UNL1        0.0487
     59 H           9.8783    1.2828   -0.6629 H       1  UNL1        0.0487
     60 H          10.5286   -0.4131    1.0421 H       1  UNL1        0.0575
     61 H          11.7272   -0.4307   -0.3340 H       1  UNL1        0.0575
     62 H           9.0620   -3.4515   -0.0982 H       1  UNL1        0.0575
     63 H           8.7817   -2.0549    1.0413 H       1  UNL1        0.0575
     64 H           8.6591   -1.7903   -2.0094 H       1  UNL1        0.0487
     65 H           7.2019   -1.9735   -0.9386 H       1  UNL1        0.0487
     66 H           0.4418   -2.1044   -0.1207 H       1  UNL1        0.0465
     67 H          -0.7902   -3.1466    0.6824 H       1  UNL1        0.0465
     68 H          -1.4095   -3.7834   -1.3927 H       1  UNL1        0.0281
     69 H          -0.3933   -2.4981   -2.2357 H       1  UNL1        0.0281
     70 H          -3.2072   -2.5440   -2.0777 H       1  UNL1        0.0288
     71 H          -2.2355   -0.9785   -2.0713 H       1  UNL1        0.0288
     72 H          -2.8810   -2.6423    0.3953 H       1  UNL1        0.0597
     73 H          -5.3568   -1.9264   -0.9998 H       1  UNL1        0.1495
     74 H          -5.8271    0.6762    0.4547 H       1  UNL1        0.0582
     75 H          -7.7093   -1.5903   -0.3454 H       1  UNL1        0.0317
     76 H          -8.9797   -0.2495    1.6064 H       1  UNL1        0.0233
     77 H          -9.2929   -0.0322   -0.1328 H       1  UNL1        0.0233
     78 H          -8.2496    1.1495    0.8211 H       1  UNL1        0.0233
     79 H          -7.5747   -2.3003    1.9746 H       1  UNL1        0.0233
     80 H          -6.5114   -0.8266    2.3651 H       1  UNL1        0.0233
     81 H          -5.9435   -2.0788    1.2614 H       1  UNL1        0.0233
@<TRIPOS>BOND
     1     1     2    1
     2     2     3    1
     3     2     4    1
     4     4     5    1
     5     5     6   am
     6     6     7    2
     7     6     8    1
     8     8     9   ar
     9     9    10   ar
    10    10    11   ar
    11    11    12   ar
    12    12    13   ar
    13    11    14    1
    14    14    15    2
    15    14    16   am
    16    16    17    1
    17    17    18    1
    18    18    19    1
    19    19    20    1
    20    20    21    1
    21     4    22    1
    22    22    23    2
    23    22    24   am
    24    24    25    1
    25    25    26    1
    26    26    27    1
    27    27    28    1
    28    28    29    1
    29    29    30    2
    30    29    31   am
    31    31    32    1
    32    32    33    1
    33    33    34    1
    34    33    35    1
    35    32    36    1
    36    36    37    2
    37    36    38    1
    38    38    39    1
    39    38    40    1
    40    38    41    1
    41    41    42    1
    42    41    43    1
    43    41    44    1
    44    13     8   ar
    45    21    16    1
    46    28    24    1
    47     1    45    1
    48     1    46    1
    49     1    47    1
    50     2    48    1
    51     3    49    1
    52     3    50    1
    53     3    51    1
    54     4    52    1
    55     5    53    1
    56     9    54    1
    57    10    55    1
    58    12    56    1
    59    13    57    1
    60    17    58    1
    61    17    59    1
    62    18    60    1
    63    18    61    1
    64    20    62    1
    65    20    63    1
    66    21    64    1
    67    21    65    1
    68    25    66    1
    69    25    67    1
    70    26    68    1
    71    26    69    1
    72    27    70    1
    73    27    71    1
    74    28    72    1
    75    31    73    1
    76    32    74    1
    77    33    75    1
    78    34    76    1
    79    34    77    1
    80    34    78    1
    81    35    79    1
    82    35    80    1
    83    35    81    1
