
     RDKit          3D

 81 83  0  0  0  0  0  0  0  0999 V2000
    0.1078    2.8159    3.1417 C   0  0  0  0  0  0  0  0  0  0  0  0
   -0.7685    1.6124    2.7637 C   0  0  0  0  0  0  0  0  0  0  0  0
   -2.1942    1.9763    2.9902 C   0  0  0  0  0  0  0  0  0  0  0  0
   -0.4411    1.1635    1.3557 C   0  0  1  0  0  0  0  0  0  0  0  0
    0.9671    0.7979    1.3319 N   0  0  0  0  0  0  0  0  0  0  0  0
    1.9046    1.4609    0.4955 C   0  0  0  0  0  0  0  0  0  0  0  0
    1.3858    2.3835   -0.2288 O   0  0  0  0  0  0  0  0  0  0  0  0
    3.3354    1.2303    0.3617 C   0  0  0  0  0  0  0  0  0  0  0  0
    4.0102    2.0107   -0.5395 C   0  0  0  0  0  0  0  0  0  0  0  0
    5.3891    1.8240   -0.7019 C   0  0  0  0  0  0  0  0  0  0  0  0
    6.0353    0.8436    0.0631 C   0  0  0  0  0  0  0  0  0  0  0  0
    5.3166    0.0682    0.9702 C   0  0  0  0  0  0  0  0  0  0  0  0
    3.9401    0.2541    1.1332 C   0  0  0  0  0  0  0  0  0  0  0  0
    7.4392    0.7886   -0.2296 C   0  0  0  0  0  0  0  0  0  0  0  0
    8.1266    1.8342   -0.1028 O   0  0  0  0  0  0  0  0  0  0  0  0
    8.3650   -0.1926   -0.6619 N   0  0  0  0  0  0  0  0  0  0  0  0
    9.7331    0.2196   -0.8323 C   0  0  0  0  0  0  0  0  0  0  0  0
   10.6897   -0.6466   -0.0416 C   0  0  0  0  0  0  0  0  0  0  0  0
   10.4425   -1.9940   -0.2292 O   0  0  0  0  0  0  0  0  0  0  0  0
    9.1257   -2.3444    0.0163 C   0  0  0  0  0  0  0  0  0  0  0  0
    8.2720   -1.6190   -1.0031 C   0  0  0  0  0  0  0  0  0  0  0  0
   -1.3491    0.1535    0.8358 C   0  0  0  0  0  0  0  0  0  0  0  0
   -0.2437   -0.4855    0.7142 O   0  0  0  0  0  0  0  0  0  0  0  0
   -1.4458   -1.1564    0.2945 N   0  0  0  0  0  0  0  0  0  0  0  0
   -0.6203   -2.3250   -0.0525 C   0  0  0  0  0  0  0  0  0  0  0  0
   -1.1091   -2.7079   -1.4392 C   0  0  0  0  0  0  0  0  0  0  0  0
   -2.4285   -1.9487   -1.6105 C   0  0  0  0  0  0  0  0  0  0  0  0
   -2.7319   -1.6713   -0.1299 C   0  0  2  0  0  0  0  0  0  0  0  0
   -3.8398   -0.7358    0.0443 C   0  0  0  0  0  0  0  0  0  0  0  0
   -3.6876    0.3515    0.6481 O   0  0  0  0  0  0  0  0  0  0  0  0
   -5.1416   -1.0409   -0.4784 N   0  0  0  0  0  0  0  0  0  0  0  0
   -6.2273   -0.0737   -0.2793 C   0  0  2  0  0  0  0  0  0  0  0  0
   -7.3614   -0.7970    0.3780 C   0  0  0  0  0  0  0  0  0  0  0  0
   -8.5457    0.0936    0.6476 C   0  0  0  0  0  0  0  0  0  0  0  0
   -6.8615   -1.5378    1.5797 C   0  0  0  0  0  0  0  0  0  0  0  0
   -6.6057    0.5616   -1.5510 C   0  0  0  0  0  0  0  0  0  0  0  0
   -5.7593   -0.1504   -2.0726 O   0  0  0  0  0  0  0  0  0  0  0  0
   -7.2868    1.4316   -2.5369 C   0  0  0  0  0  0  0  0  0  0  0  0
   -8.6585    1.2873   -2.5464 F   0  0  0  0  0  0  0  0  0  0  0  0
   -7.0391    2.7686   -2.1960 F   0  0  0  0  0  0  0  0  0  0  0  0
   -6.7471    1.1887   -3.9408 C   0  0  0  0  0  0  0  0  0  0  0  0
   -5.3902    1.4780   -3.8947 F   0  0  0  0  0  0  0  0  0  0  0  0
   -6.9276   -0.1421   -4.2061 F   0  0  0  0  0  0  0  0  0  0  0  0
   -7.4558    2.0060   -4.7672 F   0  0  0  0  0  0  0  0  0  0  0  0
   -0.2453    3.6889    2.5923 H   0  0  0  0  0  0  0  0  0  0  0  0
    1.1540    2.5994    2.7865 H   0  0  0  0  0  0  0  0  0  0  0  0
    0.1112    2.8965    4.2399 H   0  0  0  0  0  0  0  0  0  0  0  0
   -0.4919    0.8125    3.4838 H   0  0  0  0  0  0  0  0  0  0  0  0
   -2.8065    1.1160    3.3805 H   0  0  0  0  0  0  0  0  0  0  0  0
   -2.6983    2.5051    2.1792 H   0  0  0  0  0  0  0  0  0  0  0  0
   -2.1999    2.6967    3.8585 H   0  0  0  0  0  0  0  0  0  0  0  0
   -0.5533    2.0596    0.7001 H   0  0  0  0  0  0  0  0  0  0  0  0
    1.3852    0.0367    1.9177 H   0  0  0  0  0  0  0  0  0  0  0  0
    3.5202    2.7808   -1.1444 H   0  0  0  0  0  0  0  0  0  0  0  0
    5.8691    2.4744   -1.4304 H   0  0  0  0  0  0  0  0  0  0  0  0
    5.9148   -0.6671    1.5167 H   0  0  0  0  0  0  0  0  0  0  0  0
    3.4219   -0.3675    1.8473 H   0  0  0  0  0  0  0  0  0  0  0  0
    9.9813    0.0400   -1.9190 H   0  0  0  0  0  0  0  0  0  0  0  0
    9.8783    1.2828   -0.6629 H   0  0  0  0  0  0  0  0  0  0  0  0
   10.5286   -0.4131    1.0421 H   0  0  0  0  0  0  0  0  0  0  0  0
   11.7272   -0.4307   -0.3340 H   0  0  0  0  0  0  0  0  0  0  0  0
    9.0620   -3.4515   -0.0982 H   0  0  0  0  0  0  0  0  0  0  0  0
    8.7817   -2.0549    1.0413 H   0  0  0  0  0  0  0  0  0  0  0  0
    8.6591   -1.7903   -2.0094 H   0  0  0  0  0  0  0  0  0  0  0  0
    7.2019   -1.9735   -0.9386 H   0  0  0  0  0  0  0  0  0  0  0  0
    0.4418   -2.1044   -0.1207 H   0  0  0  0  0  0  0  0  0  0  0  0
   -0.7902   -3.1466    0.6824 H   0  0  0  0  0  0  0  0  0  0  0  0
   -1.4095   -3.7834   -1.3927 H   0  0  0  0  0  0  0  0  0  0  0  0
   -0.3933   -2.4981   -2.2357 H   0  0  0  0  0  0  0  0  0  0  0  0
   -3.2072   -2.5440   -2.0777 H   0  0  0  0  0  0  0  0  0  0  0  0
   -2.2355   -0.9785   -2.0713 H   0  0  0  0  0  0  0  0  0  0  0  0
   -2.8810   -2.6423    0.3953 H   0  0  0  0  0  0  0  0  0  0  0  0
   -5.3568   -1.9264   -0.9998 H   0  0  0  0  0  0  0  0  0  0  0  0
   -5.8271    0.6762    0.4547 H   0  0  0  0  0  0  0  0  0  0  0  0
   -7.7093   -1.5903   -0.3454 H   0  0  0  0  0  0  0  0  0  0  0  0
   -8.9797   -0.2495    1.6064 H   0  0  0  0  0  0  0  0  0  0  0  0
   -9.2929   -0.0322   -0.1328 H   0  0  0  0  0  0  0  0  0  0  0  0
   -8.2496    1.1495    0.8211 H   0  0  0  0  0  0  0  0  0  0  0  0
   -7.5747   -2.3003    1.9746 H   0  0  0  0  0  0  0  0  0  0  0  0
   -6.5114   -0.8266    2.3651 H   0  0  0  0  0  0  0  0  0  0  0  0
   -5.9435   -2.0788    1.2614 H   0  0  0  0  0  0  0  0  0  0  0  0
  1  2  1  0
  2  3  1  0
  2  4  1  0
  4  5  1  0
  5  6  1  0
  6  7  2  0
  6  8  1  0
  8  9  2  0
  9 10  1  0
 10 11  2  0
 11 12  1  0
 12 13  2  0
 11 14  1  0
 14 15  2  0
 14 16  1  0
 16 17  1  0
 17 18  1  0
 18 19  1  0
 19 20  1  0
 20 21  1  0
  4 22  1  0
 22 23  2  0
 22 24  1  0
 24 25  1  0
 25 26  1  0
 26 27  1  0
 27 28  1  0
 28 29  1  0
 29 30  2  0
 29 31  1  0
 31 32  1  0
 32 33  1  0
 33 34  1  0
 33 35  1  0
 32 36  1  0
 36 37  2  0
 36 38  1  0
 38 39  1  0
 38 40  1  0
 38 41  1  0
 41 42  1  0
 41 43  1  0
 41 44  1  0
 13  8  1  0
 21 16  1  0
 28 24  1  0
  1 45  1  0
  1 46  1  0
  1 47  1  0
  2 48  1  0
  3 49  1  0
  3 50  1  0
  3 51  1  0
  4 52  1  6
  5 53  1  0
  9 54  1  0
 10 55  1  0
 12 56  1  0
 13 57  1  0
 17 58  1  0
 17 59  1  0
 18 60  1  0
 18 61  1  0
 20 62  1  0
 20 63  1  0
 21 64  1  0
 21 65  1  0
 25 66  1  0
 25 67  1  0
 26 68  1  0
 26 69  1  0
 27 70  1  0
 27 71  1  0
 28 72  1  1
 31 73  1  0
 32 74  1  1
 33 75  1  0
 34 76  1  0
 34 77  1  0
 34 78  1  0
 35 79  1  0
 35 80  1  0
 35 81  1  0
M  END
$$$$
