@<TRIPOS>MOLECULE
*****
 47 49 0 0 0
SMALL
GASTEIGER

@<TRIPOS>ATOM
      1 C           2.5078   -1.1176   -2.8636 C.3     1  UNL1       -0.0643
      2 C           1.3917   -0.9095   -1.8633 C.3     1  UNL1       -0.0407
      3 C           1.9746   -0.6724   -0.4887 C.3     1  UNL1        0.0606
      4 C           0.8789   -0.4632    0.5197 C.2     1  UNL1        0.2247
      5 O           0.8187    0.5613    1.2461 O.2     1  UNL1       -0.2748
      6 N          -0.1596   -1.4384    0.6984 N.am    1  UNL1       -0.2835
      7 C          -1.1930   -1.2384    1.6513 C.ar    1  UNL1        0.0547
      8 C          -1.1029   -1.6767    2.9540 C.ar    1  UNL1       -0.0387
      9 C          -2.1134   -1.4754    3.8761 C.ar    1  UNL1       -0.0599
     10 C          -3.2532   -0.8167    3.4937 C.ar    1  UNL1       -0.0599
     11 C          -3.3694   -0.3679    2.1976 C.ar    1  UNL1       -0.0388
     12 C          -2.3374   -0.5786    1.2730 C.ar    1  UNL1        0.0512
     13 N          -2.5072   -0.0970   -0.0430 N.pl3   1  UNL1       -0.3285
     14 C          -2.5162   -0.9014   -1.2349 C.3     1  UNL1        0.0123
     15 C          -3.0037   -0.0042   -2.3539 C.3     1  UNL1       -0.0358
     16 C          -3.6436    1.1397   -1.6015 C.3     1  UNL1       -0.0358
     17 C          -2.7028    1.2846   -0.4097 C.3     1  UNL1        0.0123
     18 C           2.8530    0.4900   -0.4166 C.ar    1  UNL1       -0.0355
     19 C           2.4084    1.7700   -0.6759 C.ar    1  UNL1       -0.0578
     20 C           3.2410    2.8481   -0.6047 C.ar    1  UNL1       -0.0615
     21 C           4.5825    2.6551   -0.2600 C.ar    1  UNL1       -0.0617
     22 C           5.0439    1.3782    0.0030 C.ar    1  UNL1       -0.0615
     23 C           4.1936    0.2942   -0.0717 C.ar    1  UNL1       -0.0578
     24 H           2.1555   -0.9470   -3.9113 H       1  UNL1        0.0230
     25 H           3.3980   -0.4978   -2.6265 H       1  UNL1        0.0230
     26 H           2.8355   -2.1718   -2.7755 H       1  UNL1        0.0230
     27 H           0.6814   -0.1277   -2.1742 H       1  UNL1        0.0273
     28 H           0.8206   -1.8603   -1.8134 H       1  UNL1        0.0273
     29 H           2.5605   -1.5781   -0.2402 H       1  UNL1        0.0443
     30 H          -0.0850   -2.2806    0.0854 H       1  UNL1        0.1549
     31 H          -0.1939   -2.1983    3.2465 H       1  UNL1        0.0637
     32 H          -2.0302   -1.8290    4.9104 H       1  UNL1        0.0618
     33 H          -4.0283   -0.6738    4.2388 H       1  UNL1        0.0618
     34 H          -4.2737    0.1438    1.9303 H       1  UNL1        0.0637
     35 H          -3.2688   -1.7395   -1.1637 H       1  UNL1        0.0464
     36 H          -1.5373   -1.2862   -1.5235 H       1  UNL1        0.0464
     37 H          -3.7038   -0.5059   -3.0290 H       1  UNL1        0.0281
     38 H          -2.1672    0.4096   -2.9482 H       1  UNL1        0.0281
     39 H          -3.6928    2.0630   -2.2072 H       1  UNL1        0.0281
     40 H          -4.6735    0.8985   -1.2847 H       1  UNL1        0.0281
     41 H          -3.1516    1.8896    0.3899 H       1  UNL1        0.0464
     42 H          -1.7886    1.7762   -0.7830 H       1  UNL1        0.0464
     43 H           1.3835    1.8971   -0.9368 H       1  UNL1        0.0620
     44 H           2.8674    3.8472   -0.8135 H       1  UNL1        0.0618
     45 H           5.2457    3.5125   -0.2032 H       1  UNL1        0.0618
     46 H           6.0883    1.2782    0.2654 H       1  UNL1        0.0618
     47 H           4.5665   -0.6833    0.1343 H       1  UNL1        0.0620
@<TRIPOS>BOND
     1     1     2    1
     2     2     3    1
     3     3     4    1
     4     4     5    2
     5     4     6   am
     6     6     7    1
     7     7     8   ar
     8     8     9   ar
     9     9    10   ar
    10    10    11   ar
    11    11    12   ar
    12    12    13    1
    13    13    14    1
    14    14    15    1
    15    15    16    1
    16    16    17    1
    17     3    18    1
    18    18    19   ar
    19    19    20   ar
    20    20    21   ar
    21    21    22   ar
    22    22    23   ar
    23    12     7   ar
    24    17    13    1
    25    23    18   ar
    26     1    24    1
    27     1    25    1
    28     1    26    1
    29     2    27    1
    30     2    28    1
    31     3    29    1
    32     6    30    1
    33     8    31    1
    34     9    32    1
    35    10    33    1
    36    11    34    1
    37    14    35    1
    38    14    36    1
    39    15    37    1
    40    15    38    1
    41    16    39    1
    42    16    40    1
    43    17    41    1
    44    17    42    1
    45    19    43    1
    46    20    44    1
    47    21    45    1
    48    22    46    1
    49    23    47    1
