
     RDKit          3D

 67 71  0  0  0  0  0  0  0  0999 V2000
    8.2791   -0.0792   -3.8514 C   0  0  0  0  0  0  0  0  0  0  0  0
    7.3857   -0.1558   -2.7591 O   0  0  0  0  0  0  0  0  0  0  0  0
    7.8140   -0.7092   -1.5635 C   0  0  0  0  0  0  0  0  0  0  0  0
    9.0240   -1.2118   -1.2762 N   0  0  0  0  0  0  0  0  0  0  0  0
    9.0614   -1.6489   -0.0393 N   0  0  0  0  0  0  0  0  0  0  0  0
   10.1930   -2.2589    0.6381 C   0  0  0  0  0  0  0  0  0  0  0  0
    7.8543   -1.4488    0.5516 C   0  0  0  0  0  0  0  0  0  0  0  0
    7.0623   -0.8579   -0.3993 C   0  0  0  0  0  0  0  0  0  0  0  0
    5.7293   -0.4520   -0.2834 N   0  0  0  0  0  0  0  0  0  0  0  0
    4.9285   -0.5849    0.8741 C   0  0  0  0  0  0  0  0  0  0  0  0
    5.4692   -1.1453    1.9655 N   0  0  0  0  0  0  0  0  0  0  0  0
    4.7244   -1.2801    3.0728 C   0  0  0  0  0  0  0  0  0  0  0  0
    3.4098   -0.8351    3.0609 C   0  0  0  0  0  0  0  0  0  0  0  0
    2.4123   -1.0493    4.6457 Br  0  0  0  0  0  0  0  0  0  0  0  0
    2.8486   -0.2640    1.9585 C   0  0  0  0  0  0  0  0  0  0  0  0
    1.4933    0.2376    1.8251 C   0  0  0  0  0  0  0  0  0  0  0  0
    0.4895    0.2442    2.7523 C   0  0  0  0  0  0  0  0  0  0  0  0
   -0.6492    0.8093    2.2281 N   0  0  0  0  0  0  0  0  0  0  0  0
   -0.3982    1.1737    0.9621 C   0  0  0  0  0  0  0  0  0  0  0  0
   -1.2213    1.7771    0.0330 C   0  0  0  0  0  0  0  0  0  0  0  0
   -2.5671    2.1392    0.2727 N   0  0  0  0  0  0  0  0  0  0  0  0
   -3.6292    1.2165    0.0020 C   0  0  0  0  0  0  0  0  0  0  0  0
   -3.2781    0.0946   -0.4521 O   0  0  0  0  0  0  0  0  0  0  0  0
   -5.0500    1.5861    0.2508 C   0  0  1  0  0  0  0  0  0  0  0  0
   -5.3382    2.9285   -0.3989 C   0  0  0  0  0  0  0  0  0  0  0  0
   -5.9528    0.5732   -0.0762 N   0  0  0  0  0  0  0  0  0  0  0  0
   -6.0140    0.1089   -1.4017 C   0  0  0  0  0  0  0  0  0  0  0  0
   -7.2899   -0.6097   -1.7627 C   0  0  0  0  0  0  0  0  0  0  0  0
   -7.8176   -1.3826   -0.6589 N   0  0  0  0  0  0  0  0  0  0  0  0
   -9.0380   -2.0159   -1.0568 C   0  0  0  0  0  0  0  0  0  0  0  0
   -7.9141   -0.6314    0.5646 C   0  0  0  0  0  0  0  0  0  0  0  0
   -6.4867   -0.2288    0.9430 C   0  0  0  0  0  0  0  0  0  0  0  0
   -0.6820    2.0360   -1.2056 C   0  0  0  0  0  0  0  0  0  0  0  0
    0.6272    1.7074   -1.5101 C   0  0  0  0  0  0  0  0  0  0  0  0
    1.4315    1.0951   -0.5384 C   0  0  0  0  0  0  0  0  0  0  0  0
    0.9187    0.8279    0.6985 C   0  0  0  0  0  0  0  0  0  0  0  0
    3.6591   -0.1521    0.8537 N   0  0  0  0  0  0  0  0  0  0  0  0
    7.7343   -0.3001   -4.7930 H   0  0  0  0  0  0  0  0  0  0  0  0
    9.0753   -0.8097   -3.6973 H   0  0  0  0  0  0  0  0  0  0  0  0
    8.7202    0.9478   -3.8586 H   0  0  0  0  0  0  0  0  0  0  0  0
   10.1263   -2.0333    1.7108 H   0  0  0  0  0  0  0  0  0  0  0  0
   10.1260   -3.3672    0.5375 H   0  0  0  0  0  0  0  0  0  0  0  0
   11.1560   -1.8570    0.2738 H   0  0  0  0  0  0  0  0  0  0  0  0
    7.6451   -1.7244    1.5579 H   0  0  0  0  0  0  0  0  0  0  0  0
    5.2598   -0.0028   -1.1263 H   0  0  0  0  0  0  0  0  0  0  0  0
    5.0940   -1.7201    3.9828 H   0  0  0  0  0  0  0  0  0  0  0  0
    0.4606   -0.1025    3.7579 H   0  0  0  0  0  0  0  0  0  0  0  0
   -1.5632    0.9453    2.7054 H   0  0  0  0  0  0  0  0  0  0  0  0
   -2.8638    3.0685    0.6491 H   0  0  0  0  0  0  0  0  0  0  0  0
   -5.1168    1.7773    1.3597 H   0  0  0  0  0  0  0  0  0  0  0  0
   -4.9461    2.9963   -1.4253 H   0  0  0  0  0  0  0  0  0  0  0  0
   -4.7714    3.6859    0.2041 H   0  0  0  0  0  0  0  0  0  0  0  0
   -6.4030    3.1384   -0.2912 H   0  0  0  0  0  0  0  0  0  0  0  0
   -5.8853    0.9450   -2.1219 H   0  0  0  0  0  0  0  0  0  0  0  0
   -5.1874   -0.6068   -1.5901 H   0  0  0  0  0  0  0  0  0  0  0  0
   -8.0649    0.1107   -2.0963 H   0  0  0  0  0  0  0  0  0  0  0  0
   -7.1337   -1.3180   -2.6065 H   0  0  0  0  0  0  0  0  0  0  0  0
   -9.5146   -1.4262   -1.8862 H   0  0  0  0  0  0  0  0  0  0  0  0
   -9.7310   -2.1568   -0.2047 H   0  0  0  0  0  0  0  0  0  0  0  0
   -8.7654   -3.0167   -1.4967 H   0  0  0  0  0  0  0  0  0  0  0  0
   -8.2833   -1.3083    1.3461 H   0  0  0  0  0  0  0  0  0  0  0  0
   -8.5847    0.2444    0.5025 H   0  0  0  0  0  0  0  0  0  0  0  0
   -5.9116   -1.2005    0.9692 H   0  0  0  0  0  0  0  0  0  0  0  0
   -6.4450    0.2897    1.9035 H   0  0  0  0  0  0  0  0  0  0  0  0
   -1.2603    2.5135   -2.0093 H   0  0  0  0  0  0  0  0  0  0  0  0
    1.0854    1.8936   -2.4672 H   0  0  0  0  0  0  0  0  0  0  0  0
    2.4596    0.8402   -0.7860 H   0  0  0  0  0  0  0  0  0  0  0  0
  1  2  1  0
  2  3  1  0
  3  4  2  0
  4  5  1  0
  5  6  1  0
  5  7  1  0
  7  8  2  0
  8  9  1  0
  9 10  1  0
 10 11  2  0
 11 12  1  0
 12 13  2  0
 13 14  1  0
 13 15  1  0
 15 16  1  0
 16 17  2  0
 17 18  1  0
 18 19  1  0
 19 20  2  0
 20 21  1  0
 21 22  1  0
 22 23  2  0
 22 24  1  0
 24 25  1  0
 24 26  1  0
 26 27  1  0
 27 28  1  0
 28 29  1  0
 29 30  1  0
 29 31  1  0
 31 32  1  0
 20 33  1  0
 33 34  2  0
 34 35  1  0
 35 36  2  0
 15 37  2  0
  8  3  1  0
 37 10  1  0
 36 16  1  0
 36 19  1  0
 32 26  1  0
  1 38  1  0
  1 39  1  0
  1 40  1  0
  6 41  1  0
  6 42  1  0
  6 43  1  0
  7 44  1  0
  9 45  1  0
 12 46  1  0
 17 47  1  0
 18 48  1  0
 21 49  1  0
 24 50  1  1
 25 51  1  0
 25 52  1  0
 25 53  1  0
 27 54  1  0
 27 55  1  0
 28 56  1  0
 28 57  1  0
 30 58  1  0
 30 59  1  0
 30 60  1  0
 31 61  1  0
 31 62  1  0
 32 63  1  0
 32 64  1  0
 33 65  1  0
 34 66  1  0
 35 67  1  0
M  END
$$$$
