@<TRIPOS>MOLECULE
*****
 67 71 0 0 0
SMALL
GASTEIGER

@<TRIPOS>ATOM
      1 C           8.2791   -0.0792   -3.8514 C.3     1  UNL1        0.0805
      2 O           7.3857   -0.1558   -2.7591 O.3     1  UNL1       -0.4774
      3 C           7.8140   -0.7092   -1.5635 C.ar    1  UNL1        0.2552
      4 N           9.0240   -1.2118   -1.2762 N.ar    1  UNL1       -0.1317
      5 N           9.0614   -1.6489   -0.0393 N.ar    1  UNL1       -0.2692
      6 C          10.1930   -2.2589    0.6381 C.3     1  UNL1        0.0304
      7 C           7.8543   -1.4488    0.5516 C.ar    1  UNL1        0.0503
      8 C           7.0623   -0.8579   -0.3993 C.ar    1  UNL1        0.1152
      9 N           5.7293   -0.4520   -0.2834 N.pl3   1  UNL1       -0.2782
     10 C           4.9285   -0.5849    0.8741 C.ar    1  UNL1        0.2202
     11 N           5.4692   -1.1453    1.9655 N.ar    1  UNL1       -0.2215
     12 C           4.7244   -1.2801    3.0728 C.ar    1  UNL1        0.0472
     13 C           3.4098   -0.8351    3.0609 C.ar    1  UNL1        0.0621
     14 BR          2.4123   -1.0493    4.6457 Br      1  UNL1       -0.0465
     15 C           2.8486   -0.2640    1.9585 C.ar    1  UNL1        0.0920
     16 C           1.4933    0.2376    1.8251 C.ar    1  UNL1        0.0266
     17 C           0.4895    0.2442    2.7523 C.ar    1  UNL1        0.0120
     18 N          -0.6492    0.8093    2.2281 N.ar    1  UNL1       -0.3586
     19 C          -0.3982    1.1737    0.9621 C.ar    1  UNL1        0.0686
     20 C          -1.2213    1.7771    0.0330 C.ar    1  UNL1        0.0576
     21 N          -2.5671    2.1392    0.2727 N.am    1  UNL1       -0.2825
     22 C          -3.6292    1.2165    0.0020 C.2     1  UNL1        0.2342
     23 O          -3.2781    0.0946   -0.4521 O.2     1  UNL1       -0.2738
     24 C          -5.0500    1.5861    0.2508 C.3     1  UNL1        0.0848
     25 C          -5.3382    2.9285   -0.3989 C.3     1  UNL1       -0.0409
     26 N          -5.9528    0.5732   -0.0762 N.3     1  UNL1       -0.2893
     27 C          -6.0140    0.1089   -1.4017 C.3     1  UNL1        0.0124
     28 C          -7.2899   -0.6097   -1.7627 C.3     1  UNL1        0.0114
     29 N          -7.8176   -1.3826   -0.6589 N.3     1  UNL1       -0.3029
     30 C          -9.0380   -2.0159   -1.0568 C.3     1  UNL1       -0.0127
     31 C          -7.9141   -0.6314    0.5646 C.3     1  UNL1        0.0114
     32 C          -6.4867   -0.2288    0.9430 C.3     1  UNL1        0.0124
     33 C          -0.6820    2.0360   -1.2056 C.ar    1  UNL1       -0.0384
     34 C           0.6272    1.7074   -1.5101 C.ar    1  UNL1       -0.0593
     35 C           1.4315    1.0951   -0.5384 C.ar    1  UNL1       -0.0518
     36 C           0.9187    0.8279    0.6985 C.ar    1  UNL1        0.0107
     37 N           3.6591   -0.1521    0.8537 N.ar    1  UNL1       -0.2130
     38 H           7.7343   -0.3001   -4.7930 H       1  UNL1        0.0660
     39 H           9.0753   -0.8097   -3.6973 H       1  UNL1        0.0660
     40 H           8.7202    0.9478   -3.8586 H       1  UNL1        0.0660
     41 H          10.1263   -2.0333    1.7108 H       1  UNL1        0.0473
     42 H          10.1260   -3.3672    0.5375 H       1  UNL1        0.0473
     43 H          11.1560   -1.8570    0.2738 H       1  UNL1        0.0473
     44 H           7.6451   -1.7244    1.5579 H       1  UNL1        0.0846
     45 H           5.2598   -0.0028   -1.1263 H       1  UNL1        0.1552
     46 H           5.0940   -1.7201    3.9828 H       1  UNL1        0.0842
     47 H           0.4606   -0.1025    3.7579 H       1  UNL1        0.0814
     48 H          -1.5632    0.9453    2.7054 H       1  UNL1        0.1654
     49 H          -2.8638    3.0685    0.6491 H       1  UNL1        0.1549
     50 H          -5.1168    1.7773    1.3597 H       1  UNL1        0.0556
     51 H          -4.9461    2.9963   -1.4253 H       1  UNL1        0.0249
     52 H          -4.7714    3.6859    0.2041 H       1  UNL1        0.0249
     53 H          -6.4030    3.1384   -0.2912 H       1  UNL1        0.0249
     54 H          -5.8853    0.9450   -2.1219 H       1  UNL1        0.0439
     55 H          -5.1874   -0.6068   -1.5901 H       1  UNL1        0.0439
     56 H          -8.0649    0.1107   -2.0963 H       1  UNL1        0.0439
     57 H          -7.1337   -1.3180   -2.6065 H       1  UNL1        0.0439
     58 H          -9.5146   -1.4262   -1.8862 H       1  UNL1        0.0391
     59 H          -9.7310   -2.1568   -0.2047 H       1  UNL1        0.0391
     60 H          -8.7654   -3.0167   -1.4967 H       1  UNL1        0.0391
     61 H          -8.2833   -1.3083    1.3461 H       1  UNL1        0.0439
     62 H          -8.5847    0.2444    0.5025 H       1  UNL1        0.0439
     63 H          -5.9116   -1.2005    0.9692 H       1  UNL1        0.0439
     64 H          -6.4450    0.2897    1.9035 H       1  UNL1        0.0439
     65 H          -1.2603    2.5135   -2.0093 H       1  UNL1        0.0637
     66 H           1.0854    1.8936   -2.4672 H       1  UNL1        0.0618
     67 H           2.4596    0.8402   -0.7860 H       1  UNL1        0.0624
@<TRIPOS>BOND
     1     1     2    1
     2     2     3    1
     3     3     4   ar
     4     4     5   ar
     5     5     6    1
     6     5     7   ar
     7     7     8   ar
     8     8     9    1
     9     9    10    1
    10    10    11   ar
    11    11    12   ar
    12    12    13   ar
    13    13    14    1
    14    13    15   ar
    15    15    16    1
    16    16    17   ar
    17    17    18   ar
    18    18    19   ar
    19    19    20   ar
    20    20    21    1
    21    21    22   am
    22    22    23    2
    23    22    24    1
    24    24    25    1
    25    24    26    1
    26    26    27    1
    27    27    28    1
    28    28    29    1
    29    29    30    1
    30    29    31    1
    31    31    32    1
    32    20    33   ar
    33    33    34   ar
    34    34    35   ar
    35    35    36   ar
    36    15    37   ar
    37     8     3   ar
    38    37    10   ar
    39    36    16   ar
    40    36    19   ar
    41    32    26    1
    42     1    38    1
    43     1    39    1
    44     1    40    1
    45     6    41    1
    46     6    42    1
    47     6    43    1
    48     7    44    1
    49     9    45    1
    50    12    46    1
    51    17    47    1
    52    18    48    1
    53    21    49    1
    54    24    50    1
    55    25    51    1
    56    25    52    1
    57    25    53    1
    58    27    54    1
    59    27    55    1
    60    28    56    1
    61    28    57    1
    62    30    58    1
    63    30    59    1
    64    30    60    1
    65    31    61    1
    66    31    62    1
    67    32    63    1
    68    32    64    1
    69    33    65    1
    70    34    66    1
    71    35    67    1
