@<TRIPOS>MOLECULE
*****
 28 28 0 0 0
SMALL
GASTEIGER

@<TRIPOS>ATOM
      1 N          -4.5538    0.2663    0.4147 N.am    0  UNK0       -0.1813
      2 O          -5.3672    0.7407    1.3858 O.3     0  UNK0       -0.2940
      3 C          -3.1758    0.1450    0.7996 C.2     0  UNK0        0.3231
      4 O          -2.8886    0.4911    1.9848 O.2     0  UNK0       -0.2507
      5 N          -2.2043   -0.3450   -0.1324 N.am    1  PHE1       -0.2843
      6 CA         -0.8208   -0.4533    0.2941 C.3     1  PHE1        0.1254
      7 CB         -0.0314    0.4078   -0.6535 C.3     1  PHE1        0.0013
      8 CG          1.4121    0.4332   -0.3871 C.ar    1  PHE1       -0.0451
      9 CD1         1.8767    1.4231    0.4863 C.ar    1  PHE1       -0.0585
     10 CE1         3.1971    1.5615    0.8223 C.ar    1  PHE1       -0.0615
     11 CZ          4.1279    0.7025    0.2917 C.ar    1  PHE1       -0.0617
     12 CE2         3.7002   -0.2863   -0.5745 C.ar    1  PHE1       -0.0615
     13 CD2         2.3750   -0.4083   -0.8982 C.ar    1  PHE1       -0.0585
     14 C          -0.4406   -1.8857    0.2025 C.2     1  PHE1        0.3256
     15 O           0.7593   -2.4701    0.4993 O.3     1  PHE1       -0.4793
     16 OXT        -1.3922   -2.6207   -0.2114 O.2     1  PHE1       -0.2489
     17 H          -4.8531   -0.0003   -0.5404 H       0  UNK0        0.1838
     18 H          -5.1347    1.6496    1.6697 H       0  UNK0        0.2414
     19 H          -2.4756   -0.6228   -1.1057 H       1  PHE1        0.1511
     20 HA         -0.7439   -0.1131    1.3475 H       1  PHE1        0.0618
     21 HB1        -0.4447    1.4394   -0.5694 H       1  PHE1        0.0337
     22 HB2        -0.2829    0.0641   -1.6863 H       1  PHE1        0.0337
     23 HD1         1.1620    2.1307    0.9322 H       1  PHE1        0.0620
     24 HE1         3.5029    2.3600    1.5150 H       1  PHE1        0.0618
     25 HZ          5.1492    0.8598    0.5919 H       1  PHE1        0.0618
     26 HE2         4.4442   -0.9573   -0.9860 H       1  PHE1        0.0618
     27 HD2         2.0210   -1.1694   -1.5691 H       1  PHE1        0.0620
     28 H           1.0818   -3.3423    0.0541 H       1  PHE1        0.2951
@<TRIPOS>BOND
     1     1     2    1
     2     1     3   am
     3     3     4    2
     4     3     5   am
     5     5     6    1
     6     6     7    1
     7     7     8    1
     8     8     9   ar
     9     9    10   ar
    10    10    11   ar
    11    11    12   ar
    12    12    13   ar
    13     6    14    1
    14    14    15    1
    15    14    16    2
    16    13     8   ar
    17     1    17    1
    18     2    18    1
    19     5    19    1
    20     6    20    1
    21     7    21    1
    22     7    22    1
    23     9    23    1
    24    10    24    1
    25    11    25    1
    26    12    26    1
    27    13    27    1
    28    15    28    1
