
     RDKit          3D

 28 28  0  0  0  0  0  0  0  0999 V2000
   -4.5538    0.2663    0.4147 N   0  0  0  0  0  0  0  0  0  0  0  0
   -5.3672    0.7407    1.3858 O   0  0  0  0  0  0  0  0  0  0  0  0
   -3.1758    0.1450    0.7996 C   0  0  0  0  0  0  0  0  0  0  0  0
   -2.8886    0.4911    1.9848 O   0  0  0  0  0  0  0  0  0  0  0  0
   -2.2043   -0.3450   -0.1324 N   0  0  0  0  0  0  0  0  0  0  0  0
   -0.8208   -0.4533    0.2941 C   0  0  2  0  0  0  0  0  0  0  0  0
   -0.0314    0.4078   -0.6535 C   0  0  0  0  0  0  0  0  0  0  0  0
    1.4121    0.4332   -0.3871 C   0  0  0  0  0  0  0  0  0  0  0  0
    1.8767    1.4231    0.4863 C   0  0  0  0  0  0  0  0  0  0  0  0
    3.1971    1.5615    0.8223 C   0  0  0  0  0  0  0  0  0  0  0  0
    4.1279    0.7025    0.2917 C   0  0  0  0  0  0  0  0  0  0  0  0
    3.7002   -0.2863   -0.5745 C   0  0  0  0  0  0  0  0  0  0  0  0
    2.3750   -0.4083   -0.8982 C   0  0  0  0  0  0  0  0  0  0  0  0
   -0.4406   -1.8857    0.2025 C   0  0  0  0  0  0  0  0  0  0  0  0
    0.7593   -2.4701    0.4993 O   0  0  0  0  0  0  0  0  0  0  0  0
   -1.3922   -2.6207   -0.2114 O   0  0  0  0  0  0  0  0  0  0  0  0
   -4.8531   -0.0003   -0.5404 H   0  0  0  0  0  0  0  0  0  0  0  0
   -5.1347    1.6496    1.6697 H   0  0  0  0  0  0  0  0  0  0  0  0
   -2.4756   -0.6228   -1.1057 H   0  0  0  0  0  0  0  0  0  0  0  0
   -0.7439   -0.1131    1.3475 H   0  0  0  0  0  0  0  0  0  0  0  0
   -0.4447    1.4394   -0.5694 H   0  0  0  0  0  0  0  0  0  0  0  0
   -0.2829    0.0641   -1.6863 H   0  0  0  0  0  0  0  0  0  0  0  0
    1.1620    2.1307    0.9322 H   0  0  0  0  0  0  0  0  0  0  0  0
    3.5029    2.3600    1.5150 H   0  0  0  0  0  0  0  0  0  0  0  0
    5.1492    0.8598    0.5919 H   0  0  0  0  0  0  0  0  0  0  0  0
    4.4442   -0.9573   -0.9860 H   0  0  0  0  0  0  0  0  0  0  0  0
    2.0210   -1.1694   -1.5691 H   0  0  0  0  0  0  0  0  0  0  0  0
    1.0818   -3.3423    0.0541 H   0  0  0  0  0  0  0  0  0  0  0  0
  1  2  1  0
  1  3  1  0
  3  4  2  0
  3  5  1  0
  5  6  1  0
  6  7  1  0
  7  8  1  0
  8  9  2  0
  9 10  1  0
 10 11  2  0
 11 12  1  0
 12 13  2  0
  6 14  1  0
 14 15  1  0
 14 16  2  0
 13  8  1  0
  1 17  1  0
  2 18  1  0
  5 19  1  0
  6 20  1  1
  7 21  1  0
  7 22  1  0
  9 23  1  0
 10 24  1  0
 11 25  1  0
 12 26  1  0
 13 27  1  0
 15 28  1  0
M  END
$$$$
