@<TRIPOS>MOLECULE
*****
 42 45 0 0 0
SMALL
GASTEIGER

@<TRIPOS>ATOM
      1 C           0.4966    1.1865   -2.9179 C.3     1  UNL1       -0.0460
      2 C           0.2676   -0.1139   -2.1708 C.3     1  UNL1        0.0293
      3 C           1.4467   -0.3052   -1.2463 C.3     1  UNL1        0.0101
      4 C           1.3798    0.6262   -0.0765 C.ar    1  UNL1        0.0745
      5 C           0.2755    1.3873    0.2338 C.ar    1  UNL1        0.1038
      6 N           0.6265    2.0741    1.3433 N.ar    1  UNL1       -0.1322
      7 N           1.8611    1.7442    1.6742 N.ar    1  UNL1       -0.0576
      8 N           2.3673    0.8592    0.8346 N.ar    1  UNL1       -0.1820
      9 C           3.6702    0.2607    0.8582 C.ar    1  UNL1        0.2530
     10 N           4.4933    0.2712   -0.1995 N.ar    1  UNL1       -0.2161
     11 C           5.7190   -0.2905   -0.1808 C.ar    1  UNL1        0.0681
     12 C           6.1699   -0.9125    0.9729 C.ar    1  UNL1        0.1595
     13 F           7.4012   -1.4783    0.9960 F       1  UNL1       -0.2023
     14 C           5.3162   -0.9207    2.0628 C.ar    1  UNL1        0.0681
     15 N           4.0998   -0.3385    1.9758 N.ar    1  UNL1       -0.2161
     16 C          -0.9541    1.3277   -0.6016 C.3     1  UNL1        0.0610
     17 N          -0.9234    0.0899   -1.3372 N.am    1  UNL1       -0.2884
     18 C          -1.9595   -0.8807   -1.2772 C.2     1  UNL1        0.2501
     19 O          -1.9020   -1.9342   -1.9222 O.2     1  UNL1       -0.2699
     20 C          -3.1017   -0.5867   -0.4207 C.ar    1  UNL1        0.0755
     21 C          -4.1875    0.0922   -0.9701 C.ar    1  UNL1       -0.0287
     22 C          -5.2668    0.3689   -0.1564 C.ar    1  UNL1        0.0291
     23 N          -5.2862   -0.0025    1.1435 N.ar    1  UNL1       -0.2483
     24 C          -4.2574   -0.6588    1.7088 C.ar    1  UNL1        0.1795
     25 C          -4.2868   -1.0672    3.1514 C.3     1  UNL1        0.4370
     26 F          -4.1762   -2.4353    3.2810 F       1  UNL1       -0.1643
     27 F          -5.3480   -0.5379    3.8138 F       1  UNL1       -0.1643
     28 F          -3.1086   -0.5400    3.6994 F       1  UNL1       -0.1643
     29 C          -3.1768   -0.9379    0.9012 C.ar    1  UNL1        0.1654
     30 F          -2.1309   -1.5964    1.4461 F       1  UNL1       -0.2025
     31 H           1.3097    1.0823   -3.6687 H       1  UNL1        0.0248
     32 H          -0.4407    1.4941   -3.4259 H       1  UNL1        0.0248
     33 H           0.7644    1.9817   -2.2025 H       1  UNL1        0.0248
     34 H           0.1649   -0.9656   -2.8401 H       1  UNL1        0.0502
     35 H           1.3853   -1.3745   -0.8922 H       1  UNL1        0.0347
     36 H           2.4125   -0.2066   -1.7508 H       1  UNL1        0.0347
     37 H           6.3833   -0.2841   -1.0287 H       1  UNL1        0.0860
     38 H           5.6792   -1.4089    2.9570 H       1  UNL1        0.0860
     39 H          -1.8128    1.3990    0.0913 H       1  UNL1        0.0530
     40 H          -1.0364    2.2237   -1.2742 H       1  UNL1        0.0530
     41 H          -4.2075    0.4038   -2.0015 H       1  UNL1        0.0641
     42 H          -6.1266    0.9041   -0.5832 H       1  UNL1        0.0830
@<TRIPOS>BOND
     1     1     2    1
     2     2     3    1
     3     3     4    1
     4     4     5   ar
     5     5     6   ar
     6     6     7   ar
     7     7     8   ar
     8     8     9    1
     9     9    10   ar
    10    10    11   ar
    11    11    12   ar
    12    12    13    1
    13    12    14   ar
    14    14    15   ar
    15     5    16    1
    16    16    17    1
    17    17    18   am
    18    18    19    2
    19    18    20    1
    20    20    21   ar
    21    21    22   ar
    22    22    23   ar
    23    23    24   ar
    24    24    25    1
    25    25    26    1
    26    25    27    1
    27    25    28    1
    28    24    29   ar
    29    29    30    1
    30    17     2    1
    31    29    20   ar
    32     8     4   ar
    33    15     9   ar
    34     1    31    1
    35     1    32    1
    36     1    33    1
    37     2    34    1
    38     3    35    1
    39     3    36    1
    40    11    37    1
    41    14    38    1
    42    16    39    1
    43    16    40    1
    44    21    41    1
    45    22    42    1
