@<TRIPOS>MOLECULE
*****
 107 110 0 0 0
SMALL
GASTEIGER

@<TRIPOS>ATOM
      1 C           0.0711   -3.3019    3.8017 C.2     1  UNL1       -0.1026
      2 C          -0.1671   -2.0217    3.5513 C.2     1  UNL1       -0.0889
      3 C          -1.2821   -1.4995    2.7417 C.3     1  UNL1       -0.0080
      4 C          -0.9026   -0.6120    1.5934 C.3     1  UNL1        0.1028
      5 N          -2.1543   -0.2015    0.9605 N.am    1  UNL1       -0.3023
      6 C          -2.4390    1.1715    0.8432 C.2     1  UNL1        0.2352
      7 O          -1.5894    2.0254    1.2880 O.2     1  UNL1       -0.2739
      8 C          -3.6756    1.7482    0.2354 C.3     1  UNL1        0.1355
      9 N          -3.5949    3.1612    0.4084 N.3     1  UNL1       -0.1650
     10 S          -4.7478    3.9346    1.3210 S.O2    1  UNL1        0.0979
     11 O          -4.6613    3.3741    2.7531 O.2     1  UNL1       -0.1411
     12 O          -4.3195    5.4107    1.5438 O.2     1  UNL1       -0.1411
     13 N          -6.3338    3.9059    0.8307 N.3     1  UNL1       -0.1622
     14 C          -7.1185    2.7904    0.6967 C.3     1  UNL1        0.0450
     15 C          -8.1637    2.8570   -0.4151 C.3     1  UNL1        0.0621
     16 O          -8.7378    4.0957   -0.5539 O.3     1  UNL1       -0.3771
     17 C          -7.7119    4.9649   -0.9291 C.3     1  UNL1        0.0621
     18 C          -6.8303    5.1359    0.2636 C.3     1  UNL1        0.0450
     19 C          -3.8009    1.4482   -1.2502 C.3     1  UNL1        0.1055
     20 O          -4.9901    2.1095   -1.6672 O.3     1  UNL1       -0.3851
     21 C          -4.0217    0.0129   -1.4968 C.ar    1  UNL1       -0.0171
     22 C          -3.0851   -0.7429   -2.2285 C.ar    1  UNL1       -0.0561
     23 C          -3.2473   -2.0747   -2.4921 C.ar    1  UNL1       -0.0614
     24 C          -4.3583   -2.7502   -2.0440 C.ar    1  UNL1       -0.0617
     25 C          -5.2957   -2.0383   -1.3236 C.ar    1  UNL1       -0.0614
     26 C          -5.1202   -0.6962   -1.0646 C.ar    1  UNL1       -0.0561
     27 C          -0.0298   -1.3011    0.6482 C.2     1  UNL1        0.2340
     28 O          -0.4160   -1.4162   -0.5529 O.2     1  UNL1       -0.2738
     29 N           1.2398   -1.8810    0.8850 N.am    1  UNL1       -0.3082
     30 C           2.0892   -2.5378   -0.0135 C.3     1  UNL1        0.0555
     31 C           1.6597   -3.4193   -1.0835 C.3     1  UNL1       -0.0290
     32 C           0.9516   -4.6765   -0.6683 C.3     1  UNL1       -0.0393
     33 C          -0.2982   -4.5648    0.0974 C.3     1  UNL1       -0.0502
     34 C          -0.7681   -5.9661    0.4376 C.3     1  UNL1       -0.0528
     35 C           0.2147   -7.0370    0.0943 C.3     1  UNL1       -0.0530
     36 C           0.5592   -7.0199   -1.3658 C.3     1  UNL1       -0.0528
     37 C           0.8222   -5.6433   -1.8387 C.3     1  UNL1       -0.0502
     38 C           3.1325   -1.5475   -0.5022 C.3     1  UNL1        0.1453
     39 O           3.9687   -2.2381   -1.4057 O.3     1  UNL1       -0.3835
     40 C           4.0097   -1.0436    0.5942 C.3     1  UNL1        0.3494
     41 F           4.6912   -2.0386    1.2148 F       1  UNL1       -0.1924
     42 F           3.2617   -0.3796    1.5755 F       1  UNL1       -0.1924
     43 C           4.9699    0.0139    0.0935 C.2     1  UNL1        0.2853
     44 O           6.1934   -0.2158    0.2341 O.2     1  UNL1       -0.2692
     45 N           4.4820    1.2017   -0.5031 N.am    1  UNL1       -0.3091
     46 C           5.4181    2.2010   -0.9618 C.3     1  UNL1        0.0245
     47 C           6.2343    2.7420    0.1802 C.3     1  UNL1        0.0146
     48 N           7.1792    3.7160   -0.1596 N.3     1  UNL1       -0.2965
     49 C           6.7612    4.9862   -0.5958 C.3     1  UNL1        0.0225
     50 C           7.8456    5.7739   -1.3040 C.3     1  UNL1        0.0604
     51 O           8.9745    5.7487   -0.4868 O.3     1  UNL1       -0.3772
     52 C           9.4865    4.4566   -0.5263 C.3     1  UNL1        0.0604
     53 C           8.5277    3.5402    0.1950 C.3     1  UNL1        0.0225
     54 H           0.8972   -3.6195    4.3970 H       1  UNL1        0.0532
     55 H          -0.6168   -4.0239    3.3784 H       1  UNL1        0.0532
     56 H           0.5139   -1.2812    3.9779 H       1  UNL1        0.0567
     57 H          -1.8077   -2.4200    2.3304 H       1  UNL1        0.0330
     58 H          -2.0704   -1.0337    3.3850 H       1  UNL1        0.0330
     59 H          -0.3810    0.3062    1.9340 H       1  UNL1        0.0598
     60 H          -2.8348   -0.8915    0.6075 H       1  UNL1        0.1495
     61 H          -4.5064    1.2786    0.7796 H       1  UNL1        0.0603
     62 H          -2.6610    3.5787    0.3827 H       1  UNL1        0.1501
     63 H          -6.5829    1.8543    0.5267 H       1  UNL1        0.0467
     64 H          -7.6716    2.6094    1.6772 H       1  UNL1        0.0467
     65 H          -7.7595    2.5385   -1.3855 H       1  UNL1        0.0573
     66 H          -8.9600    2.1359   -0.1300 H       1  UNL1        0.0573
     67 H          -7.1757    4.4435   -1.7708 H       1  UNL1        0.0573
     68 H          -8.0671    5.9650   -1.2296 H       1  UNL1        0.0573
     69 H          -5.9966    5.8080   -0.0428 H       1  UNL1        0.0467
     70 H          -7.3974    5.6716    1.0395 H       1  UNL1        0.0467
     71 H          -3.0037    1.8726   -1.8525 H       1  UNL1        0.0665
     72 H          -4.7463    3.0640   -1.7837 H       1  UNL1        0.2103
     73 H          -2.2111   -0.1784   -2.5757 H       1  UNL1        0.0621
     74 H          -2.5165   -2.6360   -3.0575 H       1  UNL1        0.0618
     75 H          -4.4914   -3.8145   -2.2538 H       1  UNL1        0.0618
     76 H          -6.1652   -2.5805   -0.9770 H       1  UNL1        0.0618
     77 H          -5.8717   -0.1680   -0.4958 H       1  UNL1        0.0621
     78 H           1.5622   -1.7800    1.8909 H       1  UNL1        0.1491
     79 H           2.7275   -3.2422    0.6749 H       1  UNL1        0.0526
     80 H           2.6032   -3.8207   -1.5870 H       1  UNL1        0.0287
     81 H           1.1691   -2.9346   -1.9626 H       1  UNL1        0.0287
     82 H           1.6985   -5.1982    0.0181 H       1  UNL1        0.0301
     83 H          -0.0722   -4.0812    1.0659 H       1  UNL1        0.0268
     84 H          -1.1078   -3.9800   -0.3832 H       1  UNL1        0.0268
     85 H          -1.6807   -6.1496   -0.1931 H       1  UNL1        0.0265
     86 H          -1.1079   -5.9865    1.4751 H       1  UNL1        0.0265
     87 H           1.1012   -6.9359    0.7630 H       1  UNL1        0.0265
     88 H          -0.1953   -8.0513    0.3455 H       1  UNL1        0.0265
     89 H           1.4665   -7.6698   -1.4815 H       1  UNL1        0.0265
     90 H          -0.3090   -7.4636   -1.9082 H       1  UNL1        0.0265
     91 H           1.7851   -5.6569   -2.4302 H       1  UNL1        0.0268
     92 H           0.0260   -5.2633   -2.5198 H       1  UNL1        0.0268
     93 H           2.6696   -0.7093   -1.0475 H       1  UNL1        0.0677
     94 H           4.5542   -1.6166   -1.9057 H       1  UNL1        0.2101
     95 H           3.4397    1.3215   -0.5933 H       1  UNL1        0.1489
     96 H           6.1566    1.6469   -1.6158 H       1  UNL1        0.0474
     97 H           4.9776    2.9684   -1.5924 H       1  UNL1        0.0474
     98 H           5.4874    3.2046    0.8884 H       1  UNL1        0.0442
     99 H           6.7197    1.9430    0.7647 H       1  UNL1        0.0442
    100 H           6.4512    5.5982    0.2810 H       1  UNL1        0.0449
    101 H           5.8351    4.9131   -1.2265 H       1  UNL1        0.0449
    102 H           7.4902    6.8333   -1.3941 H       1  UNL1        0.0572
    103 H           8.1268    5.3563   -2.2757 H       1  UNL1        0.0572
    104 H          10.4557    4.4253   -0.0017 H       1  UNL1        0.0572
    105 H           9.6725    4.0814   -1.5554 H       1  UNL1        0.0572
    106 H           8.8315    2.4919   -0.0661 H       1  UNL1        0.0449
    107 H           8.6665    3.6157    1.3049 H       1  UNL1        0.0449
@<TRIPOS>BOND
     1     1     2    2
     2     2     3    1
     3     3     4    1
     4     4     5    1
     5     5     6   am
     6     6     7    2
     7     6     8    1
     8     8     9    1
     9     9    10    1
    10    10    11    2
    11    10    12    2
    12    10    13    1
    13    13    14    1
    14    14    15    1
    15    15    16    1
    16    16    17    1
    17    17    18    1
    18     8    19    1
    19    19    20    1
    20    19    21    1
    21    21    22   ar
    22    22    23   ar
    23    23    24   ar
    24    24    25   ar
    25    25    26   ar
    26     4    27    1
    27    27    28    2
    28    27    29   am
    29    29    30    1
    30    30    31    1
    31    31    32    1
    32    32    33    1
    33    33    34    1
    34    34    35    1
    35    35    36    1
    36    36    37    1
    37    30    38    1
    38    38    39    1
    39    38    40    1
    40    40    41    1
    41    40    42    1
    42    40    43    1
    43    43    44    2
    44    43    45   am
    45    45    46    1
    46    46    47    1
    47    47    48    1
    48    48    49    1
    49    49    50    1
    50    50    51    1
    51    51    52    1
    52    52    53    1
    53    18    13    1
    54    26    21   ar
    55    37    32    1
    56    53    48    1
    57     1    54    1
    58     1    55    1
    59     2    56    1
    60     3    57    1
    61     3    58    1
    62     4    59    1
    63     5    60    1
    64     8    61    1
    65     9    62    1
    66    14    63    1
    67    14    64    1
    68    15    65    1
    69    15    66    1
    70    17    67    1
    71    17    68    1
    72    18    69    1
    73    18    70    1
    74    19    71    1
    75    20    72    1
    76    22    73    1
    77    23    74    1
    78    24    75    1
    79    25    76    1
    80    26    77    1
    81    29    78    1
    82    30    79    1
    83    31    80    1
    84    31    81    1
    85    32    82    1
    86    33    83    1
    87    33    84    1
    88    34    85    1
    89    34    86    1
    90    35    87    1
    91    35    88    1
    92    36    89    1
    93    36    90    1
    94    37    91    1
    95    37    92    1
    96    38    93    1
    97    39    94    1
    98    45    95    1
    99    46    96    1
   100    46    97    1
   101    47    98    1
   102    47    99    1
   103    49   100    1
   104    49   101    1
   105    50   102    1
   106    50   103    1
   107    52   104    1
   108    52   105    1
   109    53   106    1
   110    53   107    1
