
     RDKit          3D

107110  0  0  0  0  0  0  0  0999 V2000
    0.0711   -3.3019    3.8017 C   0  0  0  0  0  0  0  0  0  0  0  0
   -0.1671   -2.0217    3.5513 C   0  0  0  0  0  0  0  0  0  0  0  0
   -1.2821   -1.4995    2.7417 C   0  0  0  0  0  0  0  0  0  0  0  0
   -0.9026   -0.6120    1.5934 C   0  0  2  0  0  0  0  0  0  0  0  0
   -2.1543   -0.2015    0.9605 N   0  0  0  0  0  0  0  0  0  0  0  0
   -2.4390    1.1715    0.8432 C   0  0  0  0  0  0  0  0  0  0  0  0
   -1.5894    2.0254    1.2880 O   0  0  0  0  0  0  0  0  0  0  0  0
   -3.6756    1.7482    0.2354 C   0  0  1  0  0  0  0  0  0  0  0  0
   -3.5949    3.1612    0.4084 N   0  0  0  0  0  0  0  0  0  0  0  0
   -4.7478    3.9346    1.3210 S   0  0  0  0  0  6  0  0  0  0  0  0
   -4.6613    3.3741    2.7531 O   0  0  0  0  0  0  0  0  0  0  0  0
   -4.3195    5.4107    1.5438 O   0  0  0  0  0  0  0  0  0  0  0  0
   -6.3338    3.9059    0.8307 N   0  0  0  0  0  0  0  0  0  0  0  0
   -7.1185    2.7904    0.6967 C   0  0  0  0  0  0  0  0  0  0  0  0
   -8.1637    2.8570   -0.4151 C   0  0  0  0  0  0  0  0  0  0  0  0
   -8.7378    4.0957   -0.5539 O   0  0  0  0  0  0  0  0  0  0  0  0
   -7.7119    4.9649   -0.9291 C   0  0  0  0  0  0  0  0  0  0  0  0
   -6.8303    5.1359    0.2636 C   0  0  0  0  0  0  0  0  0  0  0  0
   -3.8009    1.4482   -1.2502 C   0  0  0  0  0  0  0  0  0  0  0  0
   -4.9901    2.1095   -1.6672 O   0  0  0  0  0  0  0  0  0  0  0  0
   -4.0217    0.0129   -1.4968 C   0  0  0  0  0  0  0  0  0  0  0  0
   -3.0851   -0.7429   -2.2285 C   0  0  0  0  0  0  0  0  0  0  0  0
   -3.2473   -2.0747   -2.4921 C   0  0  0  0  0  0  0  0  0  0  0  0
   -4.3583   -2.7502   -2.0440 C   0  0  0  0  0  0  0  0  0  0  0  0
   -5.2957   -2.0383   -1.3236 C   0  0  0  0  0  0  0  0  0  0  0  0
   -5.1202   -0.6962   -1.0646 C   0  0  0  0  0  0  0  0  0  0  0  0
   -0.0298   -1.3011    0.6482 C   0  0  0  0  0  0  0  0  0  0  0  0
   -0.4160   -1.4162   -0.5529 O   0  0  0  0  0  0  0  0  0  0  0  0
    1.2398   -1.8810    0.8850 N   0  0  0  0  0  0  0  0  0  0  0  0
    2.0892   -2.5378   -0.0135 C   0  0  1  0  0  0  0  0  0  0  0  0
    1.6597   -3.4193   -1.0835 C   0  0  0  0  0  0  0  0  0  0  0  0
    0.9516   -4.6765   -0.6683 C   0  0  0  0  0  0  0  0  0  0  0  0
   -0.2982   -4.5648    0.0974 C   0  0  0  0  0  0  0  0  0  0  0  0
   -0.7681   -5.9661    0.4376 C   0  0  0  0  0  0  0  0  0  0  0  0
    0.2147   -7.0370    0.0943 C   0  0  0  0  0  0  0  0  0  0  0  0
    0.5592   -7.0199   -1.3658 C   0  0  0  0  0  0  0  0  0  0  0  0
    0.8222   -5.6433   -1.8387 C   0  0  0  0  0  0  0  0  0  0  0  0
    3.1325   -1.5475   -0.5022 C   0  0  0  0  0  0  0  0  0  0  0  0
    3.9687   -2.2381   -1.4057 O   0  0  0  0  0  0  0  0  0  0  0  0
    4.0097   -1.0436    0.5942 C   0  0  0  0  0  0  0  0  0  0  0  0
    4.6912   -2.0386    1.2148 F   0  0  0  0  0  0  0  0  0  0  0  0
    3.2617   -0.3796    1.5755 F   0  0  0  0  0  0  0  0  0  0  0  0
    4.9699    0.0139    0.0935 C   0  0  0  0  0  0  0  0  0  0  0  0
    6.1934   -0.2158    0.2341 O   0  0  0  0  0  0  0  0  0  0  0  0
    4.4820    1.2017   -0.5031 N   0  0  0  0  0  0  0  0  0  0  0  0
    5.4181    2.2010   -0.9618 C   0  0  0  0  0  0  0  0  0  0  0  0
    6.2343    2.7420    0.1802 C   0  0  0  0  0  0  0  0  0  0  0  0
    7.1792    3.7160   -0.1596 N   0  0  0  0  0  0  0  0  0  0  0  0
    6.7612    4.9862   -0.5958 C   0  0  0  0  0  0  0  0  0  0  0  0
    7.8456    5.7739   -1.3040 C   0  0  0  0  0  0  0  0  0  0  0  0
    8.9745    5.7487   -0.4868 O   0  0  0  0  0  0  0  0  0  0  0  0
    9.4865    4.4566   -0.5263 C   0  0  0  0  0  0  0  0  0  0  0  0
    8.5277    3.5402    0.1950 C   0  0  0  0  0  0  0  0  0  0  0  0
    0.8972   -3.6195    4.3970 H   0  0  0  0  0  0  0  0  0  0  0  0
   -0.6168   -4.0239    3.3784 H   0  0  0  0  0  0  0  0  0  0  0  0
    0.5139   -1.2812    3.9779 H   0  0  0  0  0  0  0  0  0  0  0  0
   -1.8077   -2.4200    2.3304 H   0  0  0  0  0  0  0  0  0  0  0  0
   -2.0704   -1.0337    3.3850 H   0  0  0  0  0  0  0  0  0  0  0  0
   -0.3810    0.3062    1.9340 H   0  0  0  0  0  0  0  0  0  0  0  0
   -2.8348   -0.8915    0.6075 H   0  0  0  0  0  0  0  0  0  0  0  0
   -4.5064    1.2786    0.7796 H   0  0  0  0  0  0  0  0  0  0  0  0
   -2.6610    3.5787    0.3827 H   0  0  0  0  0  0  0  0  0  0  0  0
   -6.5829    1.8543    0.5267 H   0  0  0  0  0  0  0  0  0  0  0  0
   -7.6716    2.6094    1.6772 H   0  0  0  0  0  0  0  0  0  0  0  0
   -7.7595    2.5385   -1.3855 H   0  0  0  0  0  0  0  0  0  0  0  0
   -8.9600    2.1359   -0.1300 H   0  0  0  0  0  0  0  0  0  0  0  0
   -7.1757    4.4435   -1.7708 H   0  0  0  0  0  0  0  0  0  0  0  0
   -8.0671    5.9650   -1.2296 H   0  0  0  0  0  0  0  0  0  0  0  0
   -5.9966    5.8080   -0.0428 H   0  0  0  0  0  0  0  0  0  0  0  0
   -7.3974    5.6716    1.0395 H   0  0  0  0  0  0  0  0  0  0  0  0
   -3.0037    1.8726   -1.8525 H   0  0  0  0  0  0  0  0  0  0  0  0
   -4.7463    3.0640   -1.7837 H   0  0  0  0  0  0  0  0  0  0  0  0
   -2.2111   -0.1784   -2.5757 H   0  0  0  0  0  0  0  0  0  0  0  0
   -2.5165   -2.6360   -3.0575 H   0  0  0  0  0  0  0  0  0  0  0  0
   -4.4914   -3.8145   -2.2538 H   0  0  0  0  0  0  0  0  0  0  0  0
   -6.1652   -2.5805   -0.9770 H   0  0  0  0  0  0  0  0  0  0  0  0
   -5.8717   -0.1680   -0.4958 H   0  0  0  0  0  0  0  0  0  0  0  0
    1.5622   -1.7800    1.8909 H   0  0  0  0  0  0  0  0  0  0  0  0
    2.7275   -3.2422    0.6749 H   0  0  0  0  0  0  0  0  0  0  0  0
    2.6032   -3.8207   -1.5870 H   0  0  0  0  0  0  0  0  0  0  0  0
    1.1691   -2.9346   -1.9626 H   0  0  0  0  0  0  0  0  0  0  0  0
    1.6985   -5.1982    0.0181 H   0  0  0  0  0  0  0  0  0  0  0  0
   -0.0722   -4.0812    1.0659 H   0  0  0  0  0  0  0  0  0  0  0  0
   -1.1078   -3.9800   -0.3832 H   0  0  0  0  0  0  0  0  0  0  0  0
   -1.6807   -6.1496   -0.1931 H   0  0  0  0  0  0  0  0  0  0  0  0
   -1.1079   -5.9865    1.4751 H   0  0  0  0  0  0  0  0  0  0  0  0
    1.1012   -6.9359    0.7630 H   0  0  0  0  0  0  0  0  0  0  0  0
   -0.1953   -8.0513    0.3455 H   0  0  0  0  0  0  0  0  0  0  0  0
    1.4665   -7.6698   -1.4815 H   0  0  0  0  0  0  0  0  0  0  0  0
   -0.3090   -7.4636   -1.9082 H   0  0  0  0  0  0  0  0  0  0  0  0
    1.7851   -5.6569   -2.4302 H   0  0  0  0  0  0  0  0  0  0  0  0
    0.0260   -5.2633   -2.5198 H   0  0  0  0  0  0  0  0  0  0  0  0
    2.6696   -0.7093   -1.0475 H   0  0  0  0  0  0  0  0  0  0  0  0
    4.5542   -1.6166   -1.9057 H   0  0  0  0  0  0  0  0  0  0  0  0
    3.4397    1.3215   -0.5933 H   0  0  0  0  0  0  0  0  0  0  0  0
    6.1566    1.6469   -1.6158 H   0  0  0  0  0  0  0  0  0  0  0  0
    4.9776    2.9684   -1.5924 H   0  0  0  0  0  0  0  0  0  0  0  0
    5.4874    3.2046    0.8884 H   0  0  0  0  0  0  0  0  0  0  0  0
    6.7197    1.9430    0.7647 H   0  0  0  0  0  0  0  0  0  0  0  0
    6.4512    5.5982    0.2810 H   0  0  0  0  0  0  0  0  0  0  0  0
    5.8351    4.9131   -1.2265 H   0  0  0  0  0  0  0  0  0  0  0  0
    7.4902    6.8333   -1.3941 H   0  0  0  0  0  0  0  0  0  0  0  0
    8.1268    5.3563   -2.2757 H   0  0  0  0  0  0  0  0  0  0  0  0
   10.4557    4.4253   -0.0017 H   0  0  0  0  0  0  0  0  0  0  0  0
    9.6725    4.0814   -1.5554 H   0  0  0  0  0  0  0  0  0  0  0  0
    8.8315    2.4919   -0.0661 H   0  0  0  0  0  0  0  0  0  0  0  0
    8.6665    3.6157    1.3049 H   0  0  0  0  0  0  0  0  0  0  0  0
  1  2  2  3
  2  3  1  0
  3  4  1  0
  4  5  1  0
  5  6  1  0
  6  7  2  0
  6  8  1  0
  8  9  1  0
  9 10  1  0
 10 11  2  0
 10 12  2  0
 10 13  1  0
 13 14  1  0
 14 15  1  0
 15 16  1  0
 16 17  1  0
 17 18  1  0
  8 19  1  0
 19 20  1  0
 19 21  1  0
 21 22  2  0
 22 23  1  0
 23 24  2  0
 24 25  1  0
 25 26  2  0
  4 27  1  0
 27 28  2  0
 27 29  1  0
 29 30  1  0
 30 31  1  0
 31 32  1  0
 32 33  1  0
 33 34  1  0
 34 35  1  0
 35 36  1  0
 36 37  1  0
 30 38  1  0
 38 39  1  0
 38 40  1  0
 40 41  1  0
 40 42  1  0
 40 43  1  0
 43 44  2  0
 43 45  1  0
 45 46  1  0
 46 47  1  0
 47 48  1  0
 48 49  1  0
 49 50  1  0
 50 51  1  0
 51 52  1  0
 52 53  1  0
 18 13  1  0
 26 21  1  0
 37 32  1  0
 53 48  1  0
  1 54  1  0
  1 55  1  0
  2 56  1  0
  3 57  1  0
  3 58  1  0
  4 59  1  1
  5 60  1  0
  8 61  1  1
  9 62  1  0
 14 63  1  0
 14 64  1  0
 15 65  1  0
 15 66  1  0
 17 67  1  0
 17 68  1  0
 18 69  1  0
 18 70  1  0
 19 71  1  0
 20 72  1  0
 22 73  1  0
 23 74  1  0
 24 75  1  0
 25 76  1  0
 26 77  1  0
 29 78  1  0
 30 79  1  1
 31 80  1  0
 31 81  1  0
 32 82  1  0
 33 83  1  0
 33 84  1  0
 34 85  1  0
 34 86  1  0
 35 87  1  0
 35 88  1  0
 36 89  1  0
 36 90  1  0
 37 91  1  0
 37 92  1  0
 38 93  1  0
 39 94  1  0
 45 95  1  0
 46 96  1  0
 46 97  1  0
 47 98  1  0
 47 99  1  0
 49100  1  0
 49101  1  0
 50102  1  0
 50103  1  0
 52104  1  0
 52105  1  0
 53106  1  0
 53107  1  0
M  END
$$$$
