@<TRIPOS>MOLECULE
*****
 51 56 0 0 0
SMALL
GASTEIGER

@<TRIPOS>ATOM
      1 C          -6.5657    1.6486   -2.1931 C.ar    1  UNL1       -0.0591
      2 C          -5.5361    0.7248   -2.2422 C.ar    1  UNL1       -0.0532
      3 C          -5.2230   -0.0078   -1.1165 C.ar    1  UNL1       -0.0037
      4 C          -4.1250   -0.9759   -1.2120 C.ar    1  UNL1        0.0466
      5 C          -4.2142   -2.2947   -1.5718 C.ar    1  UNL1        0.0597
      6 N          -2.9566   -2.7845   -1.5182 N.ar    1  UNL1       -0.1727
      7 N          -2.1333   -1.8237   -1.1461 N.ar    1  UNL1       -0.2205
      8 C          -0.7898   -1.8480   -0.9577 C.ar    1  UNL1        0.0420
      9 C          -0.0864   -0.7462   -0.5658 C.ar    1  UNL1        0.0366
     10 C           1.3536   -0.7249   -0.3514 C.ar    1  UNL1        0.0741
     11 C           2.1431   -1.8314   -0.5280 C.ar    1  UNL1       -0.0321
     12 C           3.5022   -1.7772   -0.3167 C.ar    1  UNL1       -0.0164
     13 C           4.1446   -0.5944    0.0876 C.ar    1  UNL1        0.1390
     14 O           5.4894   -0.5581    0.2922 O.3     1  UNL1       -0.4860
     15 C           6.1988    0.5486    0.6862 C.3     1  UNL1        0.1138
     16 C           7.3513    0.8765   -0.2857 C.3     1  UNL1       -0.0020
     17 C           8.1692    1.8205    0.5993 C.3     1  UNL1       -0.0006
     18 N           7.9573    1.3874    1.9485 N.3     1  UNL1       -0.3124
     19 C           7.0596    0.2744    1.9365 C.3     1  UNL1        0.0330
     20 C           3.3174    0.4809    0.2505 C.ar    1  UNL1        0.0699
     21 N           1.9820    0.4100    0.0382 N.ar    1  UNL1       -0.2513
     22 C          -0.8124    0.4255   -0.3629 C.ar    1  UNL1        0.0406
     23 N          -2.1385    0.4288   -0.5544 N.ar    1  UNL1       -0.2349
     24 C          -2.7962   -0.6870   -0.9433 C.ar    1  UNL1        0.1632
     25 C          -5.9025    0.1508    0.0549 C.ar    1  UNL1        0.0082
     26 C          -5.5943   -0.5731    1.1700 C.ar    1  UNL1       -0.0506
     27 C          -6.3228   -0.3698    2.3422 C.ar    1  UNL1       -0.0430
     28 C          -7.3436    0.5508    2.3793 C.ar    1  UNL1        0.0283
     29 N          -7.6107    1.2371    1.2638 N.ar    1  UNL1       -0.2550
     30 C          -6.9372    1.0724    0.1216 C.ar    1  UNL1        0.0715
     31 C          -7.2501    1.8058   -1.0065 C.ar    1  UNL1       -0.0357
     32 H          -6.8657    2.2550   -3.0303 H       1  UNL1        0.0618
     33 H          -4.9954    0.5904   -3.1539 H       1  UNL1        0.0624
     34 H          -5.1280   -2.8064   -1.8389 H       1  UNL1        0.0855
     35 H          -0.2730   -2.7784   -1.1275 H       1  UNL1        0.0838
     36 H           1.6963   -2.7602   -0.8372 H       1  UNL1        0.0640
     37 H           4.1512   -2.6379   -0.4490 H       1  UNL1        0.0655
     38 H           5.6505    1.4848    0.8530 H       1  UNL1        0.0746
     39 H           6.9838    1.3647   -1.1905 H       1  UNL1        0.0314
     40 H           7.9322   -0.0526   -0.4695 H       1  UNL1        0.0314
     41 H           7.6524    2.8195    0.4979 H       1  UNL1        0.0425
     42 H           9.2194    1.8703    0.2916 H       1  UNL1        0.0425
     43 H           8.8939    1.1536    2.3950 H       1  UNL1        0.1221
     44 H           7.6627   -0.6402    1.7074 H       1  UNL1        0.0460
     45 H           6.4416    0.1773    2.8324 H       1  UNL1        0.0460
     46 H           3.7169    1.4483    0.5629 H       1  UNL1        0.0867
     47 H          -0.2714    1.3115   -0.0514 H       1  UNL1        0.0837
     48 H          -4.7857   -1.2958    1.1243 H       1  UNL1        0.0625
     49 H          -6.0411   -0.9697    3.2055 H       1  UNL1        0.0633
     50 H          -7.9032    0.7018    3.2925 H       1  UNL1        0.0830
     51 H          -8.0678    2.5178   -0.9128 H       1  UNL1        0.0639
@<TRIPOS>BOND
     1     1     2   ar
     2     2     3   ar
     3     3     4    1
     4     4     5   ar
     5     5     6   ar
     6     6     7   ar
     7     7     8   ar
     8     8     9   ar
     9     9    10    1
    10    10    11   ar
    11    11    12   ar
    12    12    13   ar
    13    13    14    1
    14    14    15    1
    15    15    16    1
    16    16    17    1
    17    17    18    1
    18    18    19    1
    19    13    20   ar
    20    20    21   ar
    21     9    22   ar
    22    22    23   ar
    23    23    24   ar
    24     3    25   ar
    25    25    26   ar
    26    26    27   ar
    27    27    28   ar
    28    28    29   ar
    29    29    30   ar
    30    30    31   ar
    31    31     1   ar
    32    24     4   ar
    33    30    25   ar
    34    24     7   ar
    35    21    10   ar
    36    19    15    1
    37     1    32    1
    38     2    33    1
    39     5    34    1
    40     8    35    1
    41    11    36    1
    42    12    37    1
    43    15    38    1
    44    16    39    1
    45    16    40    1
    46    17    41    1
    47    17    42    1
    48    18    43    1
    49    19    44    1
    50    19    45    1
    51    20    46    1
    52    22    47    1
    53    26    48    1
    54    27    49    1
    55    28    50    1
    56    31    51    1
