
     RDKit          3D

 51 56  0  0  0  0  0  0  0  0999 V2000
   -6.5657    1.6486   -2.1931 C   0  0  0  0  0  0  0  0  0  0  0  0
   -5.5361    0.7248   -2.2422 C   0  0  0  0  0  0  0  0  0  0  0  0
   -5.2230   -0.0078   -1.1165 C   0  0  0  0  0  0  0  0  0  0  0  0
   -4.1250   -0.9759   -1.2120 C   0  0  0  0  0  0  0  0  0  0  0  0
   -4.2142   -2.2947   -1.5718 C   0  0  0  0  0  0  0  0  0  0  0  0
   -2.9566   -2.7845   -1.5182 N   0  0  0  0  0  0  0  0  0  0  0  0
   -2.1333   -1.8237   -1.1461 N   0  0  0  0  0  0  0  0  0  0  0  0
   -0.7898   -1.8480   -0.9577 C   0  0  0  0  0  0  0  0  0  0  0  0
   -0.0864   -0.7462   -0.5658 C   0  0  0  0  0  0  0  0  0  0  0  0
    1.3536   -0.7249   -0.3514 C   0  0  0  0  0  0  0  0  0  0  0  0
    2.1431   -1.8314   -0.5280 C   0  0  0  0  0  0  0  0  0  0  0  0
    3.5022   -1.7772   -0.3167 C   0  0  0  0  0  0  0  0  0  0  0  0
    4.1446   -0.5944    0.0876 C   0  0  0  0  0  0  0  0  0  0  0  0
    5.4894   -0.5581    0.2922 O   0  0  0  0  0  0  0  0  0  0  0  0
    6.1988    0.5486    0.6862 C   0  0  2  0  0  0  0  0  0  0  0  0
    7.3513    0.8765   -0.2857 C   0  0  0  0  0  0  0  0  0  0  0  0
    8.1692    1.8205    0.5993 C   0  0  0  0  0  0  0  0  0  0  0  0
    7.9573    1.3874    1.9485 N   0  0  0  0  0  0  0  0  0  0  0  0
    7.0596    0.2744    1.9365 C   0  0  0  0  0  0  0  0  0  0  0  0
    3.3174    0.4809    0.2505 C   0  0  0  0  0  0  0  0  0  0  0  0
    1.9820    0.4100    0.0382 N   0  0  0  0  0  0  0  0  0  0  0  0
   -0.8124    0.4255   -0.3629 C   0  0  0  0  0  0  0  0  0  0  0  0
   -2.1385    0.4288   -0.5544 N   0  0  0  0  0  0  0  0  0  0  0  0
   -2.7962   -0.6870   -0.9433 C   0  0  0  0  0  0  0  0  0  0  0  0
   -5.9025    0.1508    0.0549 C   0  0  0  0  0  0  0  0  0  0  0  0
   -5.5943   -0.5731    1.1700 C   0  0  0  0  0  0  0  0  0  0  0  0
   -6.3228   -0.3698    2.3422 C   0  0  0  0  0  0  0  0  0  0  0  0
   -7.3436    0.5508    2.3793 C   0  0  0  0  0  0  0  0  0  0  0  0
   -7.6107    1.2371    1.2638 N   0  0  0  0  0  0  0  0  0  0  0  0
   -6.9372    1.0724    0.1216 C   0  0  0  0  0  0  0  0  0  0  0  0
   -7.2501    1.8058   -1.0065 C   0  0  0  0  0  0  0  0  0  0  0  0
   -6.8657    2.2550   -3.0303 H   0  0  0  0  0  0  0  0  0  0  0  0
   -4.9954    0.5904   -3.1539 H   0  0  0  0  0  0  0  0  0  0  0  0
   -5.1280   -2.8064   -1.8389 H   0  0  0  0  0  0  0  0  0  0  0  0
   -0.2730   -2.7784   -1.1275 H   0  0  0  0  0  0  0  0  0  0  0  0
    1.6963   -2.7602   -0.8372 H   0  0  0  0  0  0  0  0  0  0  0  0
    4.1512   -2.6379   -0.4490 H   0  0  0  0  0  0  0  0  0  0  0  0
    5.6505    1.4848    0.8530 H   0  0  0  0  0  0  0  0  0  0  0  0
    6.9838    1.3647   -1.1905 H   0  0  0  0  0  0  0  0  0  0  0  0
    7.9322   -0.0526   -0.4695 H   0  0  0  0  0  0  0  0  0  0  0  0
    7.6524    2.8195    0.4979 H   0  0  0  0  0  0  0  0  0  0  0  0
    9.2194    1.8703    0.2916 H   0  0  0  0  0  0  0  0  0  0  0  0
    8.8939    1.1536    2.3950 H   0  0  0  0  0  0  0  0  0  0  0  0
    7.6627   -0.6402    1.7074 H   0  0  0  0  0  0  0  0  0  0  0  0
    6.4416    0.1773    2.8324 H   0  0  0  0  0  0  0  0  0  0  0  0
    3.7169    1.4483    0.5629 H   0  0  0  0  0  0  0  0  0  0  0  0
   -0.2714    1.3115   -0.0514 H   0  0  0  0  0  0  0  0  0  0  0  0
   -4.7857   -1.2958    1.1243 H   0  0  0  0  0  0  0  0  0  0  0  0
   -6.0411   -0.9697    3.2055 H   0  0  0  0  0  0  0  0  0  0  0  0
   -7.9032    0.7018    3.2925 H   0  0  0  0  0  0  0  0  0  0  0  0
   -8.0678    2.5178   -0.9128 H   0  0  0  0  0  0  0  0  0  0  0  0
  1  2  2  0
  2  3  1  0
  3  4  1  0
  4  5  1  0
  5  6  2  0
  6  7  1  0
  7  8  1  0
  8  9  2  0
  9 10  1  0
 10 11  2  0
 11 12  1  0
 12 13  2  0
 13 14  1  0
 14 15  1  0
 15 16  1  0
 16 17  1  0
 17 18  1  0
 18 19  1  0
 13 20  1  0
 20 21  2  0
  9 22  1  0
 22 23  2  0
 23 24  1  0
  3 25  2  0
 25 26  1  0
 26 27  2  0
 27 28  1  0
 28 29  2  0
 29 30  1  0
 30 31  2  0
 31  1  1  0
 24  4  2  0
 30 25  1  0
 24  7  1  0
 21 10  1  0
 19 15  1  0
  1 32  1  0
  2 33  1  0
  5 34  1  0
  8 35  1  0
 11 36  1  0
 12 37  1  0
 15 38  1  1
 16 39  1  0
 16 40  1  0
 17 41  1  0
 17 42  1  0
 18 43  1  0
 19 44  1  0
 19 45  1  0
 20 46  1  0
 22 47  1  0
 26 48  1  0
 27 49  1  0
 28 50  1  0
 31 51  1  0
M  END
$$$$
