
     RDKit          3D

 17 17  0  0  0  0  0  0  0  0999 V2000
   -2.2934   -1.3885   -0.4840 N   0  0  0  0  0  0  0  0  0  0  0  0
   -1.3150   -0.3852   -0.1717 C   0  0  0  0  0  0  0  0  0  0  0  0
   -1.7373    0.8941    0.1211 C   0  0  0  0  0  0  0  0  0  0  0  0
   -0.7447    1.8098    0.4124 C   0  0  0  0  0  0  0  0  0  0  0  0
    0.6031    1.4616    0.4104 C   0  0  0  0  0  0  0  0  0  0  0  0
    0.9982    0.1772    0.1146 C   0  0  0  0  0  0  0  0  0  0  0  0
    0.0186   -0.7480   -0.1782 C   0  0  0  0  0  0  0  0  0  0  0  0
    2.4112   -0.1847    0.1134 C   0  0  0  0  0  0  0  0  0  0  0  0
    2.7613   -1.5037   -0.1939 O   0  0  0  0  0  0  0  0  0  0  0  0
    3.2573    0.7063    0.3892 O   0  0  0  0  0  0  0  0  0  0  0  0
   -2.9954   -1.6267    0.2535 H   0  0  0  0  0  0  0  0  0  0  0  0
   -2.5687   -2.0197   -1.2683 H   0  0  0  0  0  0  0  0  0  0  0  0
   -2.7822    1.1573    0.1209 H   0  0  0  0  0  0  0  0  0  0  0  0
   -0.9975    2.8498    0.6561 H   0  0  0  0  0  0  0  0  0  0  0  0
    1.3405    2.2012    0.6416 H   0  0  0  0  0  0  0  0  0  0  0  0
    0.3145   -1.7653   -0.4136 H   0  0  0  0  0  0  0  0  0  0  0  0
    3.7294   -1.6354   -0.5233 H   0  0  0  0  0  0  0  0  0  0  0  0
  1  2  1  0
  2  3  2  0
  3  4  1  0
  4  5  2  0
  5  6  1  0
  6  7  2  0
  6  8  1  0
  8  9  1  0
  8 10  2  0
  7  2  1  0
  1 11  1  0
  1 12  1  0
  3 13  1  0
  4 14  1  0
  5 15  1  0
  7 16  1  0
  9 17  1  0
M  END
$$$$
