@<TRIPOS>MOLECULE
*****
 17 17 0 0 0
SMALL
GASTEIGER

@<TRIPOS>ATOM
      1 N          -2.2934   -1.3885   -0.4840 N.pl3   1  UNL1       -0.3579
      2 C          -1.3150   -0.3852   -0.1717 C.ar    1  UNL1        0.0253
      3 C          -1.7373    0.8941    0.1211 C.ar    1  UNL1       -0.0410
      4 C          -0.7447    1.8098    0.4124 C.ar    1  UNL1       -0.0592
      5 C           0.6031    1.4616    0.4104 C.ar    1  UNL1       -0.0477
      6 C           0.9982    0.1772    0.1146 C.ar    1  UNL1        0.0606
      7 C           0.0186   -0.7480   -0.1782 C.ar    1  UNL1       -0.0271
      8 C           2.4112   -0.1847    0.1134 C.2     1  UNL1        0.3369
      9 O           2.7613   -1.5037   -0.1939 O.3     1  UNL1       -0.4771
     10 O           3.2573    0.7063    0.3892 O.2     1  UNL1       -0.2451
     11 H          -2.9954   -1.6267    0.2535 H       1  UNL1        0.1423
     12 H          -2.5687   -2.0197   -1.2683 H       1  UNL1        0.1423
     13 H          -2.7822    1.1573    0.1209 H       1  UNL1        0.0636
     14 H          -0.9975    2.8498    0.6561 H       1  UNL1        0.0618
     15 H           1.3405    2.2012    0.6416 H       1  UNL1        0.0626
     16 H           0.3145   -1.7653   -0.4136 H       1  UNL1        0.0644
     17 H           3.7294   -1.6354   -0.5233 H       1  UNL1        0.2954
@<TRIPOS>BOND
     1     1     2    1
     2     2     3   ar
     3     3     4   ar
     4     4     5   ar
     5     5     6   ar
     6     6     7   ar
     7     6     8    1
     8     8     9    1
     9     8    10    2
    10     7     2   ar
    11     1    11    1
    12     1    12    1
    13     3    13    1
    14     4    14    1
    15     5    15    1
    16     7    16    1
    17     9    17    1
