@<TRIPOS>MOLECULE
*****
 39 41 0 0 0
SMALL
GASTEIGER

@<TRIPOS>ATOM
      1 O          -2.1728   -0.2050   -2.6588 O.2     1  UNL1       -0.2258
      2 C          -1.9326   -0.9266   -1.6378 C.2     1  UNL1        0.4085
      3 O          -2.9923   -1.4115   -0.9077 O.3     1  UNL1       -0.4114
      4 C          -4.3240   -1.1684   -1.1822 C.ar    1  UNL1        0.1332
      5 C          -5.0866   -1.8201   -2.1063 C.ar    1  UNL1       -0.0192
      6 C          -6.4288   -1.5313   -2.3395 C.ar    1  UNL1       -0.0583
      7 C          -6.9950   -0.5256   -1.5818 C.ar    1  UNL1       -0.0615
      8 C          -6.2825    0.1639   -0.6397 C.ar    1  UNL1       -0.0583
      9 C          -4.9628   -0.1612   -0.4496 C.ar    1  UNL1       -0.0192
     10 N          -0.5840   -1.1854   -1.3108 N.am    1  UNL1       -0.2630
     11 C           0.4694   -0.6562   -2.1412 C.3     1  UNL1        0.0371
     12 C           1.5213   -0.0478   -1.2673 C.2     1  UNL1       -0.0553
     13 C           1.6347   -0.3913    0.0112 C.2     1  UNL1        0.0020
     14 C           2.6706    0.2514    0.7555 C.1     1  UNL1       -0.0641
     15 C           3.5440    0.8075    1.3691 C.1     1  UNL1       -0.0415
     16 C           4.6198    1.4989    2.0983 C.ar    1  UNL1        0.1137
     17 C           4.9092    2.8153    1.8005 C.ar    1  UNL1       -0.0278
     18 C           5.9207    3.4259    2.5159 C.ar    1  UNL1       -0.0577
     19 C           6.6044    2.7224    3.4895 C.ar    1  UNL1       -0.0435
     20 C           6.2612    1.3944    3.7399 C.ar    1  UNL1        0.0290
     21 N           5.2719    0.8063    3.0370 N.ar    1  UNL1       -0.2467
     22 C           0.7992   -1.3701    0.7078 C.3     1  UNL1       -0.0041
     23 C          -0.3114   -1.9625   -0.1175 C.3     1  UNL1        0.0227
     24 H          -4.6277   -2.6123   -2.7030 H       1  UNL1        0.0654
     25 H          -7.0077   -2.0838   -3.0946 H       1  UNL1        0.0619
     26 H          -8.0377   -0.2825   -1.7472 H       1  UNL1        0.0618
     27 H          -6.7391    0.9344   -0.0711 H       1  UNL1        0.0619
     28 H          -4.3656    0.3614    0.2877 H       1  UNL1        0.0654
     29 H           0.9681   -1.5212   -2.6320 H       1  UNL1        0.0509
     30 H           0.1381    0.0949   -2.8522 H       1  UNL1        0.0509
     31 H           2.1676    0.6757   -1.7475 H       1  UNL1        0.0597
     32 H           4.3978    3.3830    1.0489 H       1  UNL1        0.0645
     33 H           6.1693    4.4655    2.3009 H       1  UNL1        0.0619
     34 H           7.3899    3.2265    4.0316 H       1  UNL1        0.0633
     35 H           6.8363    0.9092    4.5083 H       1  UNL1        0.0830
     36 H           1.4646   -2.1558    1.1410 H       1  UNL1        0.0335
     37 H           0.3101   -0.8418    1.5749 H       1  UNL1        0.0335
     38 H           0.0199   -2.9643   -0.4535 H       1  UNL1        0.0469
     39 H          -1.2376   -2.1121    0.4758 H       1  UNL1        0.0469
@<TRIPOS>BOND
     1     1     2    2
     2     2     3    1
     3     3     4    1
     4     4     5   ar
     5     5     6   ar
     6     6     7   ar
     7     7     8   ar
     8     8     9   ar
     9     2    10   am
    10    10    11    1
    11    11    12    1
    12    12    13    2
    13    13    14    1
    14    14    15    3
    15    15    16    1
    16    16    17   ar
    17    17    18   ar
    18    18    19   ar
    19    19    20   ar
    20    20    21   ar
    21    13    22    1
    22    22    23    1
    23     9     4   ar
    24    23    10    1
    25    21    16   ar
    26     5    24    1
    27     6    25    1
    28     7    26    1
    29     8    27    1
    30     9    28    1
    31    11    29    1
    32    11    30    1
    33    12    31    1
    34    17    32    1
    35    18    33    1
    36    19    34    1
    37    20    35    1
    38    22    36    1
    39    22    37    1
    40    23    38    1
    41    23    39    1
