@<TRIPOS>MOLECULE
*****
 79 83 0 0 0
SMALL
GASTEIGER

@<TRIPOS>ATOM
      1 C           5.5245   -5.4470    0.2698 C.3     1  UNL1        0.0124
      2 C           6.2184   -4.3630   -0.4777 C.2     1  UNL1        0.2125
      3 O           7.1395   -4.7072   -1.2657 O.2     1  UNL1       -0.2759
      4 N           5.8732   -2.9981   -0.3243 N.am    1  UNL1       -0.3017
      5 C           4.8090   -2.6530    0.5942 C.3     1  UNL1        0.0153
      6 C           3.7154   -2.0435   -0.2516 C.3     1  UNL1       -0.0260
      7 C           4.2243   -0.8477   -0.9553 C.3     1  UNL1        0.0386
      8 C           4.0263    0.3520   -0.0820 C.2     1  UNL1        0.2188
      9 O           5.0719    0.9464    0.2798 O.2     1  UNL1       -0.2753
     10 N           2.7796    0.8378    0.3416 N.am    1  UNL1       -0.2999
     11 C           1.4868    0.2513    0.0049 C.3     1  UNL1        0.0266
     12 C           0.6103    1.5081   -0.1428 C.3     1  UNL1        0.0620
     13 C          -0.8162    1.1199    0.0796 C.ar    1  UNL1        0.2326
     14 N          -1.7539    1.1493   -0.8551 N.ar    1  UNL1       -0.1949
     15 C          -2.9087    0.7328   -0.2832 C.ar    1  UNL1        0.1816
     16 C          -4.2109    0.6075   -0.9928 C.3     1  UNL1        0.0530
     17 C          -3.9897    0.6754   -2.4706 C.3     1  UNL1       -0.0487
     18 C          -5.1454    1.7144   -0.5439 C.3     1  UNL1       -0.0487
     19 C          -4.7563   -0.7257   -0.6048 C.ar    1  UNL1       -0.0332
     20 C          -5.4058   -0.9196    0.5960 C.ar    1  UNL1       -0.0460
     21 C          -5.8696   -2.1702    0.8829 C.ar    1  UNL1        0.0556
     22 C          -6.5689   -2.3485    2.1940 C.3     1  UNL1        0.4174
     23 F          -7.4209   -3.4332    2.1756 F       1  UNL1       -0.1659
     24 F          -7.3128   -1.2003    2.4237 F       1  UNL1       -0.1659
     25 F          -5.6239   -2.4645    3.2009 F       1  UNL1       -0.1659
     26 C          -5.7042   -3.2220    0.0126 C.ar    1  UNL1       -0.0385
     27 C          -5.0526   -3.0356   -1.1955 C.ar    1  UNL1        0.0556
     28 C          -4.8563   -4.1497   -2.1509 C.3     1  UNL1        0.4174
     29 F          -5.4697   -3.9426   -3.3619 F       1  UNL1       -0.1659
     30 F          -3.5142   -4.3815   -2.4010 F       1  UNL1       -0.1659
     31 F          -5.3728   -5.3023   -1.5646 F       1  UNL1       -0.1659
     32 C          -4.5833   -1.7704   -1.4854 C.ar    1  UNL1       -0.0460
     33 N          -2.6145    0.4658    0.9917 N.ar    1  UNL1       -0.0604
     34 O          -1.3391    0.7083    1.1862 O.2     1  UNL1       -0.3377
     35 C           1.1486    2.4023    0.9313 C.3     1  UNL1        0.0129
     36 C           1.0019    3.8409    0.5937 C.ar    1  UNL1       -0.0389
     37 C           1.8587    4.4418   -0.2892 C.ar    1  UNL1       -0.0553
     38 C           1.7181    5.7929   -0.6231 C.ar    1  UNL1       -0.0262
     39 C           0.7191    6.5515   -0.0756 C.ar    1  UNL1        0.1237
     40 F           0.5538    7.8791   -0.3820 F       1  UNL1       -0.2055
     41 C          -0.1364    5.9595    0.8035 C.ar    1  UNL1       -0.0233
     42 C           0.0064    4.6037    1.1373 C.ar    1  UNL1       -0.0442
     43 C          -0.9609    4.0527    2.1030 C.3     1  UNL1       -0.0394
     44 C           2.5539    1.9989    1.1644 C.3     1  UNL1        0.0223
     45 C           5.5721   -0.8882   -1.5451 C.3     1  UNL1       -0.0260
     46 C           6.5194   -1.9210   -1.0347 C.3     1  UNL1        0.0153
     47 H           5.8564   -6.4493   -0.0648 H       1  UNL1        0.0323
     48 H           5.7037   -5.2633    1.3484 H       1  UNL1        0.0323
     49 H           4.4293   -5.4212    0.1075 H       1  UNL1        0.0323
     50 H           5.2440   -1.8962    1.3049 H       1  UNL1        0.0465
     51 H           4.4729   -3.5143    1.1967 H       1  UNL1        0.0465
     52 H           2.8764   -1.7552    0.4128 H       1  UNL1        0.0288
     53 H           3.4110   -2.7984   -1.0054 H       1  UNL1        0.0288
     54 H           3.4950   -0.6743   -1.8169 H       1  UNL1        0.0395
     55 H           1.4890   -0.3389   -0.9086 H       1  UNL1        0.0472
     56 H           1.0764   -0.2695    0.8993 H       1  UNL1        0.0472
     57 H           0.7383    1.9096   -1.1733 H       1  UNL1        0.0418
     58 H          -2.9829    0.3040   -2.7417 H       1  UNL1        0.0242
     59 H          -4.0376    1.7246   -2.8376 H       1  UNL1        0.0242
     60 H          -4.7833    0.1425   -3.0489 H       1  UNL1        0.0242
     61 H          -6.1963    1.3903   -0.7651 H       1  UNL1        0.0242
     62 H          -4.9437    2.6525   -1.0787 H       1  UNL1        0.0242
     63 H          -5.0907    1.9019    0.5464 H       1  UNL1        0.0242
     64 H          -5.5173   -0.0541    1.2590 H       1  UNL1        0.0626
     65 H          -6.0721   -4.2136    0.2408 H       1  UNL1        0.0629
     66 H          -4.0784   -1.6537   -2.4307 H       1  UNL1        0.0626
     67 H           0.5703    2.1757    1.8632 H       1  UNL1        0.0372
     68 H           2.6705    3.9098   -0.7695 H       1  UNL1        0.0621
     69 H           2.3951    6.2726   -1.3218 H       1  UNL1        0.0646
     70 H          -0.9283    6.5644    1.2372 H       1  UNL1        0.0649
     71 H          -0.3628    3.5840    2.9383 H       1  UNL1        0.0278
     72 H          -1.6911    3.3693    1.6615 H       1  UNL1        0.0278
     73 H          -1.5349    4.8873    2.5849 H       1  UNL1        0.0278
     74 H           2.7860    1.7973    2.2397 H       1  UNL1        0.0471
     75 H           3.2760    2.7825    0.7844 H       1  UNL1        0.0471
     76 H           5.5472   -0.9710   -2.6639 H       1  UNL1        0.0288
     77 H           6.0597    0.1102   -1.3673 H       1  UNL1        0.0288
     78 H           7.2686   -1.4881   -0.3240 H       1  UNL1        0.0465
     79 H           7.1096   -2.3753   -1.8533 H       1  UNL1        0.0465
@<TRIPOS>BOND
     1     1     2    1
     2     2     3    2
     3     2     4   am
     4     4     5    1
     5     5     6    1
     6     6     7    1
     7     7     8    1
     8     8     9    2
     9     8    10   am
    10    10    11    1
    11    11    12    1
    12    12    13    1
    13    13    14   ar
    14    14    15   ar
    15    15    16    1
    16    16    17    1
    17    16    18    1
    18    16    19    1
    19    19    20   ar
    20    20    21   ar
    21    21    22    1
    22    22    23    1
    23    22    24    1
    24    22    25    1
    25    21    26   ar
    26    26    27   ar
    27    27    28    1
    28    28    29    1
    29    28    30    1
    30    28    31    1
    31    27    32   ar
    32    15    33   ar
    33    33    34   ar
    34    12    35    1
    35    35    36    1
    36    36    37   ar
    37    37    38   ar
    38    38    39   ar
    39    39    40    1
    40    39    41   ar
    41    41    42   ar
    42    42    43    1
    43    35    44    1
    44     7    45    1
    45    45    46    1
    46    46     4    1
    47    44    10    1
    48    34    13   ar
    49    42    36   ar
    50    32    19   ar
    51     1    47    1
    52     1    48    1
    53     1    49    1
    54     5    50    1
    55     5    51    1
    56     6    52    1
    57     6    53    1
    58     7    54    1
    59    11    55    1
    60    11    56    1
    61    12    57    1
    62    17    58    1
    63    17    59    1
    64    17    60    1
    65    18    61    1
    66    18    62    1
    67    18    63    1
    68    20    64    1
    69    26    65    1
    70    32    66    1
    71    35    67    1
    72    37    68    1
    73    38    69    1
    74    41    70    1
    75    43    71    1
    76    43    72    1
    77    43    73    1
    78    44    74    1
    79    44    75    1
    80    45    76    1
    81    45    77    1
    82    46    78    1
    83    46    79    1
