
     RDKit          3D

 79 83  0  0  0  0  0  0  0  0999 V2000
    5.5245   -5.4470    0.2698 C   0  0  0  0  0  0  0  0  0  0  0  0
    6.2184   -4.3630   -0.4777 C   0  0  0  0  0  0  0  0  0  0  0  0
    7.1395   -4.7072   -1.2657 O   0  0  0  0  0  0  0  0  0  0  0  0
    5.8732   -2.9981   -0.3243 N   0  0  0  0  0  0  0  0  0  0  0  0
    4.8090   -2.6530    0.5942 C   0  0  0  0  0  0  0  0  0  0  0  0
    3.7154   -2.0435   -0.2516 C   0  0  0  0  0  0  0  0  0  0  0  0
    4.2243   -0.8477   -0.9553 C   0  0  0  0  0  0  0  0  0  0  0  0
    4.0263    0.3520   -0.0820 C   0  0  0  0  0  0  0  0  0  0  0  0
    5.0719    0.9464    0.2798 O   0  0  0  0  0  0  0  0  0  0  0  0
    2.7796    0.8378    0.3416 N   0  0  0  0  0  0  0  0  0  0  0  0
    1.4868    0.2513    0.0049 C   0  0  0  0  0  0  0  0  0  0  0  0
    0.6103    1.5081   -0.1428 C   0  0  1  0  0  0  0  0  0  0  0  0
   -0.8162    1.1199    0.0796 C   0  0  0  0  0  0  0  0  0  0  0  0
   -1.7539    1.1493   -0.8551 N   0  0  0  0  0  0  0  0  0  0  0  0
   -2.9087    0.7328   -0.2832 C   0  0  0  0  0  0  0  0  0  0  0  0
   -4.2109    0.6075   -0.9928 C   0  0  0  0  0  0  0  0  0  0  0  0
   -3.9897    0.6754   -2.4706 C   0  0  0  0  0  0  0  0  0  0  0  0
   -5.1454    1.7144   -0.5439 C   0  0  0  0  0  0  0  0  0  0  0  0
   -4.7563   -0.7257   -0.6048 C   0  0  0  0  0  0  0  0  0  0  0  0
   -5.4058   -0.9196    0.5960 C   0  0  0  0  0  0  0  0  0  0  0  0
   -5.8696   -2.1702    0.8829 C   0  0  0  0  0  0  0  0  0  0  0  0
   -6.5689   -2.3485    2.1940 C   0  0  0  0  0  0  0  0  0  0  0  0
   -7.4209   -3.4332    2.1756 F   0  0  0  0  0  0  0  0  0  0  0  0
   -7.3128   -1.2003    2.4237 F   0  0  0  0  0  0  0  0  0  0  0  0
   -5.6239   -2.4645    3.2009 F   0  0  0  0  0  0  0  0  0  0  0  0
   -5.7042   -3.2220    0.0126 C   0  0  0  0  0  0  0  0  0  0  0  0
   -5.0526   -3.0356   -1.1955 C   0  0  0  0  0  0  0  0  0  0  0  0
   -4.8563   -4.1497   -2.1509 C   0  0  0  0  0  0  0  0  0  0  0  0
   -5.4697   -3.9426   -3.3619 F   0  0  0  0  0  0  0  0  0  0  0  0
   -3.5142   -4.3815   -2.4010 F   0  0  0  0  0  0  0  0  0  0  0  0
   -5.3728   -5.3023   -1.5646 F   0  0  0  0  0  0  0  0  0  0  0  0
   -4.5833   -1.7704   -1.4854 C   0  0  0  0  0  0  0  0  0  0  0  0
   -2.6145    0.4658    0.9917 N   0  0  0  0  0  0  0  0  0  0  0  0
   -1.3391    0.7083    1.1862 O   0  0  0  0  0  0  0  0  0  0  0  0
    1.1486    2.4023    0.9313 C   0  0  2  0  0  0  0  0  0  0  0  0
    1.0019    3.8409    0.5937 C   0  0  0  0  0  0  0  0  0  0  0  0
    1.8587    4.4418   -0.2892 C   0  0  0  0  0  0  0  0  0  0  0  0
    1.7181    5.7929   -0.6231 C   0  0  0  0  0  0  0  0  0  0  0  0
    0.7191    6.5515   -0.0756 C   0  0  0  0  0  0  0  0  0  0  0  0
    0.5538    7.8791   -0.3820 F   0  0  0  0  0  0  0  0  0  0  0  0
   -0.1364    5.9595    0.8035 C   0  0  0  0  0  0  0  0  0  0  0  0
    0.0064    4.6037    1.1373 C   0  0  0  0  0  0  0  0  0  0  0  0
   -0.9609    4.0527    2.1030 C   0  0  0  0  0  0  0  0  0  0  0  0
    2.5539    1.9989    1.1644 C   0  0  0  0  0  0  0  0  0  0  0  0
    5.5721   -0.8882   -1.5451 C   0  0  0  0  0  0  0  0  0  0  0  0
    6.5194   -1.9210   -1.0347 C   0  0  0  0  0  0  0  0  0  0  0  0
    5.8564   -6.4493   -0.0648 H   0  0  0  0  0  0  0  0  0  0  0  0
    5.7037   -5.2633    1.3484 H   0  0  0  0  0  0  0  0  0  0  0  0
    4.4293   -5.4212    0.1075 H   0  0  0  0  0  0  0  0  0  0  0  0
    5.2440   -1.8962    1.3049 H   0  0  0  0  0  0  0  0  0  0  0  0
    4.4729   -3.5143    1.1967 H   0  0  0  0  0  0  0  0  0  0  0  0
    2.8764   -1.7552    0.4128 H   0  0  0  0  0  0  0  0  0  0  0  0
    3.4110   -2.7984   -1.0054 H   0  0  0  0  0  0  0  0  0  0  0  0
    3.4950   -0.6743   -1.8169 H   0  0  0  0  0  0  0  0  0  0  0  0
    1.4890   -0.3389   -0.9086 H   0  0  0  0  0  0  0  0  0  0  0  0
    1.0764   -0.2695    0.8993 H   0  0  0  0  0  0  0  0  0  0  0  0
    0.7383    1.9096   -1.1733 H   0  0  0  0  0  0  0  0  0  0  0  0
   -2.9829    0.3040   -2.7417 H   0  0  0  0  0  0  0  0  0  0  0  0
   -4.0376    1.7246   -2.8376 H   0  0  0  0  0  0  0  0  0  0  0  0
   -4.7833    0.1425   -3.0489 H   0  0  0  0  0  0  0  0  0  0  0  0
   -6.1963    1.3903   -0.7651 H   0  0  0  0  0  0  0  0  0  0  0  0
   -4.9437    2.6525   -1.0787 H   0  0  0  0  0  0  0  0  0  0  0  0
   -5.0907    1.9019    0.5464 H   0  0  0  0  0  0  0  0  0  0  0  0
   -5.5173   -0.0541    1.2590 H   0  0  0  0  0  0  0  0  0  0  0  0
   -6.0721   -4.2136    0.2408 H   0  0  0  0  0  0  0  0  0  0  0  0
   -4.0784   -1.6537   -2.4307 H   0  0  0  0  0  0  0  0  0  0  0  0
    0.5703    2.1757    1.8632 H   0  0  0  0  0  0  0  0  0  0  0  0
    2.6705    3.9098   -0.7695 H   0  0  0  0  0  0  0  0  0  0  0  0
    2.3951    6.2726   -1.3218 H   0  0  0  0  0  0  0  0  0  0  0  0
   -0.9283    6.5644    1.2372 H   0  0  0  0  0  0  0  0  0  0  0  0
   -0.3628    3.5840    2.9383 H   0  0  0  0  0  0  0  0  0  0  0  0
   -1.6911    3.3693    1.6615 H   0  0  0  0  0  0  0  0  0  0  0  0
   -1.5349    4.8873    2.5849 H   0  0  0  0  0  0  0  0  0  0  0  0
    2.7860    1.7973    2.2397 H   0  0  0  0  0  0  0  0  0  0  0  0
    3.2760    2.7825    0.7844 H   0  0  0  0  0  0  0  0  0  0  0  0
    5.5472   -0.9710   -2.6639 H   0  0  0  0  0  0  0  0  0  0  0  0
    6.0597    0.1102   -1.3673 H   0  0  0  0  0  0  0  0  0  0  0  0
    7.2686   -1.4881   -0.3240 H   0  0  0  0  0  0  0  0  0  0  0  0
    7.1096   -2.3753   -1.8533 H   0  0  0  0  0  0  0  0  0  0  0  0
  1  2  1  0
  2  3  2  0
  2  4  1  0
  4  5  1  0
  5  6  1  0
  6  7  1  0
  7  8  1  0
  8  9  2  0
  8 10  1  0
 10 11  1  0
 11 12  1  0
 12 13  1  0
 13 14  2  0
 14 15  1  0
 15 16  1  0
 16 17  1  0
 16 18  1  0
 16 19  1  0
 19 20  2  0
 20 21  1  0
 21 22  1  0
 22 23  1  0
 22 24  1  0
 22 25  1  0
 21 26  2  0
 26 27  1  0
 27 28  1  0
 28 29  1  0
 28 30  1  0
 28 31  1  0
 27 32  2  0
 15 33  2  0
 33 34  1  0
 12 35  1  0
 35 36  1  0
 36 37  2  0
 37 38  1  0
 38 39  2  0
 39 40  1  0
 39 41  1  0
 41 42  2  0
 42 43  1  0
 35 44  1  0
  7 45  1  0
 45 46  1  0
 46  4  1  0
 44 10  1  0
 34 13  1  0
 42 36  1  0
 32 19  1  0
  1 47  1  0
  1 48  1  0
  1 49  1  0
  5 50  1  0
  5 51  1  0
  6 52  1  0
  6 53  1  0
  7 54  1  0
 11 55  1  0
 11 56  1  0
 12 57  1  6
 17 58  1  0
 17 59  1  0
 17 60  1  0
 18 61  1  0
 18 62  1  0
 18 63  1  0
 20 64  1  0
 26 65  1  0
 32 66  1  0
 35 67  1  1
 37 68  1  0
 38 69  1  0
 41 70  1  0
 43 71  1  0
 43 72  1  0
 43 73  1  0
 44 74  1  0
 44 75  1  0
 45 76  1  0
 45 77  1  0
 46 78  1  0
 46 79  1  0
M  END
$$$$
