@<TRIPOS>MOLECULE
*****
 41 43 0 0 0
SMALL
GASTEIGER

@<TRIPOS>ATOM
      1 O           4.0723   -0.9693   -2.8437 O.2     1  UNL1       -0.1498
      2 S           3.3004   -1.6829   -1.7750 S.O2    1  UNL1        0.0766
      3 O           2.7415   -2.9334   -2.3986 O.2     1  UNL1       -0.1498
      4 N           4.3601   -2.0444   -0.4916 N.pl3   1  UNL1       -0.1937
      5 C           5.0098   -0.9285    0.1444 C.ar    1  UNL1        0.1774
      6 N           5.1190    0.2369    0.1411 N.ar    1  UNL1       -0.2321
      7 C           5.8401    1.0185    0.8984 C.ar    1  UNL1        0.0369
      8 C           6.5993    0.3947    1.8587 C.ar    1  UNL1       -0.0030
      9 S           6.1785   -1.3802    1.5653 S.2     1  UNL1       -0.0594
     10 C           1.9973   -0.6882   -1.1658 C.ar    1  UNL1        0.1450
     11 C           1.7873    0.5719   -1.6804 C.ar    1  UNL1       -0.0121
     12 C           0.7528    1.3232   -1.1758 C.ar    1  UNL1        0.0638
     13 CL          0.4613    2.9365   -1.8156 Cl      1  UNL1       -0.0816
     14 C          -0.1037    0.8834   -0.1663 C.ar    1  UNL1        0.0486
     15 N          -1.1224    1.7117    0.3231 N.pl3   1  UNL1       -0.3401
     16 C          -2.0924    1.4139    1.3183 C.3     1  UNL1        0.0366
     17 C          -3.2407    0.5757    0.9347 C.3     1  UNL1        0.0865
     18 C          -4.0076    1.3222   -0.1754 C.3     1  UNL1        0.0238
     19 N          -5.3567    0.7973   -0.0799 N.3     1  UNL1       -0.3113
     20 C          -5.3608   -0.6160   -0.1492 C.3     1  UNL1        0.0195
     21 C          -4.0316   -1.2825   -0.1800 C.3     1  UNL1        0.0606
     22 O          -3.0152   -0.6728    0.4657 O.3     1  UNL1       -0.3725
     23 C           0.1423   -0.3847    0.3218 C.ar    1  UNL1       -0.0022
     24 C           1.1871   -1.1835   -0.1662 C.ar    1  UNL1        0.1517
     25 F           1.3662   -2.4273    0.3669 F       1  UNL1       -0.2034
     26 H           4.4993   -3.0262   -0.2178 H       1  UNL1        0.1758
     27 H           5.8858    2.1295    0.8268 H       1  UNL1        0.0835
     28 H           7.2692    0.7216    2.6072 H       1  UNL1        0.0710
     29 H           2.4128    0.9838   -2.4681 H       1  UNL1        0.0653
     30 H          -1.1826    2.6870   -0.1017 H       1  UNL1        0.1462
     31 H          -2.5200    2.3839    1.7088 H       1  UNL1        0.0487
     32 H          -1.5879    0.9901    2.2429 H       1  UNL1        0.0487
     33 H          -3.9244    0.5076    1.8108 H       1  UNL1        0.0624
     34 H          -3.5343    1.0148   -1.1163 H       1  UNL1        0.0450
     35 H          -3.9392    2.3890    0.0508 H       1  UNL1        0.0450
     36 H          -5.7301    1.1163    0.8388 H       1  UNL1        0.1221
     37 H          -5.9676   -0.9064   -1.0586 H       1  UNL1        0.0446
     38 H          -5.9343   -1.0293    0.7063 H       1  UNL1        0.0446
     39 H          -3.7425   -1.4223   -1.2470 H       1  UNL1        0.0572
     40 H          -4.1216   -2.3342    0.2239 H       1  UNL1        0.0572
     41 H          -0.4668   -0.7897    1.1184 H       1  UNL1        0.0666
@<TRIPOS>BOND
     1     1     2    2
     2     2     3    2
     3     2     4    1
     4     4     5    1
     5     5     6   ar
     6     6     7   ar
     7     7     8   ar
     8     8     9   ar
     9     2    10    1
    10    10    11   ar
    11    11    12   ar
    12    12    13    1
    13    12    14   ar
    14    14    15    1
    15    15    16    1
    16    16    17    1
    17    17    18    1
    18    18    19    1
    19    19    20    1
    20    20    21    1
    21    21    22    1
    22    14    23   ar
    23    23    24   ar
    24    24    25    1
    25     9     5   ar
    26    24    10   ar
    27    22    17    1
    28     4    26    1
    29     7    27    1
    30     8    28    1
    31    11    29    1
    32    15    30    1
    33    16    31    1
    34    16    32    1
    35    17    33    1
    36    18    34    1
    37    18    35    1
    38    19    36    1
    39    20    37    1
    40    20    38    1
    41    21    39    1
    42    21    40    1
    43    23    41    1
