
     RDKit          3D

 41 43  0  0  0  0  0  0  0  0999 V2000
    4.0723   -0.9693   -2.8437 O   0  0  0  0  0  0  0  0  0  0  0  0
    3.3004   -1.6829   -1.7750 S   0  0  0  0  0  6  0  0  0  0  0  0
    2.7415   -2.9334   -2.3986 O   0  0  0  0  0  0  0  0  0  0  0  0
    4.3601   -2.0444   -0.4916 N   0  0  0  0  0  0  0  0  0  0  0  0
    5.0098   -0.9285    0.1444 C   0  0  0  0  0  0  0  0  0  0  0  0
    5.1190    0.2369    0.1411 N   0  0  0  0  0  0  0  0  0  0  0  0
    5.8401    1.0185    0.8984 C   0  0  0  0  0  0  0  0  0  0  0  0
    6.5993    0.3947    1.8587 C   0  0  0  0  0  0  0  0  0  0  0  0
    6.1785   -1.3802    1.5653 S   0  0  0  0  0  0  0  0  0  0  0  0
    1.9973   -0.6882   -1.1658 C   0  0  0  0  0  0  0  0  0  0  0  0
    1.7873    0.5719   -1.6804 C   0  0  0  0  0  0  0  0  0  0  0  0
    0.7528    1.3232   -1.1758 C   0  0  0  0  0  0  0  0  0  0  0  0
    0.4613    2.9365   -1.8156 Cl  0  0  0  0  0  0  0  0  0  0  0  0
   -0.1037    0.8834   -0.1663 C   0  0  0  0  0  0  0  0  0  0  0  0
   -1.1224    1.7117    0.3231 N   0  0  0  0  0  0  0  0  0  0  0  0
   -2.0924    1.4139    1.3183 C   0  0  0  0  0  0  0  0  0  0  0  0
   -3.2407    0.5757    0.9347 C   0  0  0  0  0  0  0  0  0  0  0  0
   -4.0076    1.3222   -0.1754 C   0  0  0  0  0  0  0  0  0  0  0  0
   -5.3567    0.7973   -0.0799 N   0  0  0  0  0  0  0  0  0  0  0  0
   -5.3608   -0.6160   -0.1492 C   0  0  0  0  0  0  0  0  0  0  0  0
   -4.0316   -1.2825   -0.1800 C   0  0  0  0  0  0  0  0  0  0  0  0
   -3.0152   -0.6728    0.4657 O   0  0  0  0  0  0  0  0  0  0  0  0
    0.1423   -0.3847    0.3218 C   0  0  0  0  0  0  0  0  0  0  0  0
    1.1871   -1.1835   -0.1662 C   0  0  0  0  0  0  0  0  0  0  0  0
    1.3662   -2.4273    0.3669 F   0  0  0  0  0  0  0  0  0  0  0  0
    4.4993   -3.0262   -0.2178 H   0  0  0  0  0  0  0  0  0  0  0  0
    5.8858    2.1295    0.8268 H   0  0  0  0  0  0  0  0  0  0  0  0
    7.2692    0.7216    2.6072 H   0  0  0  0  0  0  0  0  0  0  0  0
    2.4128    0.9838   -2.4681 H   0  0  0  0  0  0  0  0  0  0  0  0
   -1.1826    2.6870   -0.1017 H   0  0  0  0  0  0  0  0  0  0  0  0
   -2.5200    2.3839    1.7088 H   0  0  0  0  0  0  0  0  0  0  0  0
   -1.5879    0.9901    2.2429 H   0  0  0  0  0  0  0  0  0  0  0  0
   -3.9244    0.5076    1.8108 H   0  0  0  0  0  0  0  0  0  0  0  0
   -3.5343    1.0148   -1.1163 H   0  0  0  0  0  0  0  0  0  0  0  0
   -3.9392    2.3890    0.0508 H   0  0  0  0  0  0  0  0  0  0  0  0
   -5.7301    1.1163    0.8388 H   0  0  0  0  0  0  0  0  0  0  0  0
   -5.9676   -0.9064   -1.0586 H   0  0  0  0  0  0  0  0  0  0  0  0
   -5.9343   -1.0293    0.7063 H   0  0  0  0  0  0  0  0  0  0  0  0
   -3.7425   -1.4223   -1.2470 H   0  0  0  0  0  0  0  0  0  0  0  0
   -4.1216   -2.3342    0.2239 H   0  0  0  0  0  0  0  0  0  0  0  0
   -0.4668   -0.7897    1.1184 H   0  0  0  0  0  0  0  0  0  0  0  0
  1  2  2  0
  2  3  2  0
  2  4  1  0
  4  5  1  0
  5  6  2  0
  6  7  1  0
  7  8  2  0
  8  9  1  0
  2 10  1  0
 10 11  2  0
 11 12  1  0
 12 13  1  0
 12 14  2  0
 14 15  1  0
 15 16  1  0
 16 17  1  0
 17 18  1  0
 18 19  1  0
 19 20  1  0
 20 21  1  0
 21 22  1  0
 14 23  1  0
 23 24  2  0
 24 25  1  0
  9  5  1  0
 24 10  1  0
 22 17  1  0
  4 26  1  0
  7 27  1  0
  8 28  1  0
 11 29  1  0
 15 30  1  0
 16 31  1  0
 16 32  1  0
 17 33  1  0
 18 34  1  0
 18 35  1  0
 19 36  1  0
 20 37  1  0
 20 38  1  0
 21 39  1  0
 21 40  1  0
 23 41  1  0
M  END
$$$$
