@<TRIPOS>MOLECULE
*****
 34 36 0 0 0
SMALL
GASTEIGER

@<TRIPOS>ATOM
      1 C           6.2779    0.0683   -0.1679 C.3     1  UNL1       -0.0397
      2 C           4.8238    0.1477    0.1525 C.ar    1  UNL1       -0.0504
      3 C           4.3395   -0.1070    1.4182 C.ar    1  UNL1       -0.0581
      4 C           3.0031   -0.0314    1.6977 C.ar    1  UNL1       -0.0491
      5 C           2.0529    0.3081    0.7168 C.ar    1  UNL1        0.0414
      6 C           0.6831    0.4236    1.1166 C.2     1  UNL1        0.2814
      7 O           0.5095    0.9019    2.3056 O.2     1  UNL1       -0.2651
      8 N          -0.4700    0.0810    0.3773 N.ar    1  UNL1       -0.1626
      9 N          -1.7069    0.3546    0.7865 N.ar    1  UNL1       -0.1406
     10 C          -2.6330   -0.1214   -0.0492 C.ar    1  UNL1        0.1851
     11 C          -4.1016   -0.0035    0.0877 C.ar    1  UNL1        0.0390
     12 C          -4.9257    0.1916   -0.9942 C.ar    1  UNL1       -0.0481
     13 C          -6.3008    0.2933   -0.7885 C.ar    1  UNL1       -0.0429
     14 C          -6.8139    0.1985    0.4811 C.ar    1  UNL1        0.0276
     15 N          -6.0067    0.0068    1.5456 N.ar    1  UNL1       -0.2626
     16 C          -4.6748   -0.0908    1.3379 C.ar    1  UNL1        0.0383
     17 N          -1.9764   -0.7277   -1.0387 N.ar    1  UNL1       -0.1931
     18 C          -0.6442   -0.5956   -0.7613 C.ar    1  UNL1        0.2190
     19 N           0.3283   -1.1751   -1.6028 N.pl3   1  UNL1       -0.3273
     20 C           2.5242    0.5669   -0.5514 C.ar    1  UNL1       -0.0491
     21 C           3.8874    0.4791   -0.7962 C.ar    1  UNL1       -0.0581
     22 H           6.7067   -0.9021    0.2146 H       1  UNL1        0.0278
     23 H           6.8417    0.9040    0.2612 H       1  UNL1        0.0278
     24 H           6.3734   -0.0057   -1.2772 H       1  UNL1        0.0278
     25 H           5.0775   -0.3687    2.1713 H       1  UNL1        0.0620
     26 H           2.6461   -0.2404    2.7184 H       1  UNL1        0.0625
     27 H          -4.4839    0.2599   -1.9679 H       1  UNL1        0.0626
     28 H          -6.9355    0.4454   -1.6376 H       1  UNL1        0.0633
     29 H          -7.8915    0.2752    0.6695 H       1  UNL1        0.0829
     30 H          -4.0410   -0.2466    2.2215 H       1  UNL1        0.0837
     31 H           0.6033   -0.7985   -2.5403 H       1  UNL1        0.1452
     32 H           0.8552   -2.0563   -1.3246 H       1  UNL1        0.1452
     33 H           1.8446    0.8781   -1.3535 H       1  UNL1        0.0625
     34 H           4.2276    0.6866   -1.8029 H       1  UNL1        0.0620
@<TRIPOS>BOND
     1     1     2    1
     2     2     3   ar
     3     3     4   ar
     4     4     5   ar
     5     5     6    1
     6     6     7    2
     7     6     8   am
     8     8     9   ar
     9     9    10   ar
    10    10    11    1
    11    11    12   ar
    12    12    13   ar
    13    13    14   ar
    14    14    15   ar
    15    15    16   ar
    16    10    17   ar
    17    17    18   ar
    18    18    19    1
    19     5    20   ar
    20    20    21   ar
    21    21     2   ar
    22    18     8   ar
    23    16    11   ar
    24     1    22    1
    25     1    23    1
    26     1    24    1
    27     3    25    1
    28     4    26    1
    29    12    27    1
    30    13    28    1
    31    14    29    1
    32    16    30    1
    33    19    31    1
    34    19    32    1
    35    20    33    1
    36    21    34    1
