@<TRIPOS>MOLECULE
*****
 27 29 0 0 0
SMALL
GASTEIGER

@<TRIPOS>ATOM
      1 O           3.1480    1.8594    2.3425 O.2     1  UNL1       -0.2674
      2 C           3.2604    1.0969    1.3158 C.2     1  UNL1        0.2754
      3 N           4.4286    0.9115    0.5935 N.am    1  UNL1       -0.1623
      4 C           4.4488    0.1416   -0.3999 C.2     1  UNL1        0.1252
      5 S           5.7711   -0.2980   -1.5197 S.3     1  UNL1       -0.1187
      6 S           2.7990   -0.5509   -0.5636 S.3     1  UNL1       -0.0605
      7 C           2.1068    0.3421    0.8273 C.2     1  UNL1        0.0787
      8 C           0.8739    0.3383    1.2841 C.2     1  UNL1       -0.0351
      9 C          -0.1427   -0.4851    0.6586 C.ar    1  UNL1       -0.0161
     10 C           0.1180   -1.7898    0.3399 C.ar    1  UNL1       -0.0540
     11 C          -0.8899   -2.5220   -0.2907 C.ar    1  UNL1       -0.0606
     12 C          -2.1123   -1.9573   -0.5867 C.ar    1  UNL1       -0.0540
     13 C          -2.3910   -0.6489   -0.2745 C.ar    1  UNL1       -0.0173
     14 C          -3.6170   -0.0795   -0.5769 C.ar    1  UNL1       -0.0540
     15 C          -3.8653    1.2435   -0.2546 C.ar    1  UNL1       -0.0612
     16 C          -2.8693    1.9566    0.3659 C.ar    1  UNL1       -0.0611
     17 C          -1.6479    1.3861    0.6663 C.ar    1  UNL1       -0.0535
     18 C          -1.3896    0.0727    0.3507 C.ar    1  UNL1       -0.0107
     19 H           6.9439    0.3728   -1.0906 H       1  UNL1        0.1089
     20 H           0.6200    0.9568    2.1451 H       1  UNL1        0.0636
     21 H           1.0769   -2.2682    0.5595 H       1  UNL1        0.0624
     22 H          -0.6773   -3.5537   -0.5425 H       1  UNL1        0.0618
     23 H          -2.8917   -2.5333   -1.0844 H       1  UNL1        0.0624
     24 H          -4.3920   -0.6471   -1.0681 H       1  UNL1        0.0624
     25 H          -4.8163    1.7144   -0.4848 H       1  UNL1        0.0618
     26 H          -3.0374    2.9935    0.6281 H       1  UNL1        0.0618
     27 H          -0.8554    1.9477    1.1629 H       1  UNL1        0.0624
@<TRIPOS>BOND
     1     1     2    2
     2     2     3    1
     3     3     4    2
     4     4     5    1
     5     4     6    1
     6     6     7    1
     7     7     8    2
     8     8     9    1
     9     9    10   ar
    10    10    11   ar
    11    11    12   ar
    12    12    13   ar
    13    13    14   ar
    14    14    15   ar
    15    15    16   ar
    16    16    17   ar
    17    17    18   ar
    18     7     2    1
    19    18     9   ar
    20    18    13   ar
    21     5    19    1
    22     8    20    1
    23    10    21    1
    24    11    22    1
    25    12    23    1
    26    14    24    1
    27    15    25    1
    28    16    26    1
    29    17    27    1
