@<TRIPOS>MOLECULE
*****
 41 43 0 0 0
SMALL
GASTEIGER

@<TRIPOS>ATOM
      1 C          -5.8918   -0.0650    1.3762 C.3     1  UNL1       -0.0394
      2 C          -5.0642    0.5599    0.2853 C.ar    1  UNL1       -0.0458
      3 C          -5.4499    1.8135   -0.1578 C.ar    1  UNL1       -0.0585
      4 C          -4.7450    2.4520   -1.1531 C.ar    1  UNL1       -0.0615
      5 C          -3.6603    1.8003   -1.6779 C.ar    1  UNL1       -0.0614
      6 C          -3.2667    0.5411   -1.2384 C.ar    1  UNL1       -0.0568
      7 C          -3.9724   -0.0962   -0.2429 C.ar    1  UNL1       -0.0273
      8 C          -3.6610   -1.4270    0.3013 C.3     1  UNL1        0.0402
      9 N          -2.4593   -2.0230   -0.1749 N.am    1  UNL1       -0.2767
     10 C          -1.1613   -1.4869    0.0035 C.2     1  UNL1        0.4059
     11 O          -1.0070   -0.4241    0.6138 O.2     1  UNL1       -0.2260
     12 O          -0.0170   -2.0647   -0.4584 O.3     1  UNL1       -0.4115
     13 C           1.2406   -1.5501   -0.2877 C.ar    1  UNL1        0.1333
     14 C           1.6989   -0.6967   -1.2702 C.ar    1  UNL1       -0.0185
     15 C           2.9485   -0.1125   -1.2155 C.ar    1  UNL1       -0.0460
     16 C           3.7835   -0.3721   -0.1594 C.ar    1  UNL1        0.0364
     17 C           5.1052    0.2613   -0.1304 C.2     1  UNL1        0.2177
     18 N           5.5520    1.0532   -1.0333 N.2     1  UNL1       -0.2469
     19 C           6.8798    1.5165   -0.7307 C.3     1  UNL1        0.0775
     20 C           7.2628    0.7060    0.4825 C.3     1  UNL1        0.1107
     21 O           6.0707    0.0989    0.8783 O.2     1  UNL1       -0.4743
     22 C           3.3405   -1.2236    0.8320 C.ar    1  UNL1       -0.0460
     23 C           2.0738   -1.8049    0.7596 C.ar    1  UNL1       -0.0185
     24 H          -6.0769   -1.1360    1.1004 H       1  UNL1        0.0278
     25 H          -5.2993   -0.0436    2.3073 H       1  UNL1        0.0278
     26 H          -6.8688    0.4175    1.4360 H       1  UNL1        0.0278
     27 H          -6.3138    2.3039    0.2775 H       1  UNL1        0.0620
     28 H          -5.0907    3.4273   -1.4588 H       1  UNL1        0.0618
     29 H          -3.0932    2.2818   -2.4591 H       1  UNL1        0.0618
     30 H          -2.4188    0.0549   -1.6685 H       1  UNL1        0.0621
     31 H          -4.5362   -2.0848    0.0345 H       1  UNL1        0.0513
     32 H          -3.7077   -1.3436    1.4106 H       1  UNL1        0.0513
     33 H          -2.4926   -2.9407   -0.7101 H       1  UNL1        0.1523
     34 H           1.0968   -0.4344   -2.1492 H       1  UNL1        0.0654
     35 H           3.2920    0.5666   -2.0135 H       1  UNL1        0.0626
     36 H           7.5856    1.3704   -1.5758 H       1  UNL1        0.0543
     37 H           6.7865    2.6131   -0.4903 H       1  UNL1        0.0543
     38 H           8.0590   -0.0021    0.1808 H       1  UNL1        0.0716
     39 H           7.7002    1.3580    1.2875 H       1  UNL1        0.0716
     40 H           4.0164   -1.4137    1.6557 H       1  UNL1        0.0626
     41 H           1.7608   -2.4506    1.5288 H       1  UNL1        0.0654
@<TRIPOS>BOND
     1     1     2    1
     2     2     3   ar
     3     3     4   ar
     4     4     5   ar
     5     5     6   ar
     6     6     7   ar
     7     7     8    1
     8     8     9    1
     9     9    10   am
    10    10    11    2
    11    10    12    1
    12    12    13    1
    13    13    14   ar
    14    14    15   ar
    15    15    16   ar
    16    16    17    1
    17    17    18    2
    18    18    19    1
    19    19    20    1
    20    20    21    1
    21    16    22   ar
    22    22    23   ar
    23     7     2   ar
    24    23    13   ar
    25    21    17    1
    26     1    24    1
    27     1    25    1
    28     1    26    1
    29     3    27    1
    30     4    28    1
    31     5    29    1
    32     6    30    1
    33     8    31    1
    34     8    32    1
    35     9    33    1
    36    14    34    1
    37    15    35    1
    38    19    36    1
    39    19    37    1
    40    20    38    1
    41    20    39    1
    42    22    40    1
    43    23    41    1
