
     RDKit          3D

 59 63  0  0  0  0  0  0  0  0999 V2000
   -7.7526   -2.1967    0.2572 C   0  0  0  0  0  0  0  0  0  0  0  0
   -8.5219   -0.9452   -0.0911 C   0  0  0  0  0  0  0  0  0  0  0  0
   -7.8630   -0.0697   -1.0811 C   0  0  0  0  0  0  0  0  0  0  0  0
   -8.4441    0.1819   -2.1650 O   0  0  0  0  0  0  0  0  0  0  0  0
   -6.5837    0.4877   -0.8191 N   0  0  0  0  0  0  0  0  0  0  0  0
   -5.6462    1.3665   -1.5263 C   0  0  0  0  0  0  0  0  0  0  0  0
   -5.0075    1.6439   -0.1781 C   0  0  0  0  0  0  0  0  0  0  0  0
   -3.5632    1.4258   -0.2674 C   0  0  0  0  0  0  0  0  0  0  0  0
   -2.3659    1.2521   -0.3273 C   0  0  0  0  0  0  0  0  0  0  0  0
   -0.9383    1.0660   -0.4129 C   0  0  0  0  0  0  0  0  0  0  0  0
   -0.4262    0.6077   -1.6035 C   0  0  0  0  0  0  0  0  0  0  0  0
    0.9493    0.4237   -1.6996 C   0  0  0  0  0  0  0  0  0  0  0  0
    1.7767    0.6979   -0.6175 C   0  0  0  0  0  0  0  0  0  0  0  0
    3.1385    0.5170   -0.7091 C   0  0  0  0  0  0  0  0  0  0  0  0
    3.6513    0.1040   -1.7654 O   0  0  0  0  0  0  0  0  0  0  0  0
    3.9044    0.8134    0.4189 C   0  0  0  0  0  0  0  0  0  0  0  0
    5.3331    0.6485    0.3965 C   0  0  0  0  0  0  0  0  0  0  0  0
    6.1222    1.0748   -0.6483 C   0  0  0  0  0  0  0  0  0  0  0  0
    7.4780    0.8836   -0.6003 C   0  0  0  0  0  0  0  0  0  0  0  0
    8.1322    0.2711    0.4608 C   0  0  0  0  0  0  0  0  0  0  0  0
    9.5371    0.0894    0.4772 N   0  0  0  0  0  0  0  0  0  0  0  0
   10.2236   -1.4127    0.9557 S   0  0  0  0  0  6  0  0  0  0  0  0
    9.6664   -2.6901   -0.1790 C   0  0  0  0  0  0  0  0  0  0  0  0
   11.7226   -1.3695    0.8804 O   0  0  0  0  0  0  0  0  0  0  0  0
    9.7851   -1.8354    2.3286 O   0  0  0  0  0  0  0  0  0  0  0  0
    7.3175   -0.1456    1.4928 C   0  0  0  0  0  0  0  0  0  0  0  0
    5.9488    0.0368    1.4656 C   0  0  0  0  0  0  0  0  0  0  0  0
    3.3178    1.2714    1.5843 C   0  0  0  0  0  0  0  0  0  0  0  0
    2.0191    1.4188    1.5972 O   0  0  0  0  0  0  0  0  0  0  0  0
    1.2467    1.1596    0.5774 C   0  0  0  0  0  0  0  0  0  0  0  0
   -0.1156    1.3437    0.6784 C   0  0  0  0  0  0  0  0  0  0  0  0
   -5.6844    0.3834    0.3135 C   0  0  0  0  0  0  0  0  0  0  0  0
   -8.9727   -0.1958    1.1513 C   0  0  0  0  0  0  0  0  0  0  0  0
  -10.1984   -0.8312    1.0697 O   0  0  0  0  0  0  0  0  0  0  0  0
   -9.9993   -1.1156   -0.2665 C   0  0  0  0  0  0  0  0  0  0  0  0
   -8.4356   -3.0573    0.4728 H   0  0  0  0  0  0  0  0  0  0  0  0
   -7.0981   -2.4379   -0.6006 H   0  0  0  0  0  0  0  0  0  0  0  0
   -7.1173   -2.0691    1.1665 H   0  0  0  0  0  0  0  0  0  0  0  0
   -4.9935    0.8647   -2.2405 H   0  0  0  0  0  0  0  0  0  0  0  0
   -6.1714    2.2429   -1.9657 H   0  0  0  0  0  0  0  0  0  0  0  0
   -5.3183    2.5642    0.3198 H   0  0  0  0  0  0  0  0  0  0  0  0
   -1.0874    0.4075   -2.4124 H   0  0  0  0  0  0  0  0  0  0  0  0
    1.3892    0.0682   -2.6094 H   0  0  0  0  0  0  0  0  0  0  0  0
    5.6476    1.5677   -1.5151 H   0  0  0  0  0  0  0  0  0  0  0  0
    8.1072    1.2222   -1.4308 H   0  0  0  0  0  0  0  0  0  0  0  0
   10.1412    0.8835    0.1939 H   0  0  0  0  0  0  0  0  0  0  0  0
    8.7650   -3.1727    0.2494 H   0  0  0  0  0  0  0  0  0  0  0  0
   10.4649   -3.4455   -0.3139 H   0  0  0  0  0  0  0  0  0  0  0  0
    9.4168   -2.1810   -1.1524 H   0  0  0  0  0  0  0  0  0  0  0  0
    7.7814   -0.6366    2.3588 H   0  0  0  0  0  0  0  0  0  0  0  0
    5.3608   -0.3230    2.3282 H   0  0  0  0  0  0  0  0  0  0  0  0
    3.9197    1.5008    2.4604 H   0  0  0  0  0  0  0  0  0  0  0  0
   -0.5302    1.7036    1.6092 H   0  0  0  0  0  0  0  0  0  0  0  0
   -6.1578    0.4322    1.2934 H   0  0  0  0  0  0  0  0  0  0  0  0
   -5.0260   -0.5311    0.2629 H   0  0  0  0  0  0  0  0  0  0  0  0
   -8.4317   -0.4363    2.0732 H   0  0  0  0  0  0  0  0  0  0  0  0
   -9.0968    0.9050    0.9891 H   0  0  0  0  0  0  0  0  0  0  0  0
  -10.3959   -0.3205   -0.9588 H   0  0  0  0  0  0  0  0  0  0  0  0
  -10.3210   -2.1122   -0.6112 H   0  0  0  0  0  0  0  0  0  0  0  0
  1  2  1  0
  2  3  1  0
  3  4  2  0
  3  5  1  0
  5  6  1  0
  6  7  1  0
  7  8  1  0
  8  9  3  0
  9 10  1  0
 10 11  2  0
 11 12  1  0
 12 13  2  0
 13 14  1  0
 14 15  2  0
 14 16  1  0
 16 17  1  0
 17 18  2  0
 18 19  1  0
 19 20  2  0
 20 21  1  0
 21 22  1  0
 22 23  1  0
 22 24  2  0
 22 25  2  0
 20 26  1  0
 26 27  2  0
 16 28  2  0
 28 29  1  0
 29 30  1  0
 30 31  2  0
  7 32  1  0
  2 33  1  0
 33 34  1  0
 34 35  1  0
 35  2  1  0
 32  5  1  0
 31 10  1  0
 30 13  1  0
 27 17  1  0
  1 36  1  0
  1 37  1  0
  1 38  1  0
  6 39  1  0
  6 40  1  0
  7 41  1  0
 11 42  1  0
 12 43  1  0
 18 44  1  0
 19 45  1  0
 21 46  1  0
 23 47  1  0
 23 48  1  0
 23 49  1  0
 26 50  1  0
 27 51  1  0
 28 52  1  0
 31 53  1  0
 32 54  1  0
 32 55  1  0
 33 56  1  0
 33 57  1  0
 35 58  1  0
 35 59  1  0
M  END
$$$$
