@<TRIPOS>MOLECULE
*****
 59 63 0 0 0
SMALL
GASTEIGER

@<TRIPOS>ATOM
      1 C          -7.7526   -2.1967    0.2572 C.3     1  UNL1       -0.0469
      2 C          -8.5219   -0.9452   -0.0911 C.3     1  UNL1        0.0907
      3 C          -7.8630   -0.0697   -1.0811 C.2     1  UNL1        0.2260
      4 O          -8.4441    0.1819   -2.1650 O.2     1  UNL1       -0.2748
      5 N          -6.5837    0.4877   -0.8191 N.am    1  UNL1       -0.2985
      6 C          -5.6462    1.3665   -1.5263 C.3     1  UNL1        0.0299
      7 C          -5.0075    1.6439   -0.1781 C.3     1  UNL1        0.0524
      8 C          -3.5632    1.4258   -0.2674 C.1     1  UNL1       -0.0905
      9 C          -2.3659    1.2521   -0.3273 C.1     1  UNL1       -0.0658
     10 C          -0.9383    1.0660   -0.4129 C.ar    1  UNL1        0.0285
     11 C          -0.4262    0.6077   -1.6035 C.ar    1  UNL1       -0.0454
     12 C           0.9493    0.4237   -1.6996 C.ar    1  UNL1       -0.0462
     13 C           1.7767    0.6979   -0.6175 C.ar    1  UNL1        0.0646
     14 C           3.1385    0.5170   -0.7091 C.ar    1  UNL1        0.2001
     15 O           3.6513    0.1040   -1.7654 O.2     1  UNL1       -0.2864
     16 C           3.9044    0.8134    0.4189 C.ar    1  UNL1        0.0643
     17 C           5.3331    0.6485    0.3965 C.ar    1  UNL1       -0.0112
     18 C           6.1222    1.0748   -0.6483 C.ar    1  UNL1       -0.0520
     19 C           7.4780    0.8836   -0.6003 C.ar    1  UNL1       -0.0388
     20 C           8.1322    0.2711    0.4608 C.ar    1  UNL1        0.0477
     21 N           9.5371    0.0894    0.4772 N.pl3   1  UNL1       -0.2209
     22 S          10.2236   -1.4127    0.9557 S.O2    1  UNL1        0.0403
     23 C           9.6664   -2.6901   -0.1790 C.3     1  UNL1        0.0736
     24 O          11.7226   -1.3695    0.8804 O.2     1  UNL1       -0.1555
     25 O           9.7851   -1.8354    2.3286 O.2     1  UNL1       -0.1555
     26 C           7.3175   -0.1456    1.4928 C.ar    1  UNL1       -0.0388
     27 C           5.9488    0.0368    1.4656 C.ar    1  UNL1       -0.0520
     28 C           3.3178    1.2714    1.5843 C.ar    1  UNL1        0.1038
     29 O           2.0191    1.4188    1.5972 O.2     1  UNL1       -0.4621
     30 C           1.2467    1.1596    0.5774 C.ar    1  UNL1        0.1396
     31 C          -0.1156    1.3437    0.6784 C.ar    1  UNL1       -0.0032
     32 C          -5.6844    0.3834    0.3135 C.3     1  UNL1        0.0299
     33 C          -8.9727   -0.1958    1.1513 C.3     1  UNL1        0.0635
     34 O         -10.1984   -0.8312    1.0697 O.3     1  UNL1       -0.3776
     35 C          -9.9993   -1.1156   -0.2665 C.3     1  UNL1        0.0635
     36 H          -8.4356   -3.0573    0.4728 H       1  UNL1        0.0241
     37 H          -7.0981   -2.4379   -0.6006 H       1  UNL1        0.0241
     38 H          -7.1173   -2.0691    1.1665 H       1  UNL1        0.0241
     39 H          -4.9935    0.8647   -2.2405 H       1  UNL1        0.0477
     40 H          -6.1714    2.2429   -1.9657 H       1  UNL1        0.0477
     41 H          -5.3183    2.5642    0.3198 H       1  UNL1        0.0464
     42 H          -1.0874    0.4075   -2.4124 H       1  UNL1        0.0630
     43 H           1.3892    0.0682   -2.6094 H       1  UNL1        0.0626
     44 H           5.6476    1.5677   -1.5151 H       1  UNL1        0.0624
     45 H           8.1072    1.2222   -1.4308 H       1  UNL1        0.0637
     46 H          10.1412    0.8835    0.1939 H       1  UNL1        0.1733
     47 H           8.7650   -3.1727    0.2494 H       1  UNL1        0.0482
     48 H          10.4649   -3.4455   -0.3139 H       1  UNL1        0.0482
     49 H           9.4168   -2.1810   -1.1524 H       1  UNL1        0.0482
     50 H           7.7814   -0.6366    2.3588 H       1  UNL1        0.0637
     51 H           5.3608   -0.3230    2.3282 H       1  UNL1        0.0624
     52 H           3.9197    1.5008    2.4604 H       1  UNL1        0.1037
     53 H          -0.5302    1.7036    1.6092 H       1  UNL1        0.0667
     54 H          -6.1578    0.4322    1.2934 H       1  UNL1        0.0477
     55 H          -5.0260   -0.5311    0.2629 H       1  UNL1        0.0477
     56 H          -8.4317   -0.4363    2.0732 H       1  UNL1        0.0571
     57 H          -9.0968    0.9050    0.9891 H       1  UNL1        0.0571
     58 H         -10.3959   -0.3205   -0.9588 H       1  UNL1        0.0571
     59 H         -10.3210   -2.1122   -0.6112 H       1  UNL1        0.0571
@<TRIPOS>BOND
     1     1     2    1
     2     2     3    1
     3     3     4    2
     4     3     5   am
     5     5     6    1
     6     6     7    1
     7     7     8    1
     8     8     9    3
     9     9    10    1
    10    10    11   ar
    11    11    12   ar
    12    12    13   ar
    13    13    14   ar
    14    14    15    2
    15    14    16   ar
    16    16    17    1
    17    17    18   ar
    18    18    19   ar
    19    19    20   ar
    20    20    21    1
    21    21    22    1
    22    22    23    1
    23    22    24    2
    24    22    25    2
    25    20    26   ar
    26    26    27   ar
    27    16    28   ar
    28    28    29   ar
    29    29    30   ar
    30    30    31   ar
    31     7    32    1
    32     2    33    1
    33    33    34    1
    34    34    35    1
    35    35     2    1
    36    32     5    1
    37    31    10   ar
    38    30    13   ar
    39    27    17   ar
    40     1    36    1
    41     1    37    1
    42     1    38    1
    43     6    39    1
    44     6    40    1
    45     7    41    1
    46    11    42    1
    47    12    43    1
    48    18    44    1
    49    19    45    1
    50    21    46    1
    51    23    47    1
    52    23    48    1
    53    23    49    1
    54    26    50    1
    55    27    51    1
    56    28    52    1
    57    31    53    1
    58    32    54    1
    59    32    55    1
    60    33    56    1
    61    33    57    1
    62    35    58    1
    63    35    59    1
