@<TRIPOS>MOLECULE
*****
 64 68 0 0 0
SMALL
GASTEIGER

@<TRIPOS>ATOM
      1 C           8.3517    2.6102    0.2241 C.3     1  UNL1        0.0124
      2 C           7.9411    1.2980    0.7587 C.2     1  UNL1        0.2126
      3 O           8.0602    1.0939    1.9921 O.2     1  UNL1       -0.2759
      4 N           7.4227    0.2701   -0.0549 N.am    1  UNL1       -0.2987
      5 C           7.0428   -0.9828    0.5340 C.3     1  UNL1        0.0304
      6 C           5.9510   -1.6256   -0.2892 C.3     1  UNL1        0.0280
      7 N           5.1593   -0.5812   -0.8942 N.pl3   1  UNL1       -0.3269
      8 C           3.8105   -0.3841   -0.5233 C.ar    1  UNL1        0.0300
      9 C           2.9592    0.3928   -1.3216 C.ar    1  UNL1       -0.0372
     10 C           1.6418    0.6301   -0.9953 C.ar    1  UNL1       -0.0182
     11 C           1.0991    0.0989    0.1575 C.ar    1  UNL1        0.1207
     12 O          -0.2300    0.3849    0.4135 O.3     1  UNL1       -0.4893
     13 C          -0.9357   -0.0764    1.5473 C.3     1  UNL1        0.1179
     14 C          -2.3304    0.4457    1.4546 C.3     1  UNL1        0.1195
     15 C          -3.2795   -0.1036    2.4899 C.3     1  UNL1        0.0808
     16 O          -4.5165    0.1187    1.8364 O.3     1  UNL1       -0.3406
     17 C          -4.2374   -0.2279    0.5037 C.3     1  UNL1        0.2169
     18 C          -4.7249   -1.6624    0.3689 C.3     1  UNL1        0.0828
     19 N          -6.1590   -1.6512    0.6674 N.ar    1  UNL1       -0.3313
     20 C          -7.1777   -1.4799   -0.1888 C.ar    1  UNL1        0.0242
     21 C          -8.3799   -1.5346    0.4833 C.ar    1  UNL1        0.0454
     22 N          -8.0695   -1.7469    1.7901 N.ar    1  UNL1       -0.2441
     23 C          -6.7399   -1.8140    1.8816 C.ar    1  UNL1        0.0961
     24 C          -5.0148    0.6124   -0.4357 C.ar    1  UNL1        0.0313
     25 C          -5.9137    1.5628    0.0151 C.ar    1  UNL1       -0.0507
     26 C          -6.6149    2.2931   -0.9115 C.ar    1  UNL1       -0.0429
     27 C          -6.4493    2.1068   -2.2671 C.ar    1  UNL1        0.0424
     28 CL         -7.4021    3.0990   -3.3802 Cl      1  UNL1       -0.0835
     29 C          -5.5600    1.1662   -2.7355 C.ar    1  UNL1       -0.0246
     30 C          -4.8460    0.4235   -1.7834 C.ar    1  UNL1        0.0507
     31 CL         -3.7053   -0.7414   -2.4717 Cl      1  UNL1       -0.0830
     32 O          -2.9058   -0.0553    0.2701 O.3     1  UNL1       -0.3343
     33 C           1.8941   -0.6576    0.9528 C.ar    1  UNL1       -0.0182
     34 C           3.2289   -0.8939    0.6156 C.ar    1  UNL1       -0.0372
     35 C           5.8129    0.2831   -1.8923 C.3     1  UNL1        0.0280
     36 C           7.2718    0.4705   -1.4833 C.3     1  UNL1        0.0304
     37 H           9.2657    2.4731   -0.4097 H       1  UNL1        0.0323
     38 H           7.6005    3.0632   -0.4535 H       1  UNL1        0.0323
     39 H           8.5114    3.3322    1.0369 H       1  UNL1        0.0323
     40 H           7.9077   -1.6874    0.4955 H       1  UNL1        0.0480
     41 H           6.6725   -0.8703    1.5780 H       1  UNL1        0.0480
     42 H           5.2935   -2.2915    0.2888 H       1  UNL1        0.0479
     43 H           6.4119   -2.1848   -1.1567 H       1  UNL1        0.0479
     44 H           3.3818    0.8163   -2.2374 H       1  UNL1        0.0637
     45 H           1.0268    1.2405   -1.6531 H       1  UNL1        0.0655
     46 H          -0.8671   -1.1451    1.7334 H       1  UNL1        0.0723
     47 H          -0.4467    0.4398    2.4251 H       1  UNL1        0.0723
     48 H          -2.3555    1.5538    1.4694 H       1  UNL1        0.0654
     49 H          -3.2272    0.4470    3.4502 H       1  UNL1        0.0588
     50 H          -3.1819   -1.1918    2.5896 H       1  UNL1        0.0588
     51 H          -4.1846   -2.2538    1.1606 H       1  UNL1        0.0549
     52 H          -4.5796   -2.1054   -0.6091 H       1  UNL1        0.0549
     53 H          -7.1043   -1.3169   -1.2668 H       1  UNL1        0.0825
     54 H          -9.3953   -1.4361    0.1073 H       1  UNL1        0.0845
     55 H          -6.2034   -1.9763    2.8085 H       1  UNL1        0.1029
     56 H          -6.0162    1.6785    1.0834 H       1  UNL1        0.0623
     57 H          -7.3287    3.0476   -0.5645 H       1  UNL1        0.0632
     58 H          -5.4246    1.0145   -3.7977 H       1  UNL1        0.0647
     59 H           1.4499   -1.0679    1.8547 H       1  UNL1        0.0655
     60 H           3.7934   -1.4947    1.2971 H       1  UNL1        0.0637
     61 H           5.3152    1.2605   -1.8434 H       1  UNL1        0.0479
     62 H           5.7168   -0.1225   -2.9012 H       1  UNL1        0.0479
     63 H           7.8612   -0.3027   -2.0016 H       1  UNL1        0.0480
     64 H           7.6516    1.4529   -1.8125 H       1  UNL1        0.0480
@<TRIPOS>BOND
     1     1     2    1
     2     2     3    2
     3     2     4   am
     4     4     5    1
     5     5     6    1
     6     6     7    1
     7     7     8    1
     8     8     9   ar
     9     9    10   ar
    10    10    11   ar
    11    11    12    1
    12    12    13    1
    13    13    14    1
    14    14    15    1
    15    15    16    1
    16    16    17    1
    17    17    18    1
    18    18    19    1
    19    19    20   ar
    20    20    21   ar
    21    21    22   ar
    22    22    23   ar
    23    17    24    1
    24    24    25   ar
    25    25    26   ar
    26    26    27   ar
    27    27    28    1
    28    27    29   ar
    29    29    30   ar
    30    30    31    1
    31    17    32    1
    32    11    33   ar
    33    33    34   ar
    34     7    35    1
    35    35    36    1
    36    36     4    1
    37    34     8   ar
    38    32    14    1
    39    23    19   ar
    40    30    24   ar
    41     1    37    1
    42     1    38    1
    43     1    39    1
    44     5    40    1
    45     5    41    1
    46     6    42    1
    47     6    43    1
    48     9    44    1
    49    10    45    1
    50    13    46    1
    51    13    47    1
    52    14    48    1
    53    15    49    1
    54    15    50    1
    55    18    51    1
    56    18    52    1
    57    20    53    1
    58    21    54    1
    59    23    55    1
    60    25    56    1
    61    26    57    1
    62    29    58    1
    63    33    59    1
    64    34    60    1
    65    35    61    1
    66    35    62    1
    67    36    63    1
    68    36    64    1
