@<TRIPOS>MOLECULE
*****
 37 39 0 0 0
SMALL
GASTEIGER

@<TRIPOS>ATOM
      1 C          -6.0086    0.1448   -0.2558 C.3     1  UNL1       -0.0327
      2 C          -4.5398    0.2497   -0.3727 C.ar    1  UNL1        0.0375
      3 C          -3.7481   -0.3187    0.6022 C.ar    1  UNL1       -0.0301
      4 C          -4.3519   -1.0231    1.7484 C.3     1  UNL1       -0.0386
      5 C          -2.3637   -0.2465    0.5363 C.ar    1  UNL1        0.0210
      6 C          -1.5577   -0.8046    1.4947 C.ar    1  UNL1       -0.0474
      7 C          -0.1975   -0.6910    1.3592 C.ar    1  UNL1       -0.0191
      8 C           0.3629   -0.0198    0.2666 C.ar    1  UNL1        0.1245
      9 O           1.7120    0.1221    0.0836 O.3     1  UNL1       -0.4873
     10 C           2.7021   -0.3677    0.9358 C.3     1  UNL1        0.1147
     11 C           4.0351   -0.0106    0.3949 C.ar    1  UNL1       -0.0075
     12 C           4.6160    1.1899    0.7748 C.ar    1  UNL1       -0.0525
     13 C           5.8631    1.5483    0.2831 C.ar    1  UNL1       -0.0232
     14 C           6.5537    0.7320   -0.5870 C.ar    1  UNL1        0.1584
     15 F           7.7713    1.1230   -1.0429 F       1  UNL1       -0.2025
     16 C           5.9632   -0.4550   -0.9534 C.ar    1  UNL1        0.1588
     17 F           6.6215   -1.2754   -1.8077 F       1  UNL1       -0.2025
     18 C           4.7183   -0.8175   -0.4654 C.ar    1  UNL1       -0.0172
     19 C          -0.4748    0.5394   -0.6948 C.ar    1  UNL1        0.0231
     20 C          -1.8410    0.4292   -0.5652 C.ar    1  UNL1        0.1428
     21 O          -2.6247    0.9580   -1.4740 O.2     1  UNL1       -0.4218
     22 C          -3.9345    0.8973   -1.4242 C.ar    1  UNL1        0.3404
     23 O          -4.6764    1.4085   -2.3021 O.2     1  UNL1       -0.2449
     24 H          -6.3613    0.4305    0.7602 H       1  UNL1        0.0280
     25 H          -6.4678    0.8986   -0.9592 H       1  UNL1        0.0280
     26 H          -6.3949   -0.8493   -0.5481 H       1  UNL1        0.0280
     27 H          -5.4119   -1.2334    1.4978 H       1  UNL1        0.0278
     28 H          -4.3709   -0.3818    2.6751 H       1  UNL1        0.0278
     29 H          -3.8862   -2.0106    1.9451 H       1  UNL1        0.0278
     30 H          -2.0080   -1.3136    2.3226 H       1  UNL1        0.0626
     31 H           0.4829   -1.1050    2.0734 H       1  UNL1        0.0654
     32 H           2.6175    0.0550    1.9516 H       1  UNL1        0.0748
     33 H           2.6228   -1.4767    1.0051 H       1  UNL1        0.0748
     34 H           4.0941    1.8561    1.4614 H       1  UNL1        0.0622
     35 H           6.2669    2.5036    0.6183 H       1  UNL1        0.0647
     36 H           4.2684   -1.7564   -0.7649 H       1  UNL1        0.0651
     37 H          -0.0523    1.0709   -1.5608 H       1  UNL1        0.0691
@<TRIPOS>BOND
     1     1     2    1
     2     2     3   ar
     3     3     4    1
     4     3     5   ar
     5     5     6   ar
     6     6     7   ar
     7     7     8   ar
     8     8     9    1
     9     9    10    1
    10    10    11    1
    11    11    12   ar
    12    12    13   ar
    13    13    14   ar
    14    14    15    1
    15    14    16   ar
    16    16    17    1
    17    16    18   ar
    18     8    19   ar
    19    19    20   ar
    20    20    21   ar
    21    21    22   ar
    22    22    23    2
    23    22     2   ar
    24    20     5   ar
    25    18    11   ar
    26     1    24    1
    27     1    25    1
    28     1    26    1
    29     4    27    1
    30     4    28    1
    31     4    29    1
    32     6    30    1
    33     7    31    1
    34    10    32    1
    35    10    33    1
    36    12    34    1
    37    13    35    1
    38    18    36    1
    39    19    37    1
