@<TRIPOS>MOLECULE
*****
 51 55 0 0 0
SMALL
GASTEIGER

@<TRIPOS>ATOM
      1 O           2.2704   -1.6863   -1.0814 O.2     1  UNL1       -0.1685
      2 S           1.7702   -1.3096    0.2881 S.O2    1  UNL1        0.0072
      3 O           1.8679   -2.5542    1.1280 O.2     1  UNL1       -0.1685
      4 C           2.7623   -0.0412    0.8941 C.ar    1  UNL1        0.0893
      5 C           3.3460    0.8234   -0.0019 C.ar    1  UNL1       -0.0355
      6 C           4.1595    1.8752    0.3701 C.ar    1  UNL1       -0.0416
      7 C           4.3812    2.0445    1.7138 C.ar    1  UNL1        0.0411
      8 CL          5.4015    3.3597    2.2242 Cl      1  UNL1       -0.0835
      9 C           3.8129    1.1984    2.6328 C.ar    1  UNL1       -0.0416
     10 C           3.0056    0.1572    2.2348 C.ar    1  UNL1       -0.0355
     11 C           0.0649   -0.8658    0.1186 C.3     1  UNL1        0.1302
     12 C          -0.4848   -0.4661    1.4938 C.3     1  UNL1       -0.0227
     13 C          -1.9844   -0.3666    1.4544 C.3     1  UNL1       -0.0501
     14 C          -2.4241    0.4255    0.2700 C.3     1  UNL1       -0.0447
     15 C          -1.3186    1.1813   -0.4258 C.3     1  UNL1        0.0045
     16 C          -0.9752    2.4662    0.3303 C.3     1  UNL1       -0.0213
     17 C          -1.7060    3.5539   -0.4607 C.3     1  UNL1        0.0483
     18 O          -2.7712    2.7828   -0.9880 O.3     1  UNL1       -0.3792
     19 C          -1.9691    1.8188   -1.6586 C.3     1  UNL1        0.0538
     20 C          -0.1176    0.3495   -0.7554 C.3     1  UNL1        0.0307
     21 C           0.0037    0.0232   -2.2186 C.3     1  UNL1        0.0955
     22 O          -0.8144   -1.0571   -2.6046 O.3     1  UNL1       -0.4883
     23 C          -1.0363   -2.0898   -1.7027 C.ar    1  UNL1        0.1635
     24 C          -1.7096   -3.2297   -2.1909 C.ar    1  UNL1        0.1653
     25 F          -2.0970   -3.2511   -3.4982 F       1  UNL1       -0.2016
     26 C          -1.9713   -4.2860   -1.3886 C.ar    1  UNL1       -0.0201
     27 C          -1.5820   -4.2586   -0.0845 C.ar    1  UNL1       -0.0232
     28 C          -0.9137   -3.1318    0.4072 C.ar    1  UNL1        0.1323
     29 F          -0.5664   -3.1997    1.7104 F       1  UNL1       -0.2050
     30 C          -0.6400   -2.0494   -0.3957 C.ar    1  UNL1        0.0600
     31 H           3.1929    0.7214   -1.0887 H       1  UNL1        0.0637
     32 H           4.6081    2.5433   -0.3565 H       1  UNL1        0.0633
     33 H           4.0231    1.3805    3.6775 H       1  UNL1        0.0633
     34 H           2.5557   -0.5151    2.9880 H       1  UNL1        0.0637
     35 H          -0.1150    0.5770    1.7304 H       1  UNL1        0.0290
     36 H          -0.0843   -1.0649    2.3121 H       1  UNL1        0.0290
     37 H          -2.5054   -1.3390    1.5437 H       1  UNL1        0.0266
     38 H          -2.3152    0.2139    2.3661 H       1  UNL1        0.0266
     39 H          -2.8840   -0.2503   -0.4669 H       1  UNL1        0.0271
     40 H          -3.1980    1.1843    0.5245 H       1  UNL1        0.0271
     41 H           0.0901    2.6889    0.3160 H       1  UNL1        0.0294
     42 H          -1.4551    2.5035    1.3322 H       1  UNL1        0.0294
     43 H          -1.0366    3.8559   -1.2756 H       1  UNL1        0.0560
     44 H          -2.0677    4.3596    0.1780 H       1  UNL1        0.0560
     45 H          -1.2672    2.4438   -2.2375 H       1  UNL1        0.0565
     46 H          -2.6153    1.1554   -2.2122 H       1  UNL1        0.0565
     47 H           0.7760    1.0071   -0.5260 H       1  UNL1        0.0365
     48 H           1.0646   -0.2576   -2.4858 H       1  UNL1        0.0700
     49 H          -0.2355    0.8576   -2.8991 H       1  UNL1        0.0700
     50 H          -2.4917   -5.1646   -1.7695 H       1  UNL1        0.0648
     51 H          -1.8043   -5.1171    0.5343 H       1  UNL1        0.0647
@<TRIPOS>BOND
     1     1     2    2
     2     2     3    2
     3     2     4    1
     4     4     5   ar
     5     5     6   ar
     6     6     7   ar
     7     7     8    1
     8     7     9   ar
     9     9    10   ar
    10    11     2    1
    11    11    12    1
    12    12    13    1
    13    13    14    1
    14    15    14    1
    15    15    16    1
    16    16    17    1
    17    17    18    1
    18    18    19    1
    19    15    20    1
    20    20    21    1
    21    21    22    1
    22    22    23    1
    23    23    24   ar
    24    24    25    1
    25    24    26   ar
    26    26    27   ar
    27    27    28   ar
    28    28    29    1
    29    28    30   ar
    30    10     4   ar
    31    20    11    1
    32    30    23   ar
    33    30    11    1
    34    19    15    1
    35     5    31    1
    36     6    32    1
    37     9    33    1
    38    10    34    1
    39    12    35    1
    40    12    36    1
    41    13    37    1
    42    13    38    1
    43    14    39    1
    44    14    40    1
    45    16    41    1
    46    16    42    1
    47    17    43    1
    48    17    44    1
    49    19    45    1
    50    19    46    1
    51    20    47    1
    52    21    48    1
    53    21    49    1
    54    26    50    1
    55    27    51    1
