
     RDKit          3D

 51 55  0  0  0  0  0  0  0  0999 V2000
    2.2704   -1.6863   -1.0814 O   0  0  0  0  0  0  0  0  0  0  0  0
    1.7702   -1.3096    0.2881 S   0  0  0  0  0  6  0  0  0  0  0  0
    1.8679   -2.5542    1.1280 O   0  0  0  0  0  0  0  0  0  0  0  0
    2.7623   -0.0412    0.8941 C   0  0  0  0  0  0  0  0  0  0  0  0
    3.3460    0.8234   -0.0019 C   0  0  0  0  0  0  0  0  0  0  0  0
    4.1595    1.8752    0.3701 C   0  0  0  0  0  0  0  0  0  0  0  0
    4.3812    2.0445    1.7138 C   0  0  0  0  0  0  0  0  0  0  0  0
    5.4015    3.3597    2.2242 Cl  0  0  0  0  0  0  0  0  0  0  0  0
    3.8129    1.1984    2.6328 C   0  0  0  0  0  0  0  0  0  0  0  0
    3.0056    0.1572    2.2348 C   0  0  0  0  0  0  0  0  0  0  0  0
    0.0649   -0.8658    0.1186 C   0  0  1  0  0  0  0  0  0  0  0  0
   -0.4848   -0.4661    1.4938 C   0  0  0  0  0  0  0  0  0  0  0  0
   -1.9844   -0.3666    1.4544 C   0  0  0  0  0  0  0  0  0  0  0  0
   -2.4241    0.4255    0.2700 C   0  0  0  0  0  0  0  0  0  0  0  0
   -1.3186    1.1813   -0.4258 C   0  0  2  0  0  0  0  0  0  0  0  0
   -0.9752    2.4662    0.3303 C   0  0  0  0  0  0  0  0  0  0  0  0
   -1.7060    3.5539   -0.4607 C   0  0  0  0  0  0  0  0  0  0  0  0
   -2.7712    2.7828   -0.9880 O   0  0  0  0  0  0  0  0  0  0  0  0
   -1.9691    1.8188   -1.6586 C   0  0  0  0  0  0  0  0  0  0  0  0
   -0.1176    0.3495   -0.7554 C   0  0  2  0  0  0  0  0  0  0  0  0
    0.0037    0.0232   -2.2186 C   0  0  0  0  0  0  0  0  0  0  0  0
   -0.8144   -1.0571   -2.6046 O   0  0  0  0  0  0  0  0  0  0  0  0
   -1.0363   -2.0898   -1.7027 C   0  0  0  0  0  0  0  0  0  0  0  0
   -1.7096   -3.2297   -2.1909 C   0  0  0  0  0  0  0  0  0  0  0  0
   -2.0970   -3.2511   -3.4982 F   0  0  0  0  0  0  0  0  0  0  0  0
   -1.9713   -4.2860   -1.3886 C   0  0  0  0  0  0  0  0  0  0  0  0
   -1.5820   -4.2586   -0.0845 C   0  0  0  0  0  0  0  0  0  0  0  0
   -0.9137   -3.1318    0.4072 C   0  0  0  0  0  0  0  0  0  0  0  0
   -0.5664   -3.1997    1.7104 F   0  0  0  0  0  0  0  0  0  0  0  0
   -0.6400   -2.0494   -0.3957 C   0  0  0  0  0  0  0  0  0  0  0  0
    3.1929    0.7214   -1.0887 H   0  0  0  0  0  0  0  0  0  0  0  0
    4.6081    2.5433   -0.3565 H   0  0  0  0  0  0  0  0  0  0  0  0
    4.0231    1.3805    3.6775 H   0  0  0  0  0  0  0  0  0  0  0  0
    2.5557   -0.5151    2.9880 H   0  0  0  0  0  0  0  0  0  0  0  0
   -0.1150    0.5770    1.7304 H   0  0  0  0  0  0  0  0  0  0  0  0
   -0.0843   -1.0649    2.3121 H   0  0  0  0  0  0  0  0  0  0  0  0
   -2.5054   -1.3390    1.5437 H   0  0  0  0  0  0  0  0  0  0  0  0
   -2.3152    0.2139    2.3661 H   0  0  0  0  0  0  0  0  0  0  0  0
   -2.8840   -0.2503   -0.4669 H   0  0  0  0  0  0  0  0  0  0  0  0
   -3.1980    1.1843    0.5245 H   0  0  0  0  0  0  0  0  0  0  0  0
    0.0901    2.6889    0.3160 H   0  0  0  0  0  0  0  0  0  0  0  0
   -1.4551    2.5035    1.3322 H   0  0  0  0  0  0  0  0  0  0  0  0
   -1.0366    3.8559   -1.2756 H   0  0  0  0  0  0  0  0  0  0  0  0
   -2.0677    4.3596    0.1780 H   0  0  0  0  0  0  0  0  0  0  0  0
   -1.2672    2.4438   -2.2375 H   0  0  0  0  0  0  0  0  0  0  0  0
   -2.6153    1.1554   -2.2122 H   0  0  0  0  0  0  0  0  0  0  0  0
    0.7760    1.0071   -0.5260 H   0  0  0  0  0  0  0  0  0  0  0  0
    1.0646   -0.2576   -2.4858 H   0  0  0  0  0  0  0  0  0  0  0  0
   -0.2355    0.8576   -2.8991 H   0  0  0  0  0  0  0  0  0  0  0  0
   -2.4917   -5.1646   -1.7695 H   0  0  0  0  0  0  0  0  0  0  0  0
   -1.8043   -5.1171    0.5343 H   0  0  0  0  0  0  0  0  0  0  0  0
  1  2  2  0
  2  3  2  0
  2  4  1  0
  4  5  2  0
  5  6  1  0
  6  7  2  0
  7  8  1  0
  7  9  1  0
  9 10  2  0
 11  2  1  1
 11 12  1  0
 12 13  1  0
 13 14  1  0
 15 14  1  1
 15 16  1  0
 16 17  1  0
 17 18  1  0
 18 19  1  0
 15 20  1  0
 20 21  1  0
 21 22  1  0
 22 23  1  0
 23 24  2  0
 24 25  1  0
 24 26  1  0
 26 27  2  0
 27 28  1  0
 28 29  1  0
 28 30  2  0
 10  4  1  0
 20 11  1  0
 30 23  1  0
 30 11  1  0
 19 15  1  0
  5 31  1  0
  6 32  1  0
  9 33  1  0
 10 34  1  0
 12 35  1  0
 12 36  1  0
 13 37  1  0
 13 38  1  0
 14 39  1  0
 14 40  1  0
 16 41  1  0
 16 42  1  0
 17 43  1  0
 17 44  1  0
 19 45  1  0
 19 46  1  0
 20 47  1  1
 21 48  1  0
 21 49  1  0
 26 50  1  0
 27 51  1  0
M  END
$$$$
