@<TRIPOS>MOLECULE
*****
 58 60 0 0 0
SMALL
GASTEIGER

@<TRIPOS>ATOM
      1 C           0.8563   -5.1919    1.9055 C.3     1  UNL1        0.0833
      2 O           0.4516   -4.2918    0.8761 O.3     1  UNL1       -0.4537
      3 C           0.3298   -2.9395    1.0977 C.2     1  UNL1        0.4008
      4 O           0.5800   -2.4832    2.2284 O.2     1  UNL1       -0.2265
      5 N          -0.0717   -2.0346    0.0880 N.am    1  UNL1       -0.2648
      6 C          -0.2193   -0.6197    0.2489 C.3     1  UNL1        0.1544
      7 C           0.6331    0.2106   -0.6416 C.3     1  UNL1        0.0044
      8 C           2.0788   -0.0881   -0.3917 C.ar    1  UNL1       -0.0447
      9 C           2.7226    0.6618    0.5628 C.ar    1  UNL1       -0.0551
     10 C           4.0508    0.4461    0.8505 C.ar    1  UNL1       -0.0194
     11 C           4.7469   -0.5361    0.1726 C.ar    1  UNL1        0.1420
     12 N           6.1113   -0.7672    0.4625 N.pl3   1  UNL1       -0.0734
     13 C           6.9267    0.2201    0.5142 C.cat   1  UNL1        0.3821
     14 N           6.4351    1.5253    0.2777 N.pl3   1  UNL1       -0.2889
     15 N           8.3264    0.0156    0.8083 N.pl3   1  UNL1       -0.2889
     16 C           4.0707   -1.2807   -0.7887 C.ar    1  UNL1       -0.0194
     17 C           2.7446   -1.0722   -1.0829 C.ar    1  UNL1       -0.0551
     18 P          -1.9887   -0.2337    0.0345 P.3     1  UNL1        0.4540
     19 O          -2.7283   -1.4528   -0.5267 O.2     1  UNL1       -0.2304
     20 O          -2.2097    1.0260   -1.0960 O.3     1  UNL1       -0.4144
     21 C          -2.8885    0.8380   -2.3172 C.ar    1  UNL1        0.1309
     22 C          -2.2153    0.8050   -3.5114 C.ar    1  UNL1       -0.0194
     23 C          -2.9091    0.6202   -4.6790 C.ar    1  UNL1       -0.0583
     24 C          -4.2629    0.4682   -4.6700 C.ar    1  UNL1       -0.0615
     25 C          -4.9792    0.4949   -3.4915 C.ar    1  UNL1       -0.0583
     26 C          -4.2557    0.6823   -2.3325 C.ar    1  UNL1       -0.0194
     27 O          -2.6446    0.0766    1.5504 O.3     1  UNL1       -0.4144
     28 C          -3.3888    1.1737    1.9349 C.ar    1  UNL1        0.1309
     29 C          -4.3106    1.0241    2.9531 C.ar    1  UNL1       -0.0194
     30 C          -5.0920    2.0950    3.3860 C.ar    1  UNL1       -0.0583
     31 C          -4.9623    3.3335    2.8055 C.ar    1  UNL1       -0.0615
     32 C          -4.0506    3.5113    1.7878 C.ar    1  UNL1       -0.0583
     33 C          -3.2969    2.4303    1.3875 C.ar    1  UNL1       -0.0194
     34 H           1.8479   -5.5820    1.6615 H       1  UNL1        0.0661
     35 H           0.8267   -4.6204    2.8549 H       1  UNL1        0.0661
     36 H           0.0892   -5.9949    1.9865 H       1  UNL1        0.0661
     37 H          -0.2877   -2.4159   -0.8818 H       1  UNL1        0.1530
     38 H           0.0933   -0.3875    1.3075 H       1  UNL1        0.0652
     39 H           0.3854    0.1134   -1.7189 H       1  UNL1        0.0338
     40 H           0.4827    1.2781   -0.3927 H       1  UNL1        0.0338
     41 H           2.1938    1.4547    1.1220 H       1  UNL1        0.0621
     42 H           4.5287    1.0700    1.6233 H       1  UNL1        0.0653
     43 H           5.8256    1.6854   -0.5746 H       1  UNL1        0.2547
     44 H           6.6163    2.3575    0.8672 H       1  UNL1        0.2547
     45 H           8.8131   -0.6808    0.2047 H       1  UNL1        0.2547
     46 H           8.7584    0.5513    1.5747 H       1  UNL1        0.2547
     47 H           4.6368   -2.0602   -1.3217 H       1  UNL1        0.0653
     48 H           2.2327   -1.6585   -1.8322 H       1  UNL1        0.0621
     49 H          -1.1406    0.9247   -3.5252 H       1  UNL1        0.0654
     50 H          -2.3999    0.5902   -5.6361 H       1  UNL1        0.0619
     51 H          -4.8062    0.3237   -5.5816 H       1  UNL1        0.0618
     52 H          -6.0684    0.3736   -3.4706 H       1  UNL1        0.0619
     53 H          -4.8099    0.7051   -1.3936 H       1  UNL1        0.0654
     54 H          -4.4661    0.0806    3.4550 H       1  UNL1        0.0654
     55 H          -5.8218    1.9834    4.1903 H       1  UNL1        0.0619
     56 H          -5.5657    4.1632    3.1389 H       1  UNL1        0.0618
     57 H          -3.9646    4.4891    1.3466 H       1  UNL1        0.0619
     58 H          -2.5901    2.5890    0.5921 H       1  UNL1        0.0654
@<TRIPOS>BOND
     1     1     2    1
     2     2     3    1
     3     3     4    2
     4     3     5   am
     5     5     6    1
     6     6     7    1
     7     7     8    1
     8     8     9   ar
     9     9    10   ar
    10    10    11   ar
    11    11    12    1
    12    12    13    2
    13    13    14    1
    14    13    15    1
    15    11    16   ar
    16    16    17   ar
    17     6    18    1
    18    18    19    2
    19    18    20    1
    20    20    21    1
    21    21    22   ar
    22    22    23   ar
    23    23    24   ar
    24    24    25   ar
    25    25    26   ar
    26    18    27    1
    27    27    28    1
    28    28    29   ar
    29    29    30   ar
    30    30    31   ar
    31    31    32   ar
    32    32    33   ar
    33    17     8   ar
    34    26    21   ar
    35    33    28   ar
    36     1    34    1
    37     1    35    1
    38     1    36    1
    39     5    37    1
    40     6    38    1
    41     7    39    1
    42     7    40    1
    43     9    41    1
    44    10    42    1
    45    14    43    1
    46    14    44    1
    47    15    45    1
    48    15    46    1
    49    16    47    1
    50    17    48    1
    51    22    49    1
    52    23    50    1
    53    24    51    1
    54    25    52    1
    55    26    53    1
    56    29    54    1
    57    30    55    1
    58    31    56    1
    59    32    57    1
    60    33    58    1
