
     RDKit          3D

 58 60  0  0  0  0  0  0  0  0999 V2000
    0.8563   -5.1919    1.9055 C   0  0  0  0  0  0  0  0  0  0  0  0
    0.4516   -4.2918    0.8761 O   0  0  0  0  0  0  0  0  0  0  0  0
    0.3298   -2.9395    1.0977 C   0  0  0  0  0  0  0  0  0  0  0  0
    0.5800   -2.4832    2.2284 O   0  0  0  0  0  0  0  0  0  0  0  0
   -0.0717   -2.0346    0.0880 N   0  0  0  0  0  0  0  0  0  0  0  0
   -0.2193   -0.6197    0.2489 C   0  0  0  0  0  0  0  0  0  0  0  0
    0.6331    0.2106   -0.6416 C   0  0  0  0  0  0  0  0  0  0  0  0
    2.0788   -0.0881   -0.3917 C   0  0  0  0  0  0  0  0  0  0  0  0
    2.7226    0.6618    0.5628 C   0  0  0  0  0  0  0  0  0  0  0  0
    4.0508    0.4461    0.8505 C   0  0  0  0  0  0  0  0  0  0  0  0
    4.7469   -0.5361    0.1726 C   0  0  0  0  0  0  0  0  0  0  0  0
    6.1113   -0.7672    0.4625 N   0  0  0  0  0  0  0  0  0  0  0  0
    6.9267    0.2201    0.5142 C   0  0  0  0  0  0  0  0  0  0  0  0
    6.4351    1.5253    0.2777 N   0  0  0  0  0  0  0  0  0  0  0  0
    8.3264    0.0156    0.8083 N   0  0  0  0  0  0  0  0  0  0  0  0
    4.0707   -1.2807   -0.7887 C   0  0  0  0  0  0  0  0  0  0  0  0
    2.7446   -1.0722   -1.0829 C   0  0  0  0  0  0  0  0  0  0  0  0
   -1.9887   -0.2337    0.0345 P   0  0  0  0  0  5  0  0  0  0  0  0
   -2.7283   -1.4528   -0.5267 O   0  0  0  0  0  0  0  0  0  0  0  0
   -2.2097    1.0260   -1.0960 O   0  0  0  0  0  0  0  0  0  0  0  0
   -2.8885    0.8380   -2.3172 C   0  0  0  0  0  0  0  0  0  0  0  0
   -2.2153    0.8050   -3.5114 C   0  0  0  0  0  0  0  0  0  0  0  0
   -2.9091    0.6202   -4.6790 C   0  0  0  0  0  0  0  0  0  0  0  0
   -4.2629    0.4682   -4.6700 C   0  0  0  0  0  0  0  0  0  0  0  0
   -4.9792    0.4949   -3.4915 C   0  0  0  0  0  0  0  0  0  0  0  0
   -4.2557    0.6823   -2.3325 C   0  0  0  0  0  0  0  0  0  0  0  0
   -2.6446    0.0766    1.5504 O   0  0  0  0  0  0  0  0  0  0  0  0
   -3.3888    1.1737    1.9349 C   0  0  0  0  0  0  0  0  0  0  0  0
   -4.3106    1.0241    2.9531 C   0  0  0  0  0  0  0  0  0  0  0  0
   -5.0920    2.0950    3.3860 C   0  0  0  0  0  0  0  0  0  0  0  0
   -4.9623    3.3335    2.8055 C   0  0  0  0  0  0  0  0  0  0  0  0
   -4.0506    3.5113    1.7878 C   0  0  0  0  0  0  0  0  0  0  0  0
   -3.2969    2.4303    1.3875 C   0  0  0  0  0  0  0  0  0  0  0  0
    1.8479   -5.5820    1.6615 H   0  0  0  0  0  0  0  0  0  0  0  0
    0.8267   -4.6204    2.8549 H   0  0  0  0  0  0  0  0  0  0  0  0
    0.0892   -5.9949    1.9865 H   0  0  0  0  0  0  0  0  0  0  0  0
   -0.2877   -2.4159   -0.8818 H   0  0  0  0  0  0  0  0  0  0  0  0
    0.0933   -0.3875    1.3075 H   0  0  0  0  0  0  0  0  0  0  0  0
    0.3854    0.1134   -1.7189 H   0  0  0  0  0  0  0  0  0  0  0  0
    0.4827    1.2781   -0.3927 H   0  0  0  0  0  0  0  0  0  0  0  0
    2.1938    1.4547    1.1220 H   0  0  0  0  0  0  0  0  0  0  0  0
    4.5287    1.0700    1.6233 H   0  0  0  0  0  0  0  0  0  0  0  0
    5.8256    1.6854   -0.5746 H   0  0  0  0  0  0  0  0  0  0  0  0
    6.6163    2.3575    0.8672 H   0  0  0  0  0  0  0  0  0  0  0  0
    8.8131   -0.6808    0.2047 H   0  0  0  0  0  0  0  0  0  0  0  0
    8.7584    0.5513    1.5747 H   0  0  0  0  0  0  0  0  0  0  0  0
    4.6368   -2.0602   -1.3217 H   0  0  0  0  0  0  0  0  0  0  0  0
    2.2327   -1.6585   -1.8322 H   0  0  0  0  0  0  0  0  0  0  0  0
   -1.1406    0.9247   -3.5252 H   0  0  0  0  0  0  0  0  0  0  0  0
   -2.3999    0.5902   -5.6361 H   0  0  0  0  0  0  0  0  0  0  0  0
   -4.8062    0.3237   -5.5816 H   0  0  0  0  0  0  0  0  0  0  0  0
   -6.0684    0.3736   -3.4706 H   0  0  0  0  0  0  0  0  0  0  0  0
   -4.8099    0.7051   -1.3936 H   0  0  0  0  0  0  0  0  0  0  0  0
   -4.4661    0.0806    3.4550 H   0  0  0  0  0  0  0  0  0  0  0  0
   -5.8218    1.9834    4.1903 H   0  0  0  0  0  0  0  0  0  0  0  0
   -5.5657    4.1632    3.1389 H   0  0  0  0  0  0  0  0  0  0  0  0
   -3.9646    4.4891    1.3466 H   0  0  0  0  0  0  0  0  0  0  0  0
   -2.5901    2.5890    0.5921 H   0  0  0  0  0  0  0  0  0  0  0  0
  1  2  1  0
  2  3  1  0
  3  4  2  0
  3  5  1  0
  5  6  1  0
  6  7  1  0
  7  8  1  0
  8  9  2  0
  9 10  1  0
 10 11  2  0
 11 12  1  0
 12 13  2  3
 13 14  1  0
 13 15  1  0
 11 16  1  0
 16 17  2  0
  6 18  1  0
 18 19  2  0
 18 20  1  0
 20 21  1  0
 21 22  2  0
 22 23  1  0
 23 24  2  0
 24 25  1  0
 25 26  2  0
 18 27  1  0
 27 28  1  0
 28 29  2  0
 29 30  1  0
 30 31  2  0
 31 32  1  0
 32 33  2  0
 17  8  1  0
 26 21  1  0
 33 28  1  0
  1 34  1  0
  1 35  1  0
  1 36  1  0
  5 37  1  0
  6 38  1  0
  7 39  1  0
  7 40  1  0
  9 41  1  0
 10 42  1  0
 14 43  1  0
 14 44  1  0
 15 45  1  0
 15 46  1  0
 16 47  1  0
 17 48  1  0
 22 49  1  0
 23 50  1  0
 24 51  1  0
 25 52  1  0
 26 53  1  0
 29 54  1  0
 30 55  1  0
 31 56  1  0
 32 57  1  0
 33 58  1  0
M  END
$$$$
