@<TRIPOS>MOLECULE
*****
 58 60 0 0 0
SMALL
GASTEIGER

@<TRIPOS>ATOM
      1 C          -7.0458    0.7241   -2.4332 C.3     1  UNL1       -0.0157
      2 N          -5.9507    1.4435   -1.7988 N.3     1  UNL1       -0.3178
      3 C          -6.2096    1.7125   -0.4193 C.3     1  UNL1        0.0084
      4 C          -5.1439    2.4413    0.3157 C.3     1  UNL1        0.0115
      5 N          -3.8600    1.7688    0.3637 N.3     1  UNL1       -0.3000
      6 C          -3.2389    1.7357   -0.9567 C.3     1  UNL1       -0.0124
      7 C          -4.0056    0.4222    0.8925 C.3     1  UNL1        0.0238
      8 C          -2.6615   -0.1781    1.0446 C.ar    1  UNL1       -0.0333
      9 C          -1.9476   -0.0287    2.2436 C.ar    1  UNL1       -0.0566
     10 C          -0.6964   -0.5772    2.4163 C.ar    1  UNL1       -0.0493
     11 C          -0.0855   -1.3007    1.4156 C.ar    1  UNL1        0.0370
     12 C           1.2423   -1.8592    1.6526 C.2     1  UNL1        0.2483
     13 O           1.8127   -1.7296    2.7804 O.2     1  UNL1       -0.2699
     14 N           1.9744   -2.5686    0.6650 N.am    1  UNL1       -0.2808
     15 C           3.2716   -3.1061    0.9112 C.ar    1  UNL1        0.0459
     16 C           3.4006   -4.3939    1.3823 C.ar    1  UNL1       -0.0384
     17 C           4.6551   -4.9033    1.6148 C.ar    1  UNL1       -0.0416
     18 C           5.7847   -4.1503    1.3871 C.ar    1  UNL1        0.0418
     19 CL          7.3778   -4.7821    1.6762 Cl      1  UNL1       -0.0835
     20 C           5.6075   -2.8609    0.9141 C.ar    1  UNL1       -0.0295
     21 C           4.3770   -2.3115    0.6670 C.ar    1  UNL1        0.0596
     22 C           4.1345   -0.9654    0.1759 C.2     1  UNL1        0.2511
     23 O           2.9811   -0.5211   -0.0298 O.2     1  UNL1       -0.2697
     24 N           5.2133   -0.0635   -0.1044 N.am    1  UNL1       -0.2663
     25 C           4.9492    1.2595   -0.5877 C.ar    1  UNL1        0.1252
     26 C           4.8525    1.5659   -1.9241 C.ar    1  UNL1       -0.0201
     27 C           4.5976    2.8451   -2.3791 C.ar    1  UNL1       -0.0387
     28 C           4.4356    3.8432   -1.4639 C.ar    1  UNL1        0.0592
     29 CL          4.1072    5.4865   -1.9664 Cl      1  UNL1       -0.0820
     30 C           4.5365    3.5159   -0.1115 C.ar    1  UNL1        0.0480
     31 N           4.7879    2.2499    0.3048 N.ar    1  UNL1       -0.2387
     32 C          -0.7761   -1.4545    0.2328 C.ar    1  UNL1       -0.0493
     33 C          -2.0472   -0.8986    0.0548 C.ar    1  UNL1       -0.0566
     34 H          -6.8287    0.6725   -3.5113 H       1  UNL1        0.0388
     35 H          -7.9748    1.3095   -2.2991 H       1  UNL1        0.0388
     36 H          -7.1757   -0.2883   -1.9998 H       1  UNL1        0.0388
     37 H          -5.8580    2.3473   -2.3360 H       1  UNL1        0.1217
     38 H          -6.5303    0.7807    0.1223 H       1  UNL1        0.0436
     39 H          -7.1292    2.3651   -0.3826 H       1  UNL1        0.0436
     40 H          -5.4985    2.6207    1.3524 H       1  UNL1        0.0439
     41 H          -4.9434    3.4418   -0.1499 H       1  UNL1        0.0439
     42 H          -3.4368    2.6851   -1.5032 H       1  UNL1        0.0391
     43 H          -3.6821    0.9280   -1.5338 H       1  UNL1        0.0391
     44 H          -2.1468    1.5978   -0.8751 H       1  UNL1        0.0391
     45 H          -4.6707   -0.1778    0.2340 H       1  UNL1        0.0476
     46 H          -4.4968    0.4696    1.8918 H       1  UNL1        0.0476
     47 H          -2.4320    0.5383    3.0185 H       1  UNL1        0.0621
     48 H          -0.1842   -0.4332    3.3680 H       1  UNL1        0.0625
     49 H           1.5662   -2.7126   -0.2845 H       1  UNL1        0.1552
     50 H           2.5109   -4.9924    1.5652 H       1  UNL1        0.0637
     51 H           4.7893   -5.9100    1.9823 H       1  UNL1        0.0633
     52 H           6.4875   -2.2614    0.7320 H       1  UNL1        0.0640
     53 H           6.1754   -0.4143    0.0586 H       1  UNL1        0.1566
     54 H           4.9859    0.7517   -2.6212 H       1  UNL1        0.0652
     55 H           4.5262    3.0564   -3.4422 H       1  UNL1        0.0634
     56 H           4.3999    4.3368    0.5749 H       1  UNL1        0.0845
     57 H          -0.3200   -2.0196   -0.5720 H       1  UNL1        0.0625
     58 H          -2.5637   -1.0521   -0.9031 H       1  UNL1        0.0621
@<TRIPOS>BOND
     1     1     2    1
     2     2     3    1
     3     3     4    1
     4     4     5    1
     5     5     6    1
     6     5     7    1
     7     7     8    1
     8     8     9   ar
     9     9    10   ar
    10    10    11   ar
    11    11    12    1
    12    12    13    2
    13    12    14   am
    14    14    15    1
    15    15    16   ar
    16    16    17   ar
    17    17    18   ar
    18    18    19    1
    19    18    20   ar
    20    20    21   ar
    21    21    22    1
    22    22    23    2
    23    22    24   am
    24    24    25    1
    25    25    26   ar
    26    26    27   ar
    27    27    28   ar
    28    28    29    1
    29    28    30   ar
    30    30    31   ar
    31    11    32   ar
    32    32    33   ar
    33    33     8   ar
    34    21    15   ar
    35    31    25   ar
    36     1    34    1
    37     1    35    1
    38     1    36    1
    39     2    37    1
    40     3    38    1
    41     3    39    1
    42     4    40    1
    43     4    41    1
    44     6    42    1
    45     6    43    1
    46     6    44    1
    47     7    45    1
    48     7    46    1
    49     9    47    1
    50    10    48    1
    51    14    49    1
    52    16    50    1
    53    17    51    1
    54    20    52    1
    55    24    53    1
    56    26    54    1
    57    27    55    1
    58    30    56    1
    59    32    57    1
    60    33    58    1
