
     RDKit          3D

 50 53  0  0  0  0  0  0  0  0999 V2000
   -5.2699    2.8973   -0.9063 C   0  0  0  0  0  0  0  0  0  0  0  0
   -5.1395    1.6892   -0.1873 O   0  0  0  0  0  0  0  0  0  0  0  0
   -3.9018    1.0298   -0.0909 C   0  0  0  0  0  0  0  0  0  0  0  0
   -2.7633    1.5237   -0.6878 C   0  0  0  0  0  0  0  0  0  0  0  0
   -1.5450    0.8751   -0.5932 C   0  0  0  0  0  0  0  0  0  0  0  0
   -1.4527   -0.2961    0.1130 C   0  0  0  0  0  0  0  0  0  0  0  0
   -0.1252   -0.9506    0.1825 C   0  0  0  0  0  0  0  0  0  0  0  0
    0.8797   -0.1025    0.8996 C   0  0  0  0  0  0  0  0  0  0  0  0
    0.7017    0.1936    2.2342 C   0  0  0  0  0  0  0  0  0  0  0  0
    1.6382    0.9780    2.8853 C   0  0  0  0  0  0  0  0  0  0  0  0
    2.7205    1.4371    2.1720 C   0  0  0  0  0  0  0  0  0  0  0  0
    2.9279    1.1594    0.8373 C   0  0  0  0  0  0  0  0  0  0  0  0
    4.0947    1.6649    0.1041 C   0  0  0  0  0  0  0  0  0  0  0  0
    4.6420    0.9350   -0.9431 C   0  0  0  0  0  0  0  0  0  0  0  0
    5.7114    1.4101   -1.6063 N   0  0  0  0  0  0  0  0  0  0  0  0
    6.2941    2.5840   -1.3022 C   0  0  0  0  0  0  0  0  0  0  0  0
    5.7703    3.2989   -0.2880 N   0  0  0  0  0  0  0  0  0  0  0  0
    4.6989    2.8664    0.4079 C   0  0  0  0  0  0  0  0  0  0  0  0
    1.9775    0.3742    0.2122 C   0  0  0  0  0  0  0  0  0  0  0  0
    0.3008   -1.1912   -1.1792 N   0  0  0  0  0  0  0  0  0  0  0  0
    0.5026   -2.4478   -1.3987 C   0  0  0  0  0  0  0  0  0  0  0  0
    0.9273   -2.9665   -2.6519 N   0  0  0  0  0  0  0  0  0  0  0  0
    0.2432   -3.2167   -0.2294 N   0  0  0  0  0  0  0  0  0  0  0  0
    0.3627   -4.6611   -0.0981 C   0  0  0  0  0  0  0  0  0  0  0  0
   -0.1521   -2.2908    0.7717 C   0  0  0  0  0  0  0  0  0  0  0  0
   -0.4629   -2.6434    1.9605 O   0  0  0  0  0  0  0  0  0  0  0  0
   -2.5691   -0.8103    0.7169 C   0  0  0  0  0  0  0  0  0  0  0  0
   -3.7809   -0.1486    0.6124 C   0  0  0  0  0  0  0  0  0  0  0  0
   -5.0063   -0.6828    1.2563 C   0  0  0  0  0  0  0  0  0  0  0  0
   -6.2019    3.3847   -0.5375 H   0  0  0  0  0  0  0  0  0  0  0  0
   -4.4393    3.5743   -0.6424 H   0  0  0  0  0  0  0  0  0  0  0  0
   -5.3820    2.7382   -2.0000 H   0  0  0  0  0  0  0  0  0  0  0  0
   -2.8322    2.4547   -1.2501 H   0  0  0  0  0  0  0  0  0  0  0  0
   -0.6572    1.2984   -1.0825 H   0  0  0  0  0  0  0  0  0  0  0  0
   -0.1515   -0.1697    2.7914 H   0  0  0  0  0  0  0  0  0  0  0  0
    1.4933    1.2105    3.9438 H   0  0  0  0  0  0  0  0  0  0  0  0
    3.4375    2.0490    2.7076 H   0  0  0  0  0  0  0  0  0  0  0  0
    4.1679   -0.0077   -1.1818 H   0  0  0  0  0  0  0  0  0  0  0  0
    7.1608    2.9215   -1.8739 H   0  0  0  0  0  0  0  0  0  0  0  0
    4.2974    3.4680    1.2242 H   0  0  0  0  0  0  0  0  0  0  0  0
    2.0666    0.1104   -0.8341 H   0  0  0  0  0  0  0  0  0  0  0  0
    0.2569   -2.9405   -3.4452 H   0  0  0  0  0  0  0  0  0  0  0  0
    1.8768   -3.3554   -2.7593 H   0  0  0  0  0  0  0  0  0  0  0  0
    1.1145   -4.9490    0.6643 H   0  0  0  0  0  0  0  0  0  0  0  0
   -0.5983   -5.1237    0.2042 H   0  0  0  0  0  0  0  0  0  0  0  0
    0.6704   -5.0784   -1.0667 H   0  0  0  0  0  0  0  0  0  0  0  0
   -2.5025   -1.7319    1.2740 H   0  0  0  0  0  0  0  0  0  0  0  0
   -5.8295   -0.5826    0.4981 H   0  0  0  0  0  0  0  0  0  0  0  0
   -4.8821   -1.7354    1.5417 H   0  0  0  0  0  0  0  0  0  0  0  0
   -5.2900   -0.0437    2.1242 H   0  0  0  0  0  0  0  0  0  0  0  0
  1  2  1  0
  2  3  1  0
  3  4  2  0
  4  5  1  0
  5  6  2  0
  6  7  1  0
  7  8  1  0
  8  9  2  0
  9 10  1  0
 10 11  2  0
 11 12  1  0
 12 13  1  0
 13 14  2  0
 14 15  1  0
 15 16  2  0
 16 17  1  0
 17 18  2  0
 12 19  2  0
  7 20  1  0
 20 21  2  0
 21 22  1  0
 21 23  1  0
 23 24  1  0
 23 25  1  0
 25 26  2  0
  6 27  1  0
 27 28  2  0
 28 29  1  0
 28  3  1  0
 25  7  1  0
 19  8  1  0
 18 13  1  0
  1 30  1  0
  1 31  1  0
  1 32  1  0
  4 33  1  0
  5 34  1  0
  9 35  1  0
 10 36  1  0
 11 37  1  0
 14 38  1  0
 16 39  1  0
 18 40  1  0
 19 41  1  0
 22 42  1  0
 22 43  1  0
 24 44  1  0
 24 45  1  0
 24 46  1  0
 27 47  1  0
 29 48  1  0
 29 49  1  0
 29 50  1  0
M  END
$$$$
