@<TRIPOS>MOLECULE
*****
 50 53 0 0 0
SMALL
GASTEIGER

@<TRIPOS>ATOM
      1 C          -5.2699    2.8973   -0.9063 C.3     1  UNL1        0.0788
      2 O          -5.1395    1.6892   -0.1873 O.3     1  UNL1       -0.4948
      3 C          -3.9018    1.0298   -0.0909 C.ar    1  UNL1        0.1230
      4 C          -2.7633    1.5237   -0.6878 C.ar    1  UNL1       -0.0193
      5 C          -1.5450    0.8751   -0.5932 C.ar    1  UNL1       -0.0506
      6 C          -1.4527   -0.2961    0.1130 C.ar    1  UNL1        0.0111
      7 C          -0.1252   -0.9506    0.1825 C.3     1  UNL1        0.2646
      8 C           0.8797   -0.1025    0.8996 C.ar    1  UNL1        0.0112
      9 C           0.7017    0.1936    2.2342 C.ar    1  UNL1       -0.0540
     10 C           1.6382    0.9780    2.8853 C.ar    1  UNL1       -0.0608
     11 C           2.7205    1.4371    2.1720 C.ar    1  UNL1       -0.0539
     12 C           2.9279    1.1594    0.8373 C.ar    1  UNL1       -0.0146
     13 C           4.0947    1.6649    0.1041 C.ar    1  UNL1        0.0183
     14 C           4.6420    0.9350   -0.9431 C.ar    1  UNL1        0.0385
     15 N           5.7114    1.4101   -1.6063 N.ar    1  UNL1       -0.2431
     16 C           6.2941    2.5840   -1.3022 C.ar    1  UNL1        0.1159
     17 N           5.7703    3.2989   -0.2880 N.ar    1  UNL1       -0.2431
     18 C           4.6989    2.8664    0.4079 C.ar    1  UNL1        0.0385
     19 C           1.9775    0.3742    0.2122 C.ar    1  UNL1       -0.0462
     20 N           0.3008   -1.1912   -1.1792 N.2     1  UNL1       -0.0891
     21 C           0.5026   -2.4478   -1.3987 C.2     1  UNL1        0.3731
     22 N           0.9273   -2.9665   -2.6519 N.pl3   1  UNL1       -0.2512
     23 N           0.2432   -3.2167   -0.2294 N.am    1  UNL1       -0.1614
     24 C           0.3627   -4.6611   -0.0981 C.3     1  UNL1        0.0573
     25 C          -0.1521   -2.2908    0.7717 C.2     1  UNL1        0.3303
     26 O          -0.4629   -2.6434    1.9605 O.2     1  UNL1       -0.2520
     27 C          -2.5691   -0.8103    0.7169 C.ar    1  UNL1       -0.0476
     28 C          -3.7809   -0.1486    0.6124 C.ar    1  UNL1       -0.0084
     29 C          -5.0063   -0.6828    1.2563 C.3     1  UNL1       -0.0362
     30 H          -6.2019    3.3847   -0.5375 H       1  UNL1        0.0660
     31 H          -4.4393    3.5743   -0.6424 H       1  UNL1        0.0660
     32 H          -5.3820    2.7382   -2.0000 H       1  UNL1        0.0660
     33 H          -2.8322    2.4547   -1.2501 H       1  UNL1        0.0654
     34 H          -0.6572    1.2984   -1.0825 H       1  UNL1        0.0623
     35 H          -0.1515   -0.1697    2.7914 H       1  UNL1        0.0622
     36 H           1.4933    1.2105    3.9438 H       1  UNL1        0.0618
     37 H           3.4375    2.0490    2.7076 H       1  UNL1        0.0624
     38 H           4.1679   -0.0077   -1.1818 H       1  UNL1        0.0837
     39 H           7.1608    2.9215   -1.8739 H       1  UNL1        0.1047
     40 H           4.2974    3.4680    1.2242 H       1  UNL1        0.0837
     41 H           2.0666    0.1104   -0.8341 H       1  UNL1        0.0628
     42 H           0.2569   -2.9405   -3.4452 H       1  UNL1        0.2412
     43 H           1.8768   -3.3554   -2.7593 H       1  UNL1        0.2412
     44 H           1.1145   -4.9490    0.6643 H       1  UNL1        0.0602
     45 H          -0.5983   -5.1237    0.2042 H       1  UNL1        0.0602
     46 H           0.6704   -5.0784   -1.0667 H       1  UNL1        0.0602
     47 H          -2.5025   -1.7319    1.2740 H       1  UNL1        0.0625
     48 H          -5.8295   -0.5826    0.4981 H       1  UNL1        0.0279
     49 H          -4.8821   -1.7354    1.5417 H       1  UNL1        0.0279
     50 H          -5.2900   -0.0437    2.1242 H       1  UNL1        0.0279
@<TRIPOS>BOND
     1     1     2    1
     2     2     3    1
     3     3     4   ar
     4     4     5   ar
     5     5     6   ar
     6     6     7    1
     7     7     8    1
     8     8     9   ar
     9     9    10   ar
    10    10    11   ar
    11    11    12   ar
    12    12    13    1
    13    13    14   ar
    14    14    15   ar
    15    15    16   ar
    16    16    17   ar
    17    17    18   ar
    18    12    19   ar
    19     7    20    1
    20    20    21    2
    21    21    22    1
    22    21    23    1
    23    23    24    1
    24    23    25   am
    25    25    26    2
    26     6    27   ar
    27    27    28   ar
    28    28    29    1
    29    28     3   ar
    30    25     7    1
    31    19     8   ar
    32    18    13   ar
    33     1    30    1
    34     1    31    1
    35     1    32    1
    36     4    33    1
    37     5    34    1
    38     9    35    1
    39    10    36    1
    40    11    37    1
    41    14    38    1
    42    16    39    1
    43    18    40    1
    44    19    41    1
    45    22    42    1
    46    22    43    1
    47    24    44    1
    48    24    45    1
    49    24    46    1
    50    27    47    1
    51    29    48    1
    52    29    49    1
    53    29    50    1
