@<TRIPOS>MOLECULE
*****
 42 43 0 0 0
SMALL
GASTEIGER

@<TRIPOS>ATOM
      1 C          -4.7973    0.8173    1.0382 C.3     1  UNL1       -0.0607
      2 C          -4.2753    0.8793   -0.3771 C.3     1  UNL1       -0.0194
      3 C          -4.8050   -0.3532   -1.0984 C.3     1  UNL1       -0.0607
      4 C          -2.7882    0.8683   -0.4782 C.3     1  UNL1        0.1276
      5 N          -2.4270    0.9324   -1.8743 N.3     1  UNL1       -0.1759
      6 S          -1.4942   -0.3834   -2.4262 S.O2    1  UNL1        0.0591
      7 O          -1.1795   -0.1535   -3.8908 O.2     1  UNL1       -0.1530
      8 O          -2.2151   -1.6861   -2.3511 O.2     1  UNL1       -0.1530
      9 C           0.0340   -0.4883   -1.5849 C.ar    1  UNL1        0.1053
     10 C           0.1865   -1.2287   -0.4378 C.ar    1  UNL1       -0.0348
     11 C           1.3999   -1.3063    0.2199 C.ar    1  UNL1       -0.0522
     12 C           2.5133   -0.6415   -0.2487 C.ar    1  UNL1       -0.0178
     13 C           3.8183   -0.7014    0.4199 C.ar    1  UNL1       -0.0178
     14 C           4.1884   -1.8458    1.0942 C.ar    1  UNL1       -0.0530
     15 C           5.4199   -1.9430    1.7415 C.ar    1  UNL1       -0.0472
     16 C           6.2819   -0.8658    1.7020 C.ar    1  UNL1        0.0179
     17 BR          7.9646   -0.9967    2.5852 Br      1  UNL1       -0.0503
     18 C           5.9218    0.2764    1.0337 C.ar    1  UNL1       -0.0472
     19 C           4.6971    0.3701    0.3912 C.ar    1  UNL1       -0.0530
     20 C           2.3579    0.1010   -1.3999 C.ar    1  UNL1       -0.0522
     21 C           1.1569    0.1881   -2.0659 C.ar    1  UNL1       -0.0348
     22 C          -2.1397    1.9712    0.2699 C.2     1  UNL1        0.3238
     23 O          -1.3949    2.8343   -0.2280 O.2     1  UNL1       -0.2492
     24 O          -2.3863    2.0419    1.6338 O.3     1  UNL1       -0.4795
     25 H          -5.9110    0.6481    0.9412 H       1  UNL1        0.0233
     26 H          -4.7027    1.7626    1.5916 H       1  UNL1        0.0233
     27 H          -4.4318   -0.0697    1.5961 H       1  UNL1        0.0233
     28 H          -4.7167    1.7596   -0.8628 H       1  UNL1        0.0316
     29 H          -4.3514   -1.2760   -0.6762 H       1  UNL1        0.0233
     30 H          -4.5958   -0.3334   -2.1816 H       1  UNL1        0.0233
     31 H          -5.9204   -0.4032   -0.9817 H       1  UNL1        0.0233
     32 H          -2.3663   -0.0667   -0.0685 H       1  UNL1        0.0595
     33 H          -2.0471    1.8452   -2.1546 H       1  UNL1        0.1489
     34 H          -0.6713   -1.7613   -0.0477 H       1  UNL1        0.0637
     35 H           1.4917   -1.8958    1.1201 H       1  UNL1        0.0624
     36 H           3.5312   -2.7204    1.1469 H       1  UNL1        0.0624
     37 H           5.6981   -2.8450    2.2663 H       1  UNL1        0.0629
     38 H           6.6223    1.1133    1.0190 H       1  UNL1        0.0629
     39 H           4.3977    1.2667   -0.1412 H       1  UNL1        0.0624
     40 H           3.2378    0.6381   -1.7868 H       1  UNL1        0.0624
     41 H           1.0425    0.7681   -2.9625 H       1  UNL1        0.0637
     42 H          -2.3448    2.8834    2.1767 H       1  UNL1        0.2951
@<TRIPOS>BOND
     1     1     2    1
     2     2     3    1
     3     2     4    1
     4     4     5    1
     5     5     6    1
     6     6     7    2
     7     6     8    2
     8     6     9    1
     9     9    10   ar
    10    10    11   ar
    11    11    12   ar
    12    12    13    1
    13    13    14   ar
    14    14    15   ar
    15    15    16   ar
    16    16    17    1
    17    16    18   ar
    18    18    19   ar
    19    12    20   ar
    20    20    21   ar
    21     4    22    1
    22    22    23    2
    23    22    24    1
    24    21     9   ar
    25    19    13   ar
    26     1    25    1
    27     1    26    1
    28     1    27    1
    29     2    28    1
    30     3    29    1
    31     3    30    1
    32     3    31    1
    33     4    32    1
    34     5    33    1
    35    10    34    1
    36    11    35    1
    37    14    36    1
    38    15    37    1
    39    18    38    1
    40    19    39    1
    41    20    40    1
    42    21    41    1
    43    24    42    1
