
     RDKit          3D

 42 43  0  0  0  0  0  0  0  0999 V2000
   -4.7973    0.8173    1.0382 C   0  0  0  0  0  0  0  0  0  0  0  0
   -4.2753    0.8793   -0.3771 C   0  0  0  0  0  0  0  0  0  0  0  0
   -4.8050   -0.3532   -1.0984 C   0  0  0  0  0  0  0  0  0  0  0  0
   -2.7882    0.8683   -0.4782 C   0  0  1  0  0  0  0  0  0  0  0  0
   -2.4270    0.9324   -1.8743 N   0  0  0  0  0  0  0  0  0  0  0  0
   -1.4942   -0.3834   -2.4262 S   0  0  0  0  0  6  0  0  0  0  0  0
   -1.1795   -0.1535   -3.8908 O   0  0  0  0  0  0  0  0  0  0  0  0
   -2.2151   -1.6861   -2.3511 O   0  0  0  0  0  0  0  0  0  0  0  0
    0.0340   -0.4883   -1.5849 C   0  0  0  0  0  0  0  0  0  0  0  0
    0.1865   -1.2287   -0.4378 C   0  0  0  0  0  0  0  0  0  0  0  0
    1.3999   -1.3063    0.2199 C   0  0  0  0  0  0  0  0  0  0  0  0
    2.5133   -0.6415   -0.2487 C   0  0  0  0  0  0  0  0  0  0  0  0
    3.8183   -0.7014    0.4199 C   0  0  0  0  0  0  0  0  0  0  0  0
    4.1884   -1.8458    1.0942 C   0  0  0  0  0  0  0  0  0  0  0  0
    5.4199   -1.9430    1.7415 C   0  0  0  0  0  0  0  0  0  0  0  0
    6.2819   -0.8658    1.7020 C   0  0  0  0  0  0  0  0  0  0  0  0
    7.9646   -0.9967    2.5852 Br  0  0  0  0  0  0  0  0  0  0  0  0
    5.9218    0.2764    1.0337 C   0  0  0  0  0  0  0  0  0  0  0  0
    4.6971    0.3701    0.3912 C   0  0  0  0  0  0  0  0  0  0  0  0
    2.3579    0.1010   -1.3999 C   0  0  0  0  0  0  0  0  0  0  0  0
    1.1569    0.1881   -2.0659 C   0  0  0  0  0  0  0  0  0  0  0  0
   -2.1397    1.9712    0.2699 C   0  0  0  0  0  0  0  0  0  0  0  0
   -1.3949    2.8343   -0.2280 O   0  0  0  0  0  0  0  0  0  0  0  0
   -2.3863    2.0419    1.6338 O   0  0  0  0  0  0  0  0  0  0  0  0
   -5.9110    0.6481    0.9412 H   0  0  0  0  0  0  0  0  0  0  0  0
   -4.7027    1.7626    1.5916 H   0  0  0  0  0  0  0  0  0  0  0  0
   -4.4318   -0.0697    1.5961 H   0  0  0  0  0  0  0  0  0  0  0  0
   -4.7167    1.7596   -0.8628 H   0  0  0  0  0  0  0  0  0  0  0  0
   -4.3514   -1.2760   -0.6762 H   0  0  0  0  0  0  0  0  0  0  0  0
   -4.5958   -0.3334   -2.1816 H   0  0  0  0  0  0  0  0  0  0  0  0
   -5.9204   -0.4032   -0.9817 H   0  0  0  0  0  0  0  0  0  0  0  0
   -2.3663   -0.0667   -0.0685 H   0  0  0  0  0  0  0  0  0  0  0  0
   -2.0471    1.8452   -2.1546 H   0  0  0  0  0  0  0  0  0  0  0  0
   -0.6713   -1.7613   -0.0477 H   0  0  0  0  0  0  0  0  0  0  0  0
    1.4917   -1.8958    1.1201 H   0  0  0  0  0  0  0  0  0  0  0  0
    3.5312   -2.7204    1.1469 H   0  0  0  0  0  0  0  0  0  0  0  0
    5.6981   -2.8450    2.2663 H   0  0  0  0  0  0  0  0  0  0  0  0
    6.6223    1.1133    1.0190 H   0  0  0  0  0  0  0  0  0  0  0  0
    4.3977    1.2667   -0.1412 H   0  0  0  0  0  0  0  0  0  0  0  0
    3.2378    0.6381   -1.7868 H   0  0  0  0  0  0  0  0  0  0  0  0
    1.0425    0.7681   -2.9625 H   0  0  0  0  0  0  0  0  0  0  0  0
   -2.3448    2.8834    2.1767 H   0  0  0  0  0  0  0  0  0  0  0  0
  1  2  1  0
  2  3  1  0
  2  4  1  0
  4  5  1  0
  5  6  1  0
  6  7  2  0
  6  8  2  0
  6  9  1  0
  9 10  2  0
 10 11  1  0
 11 12  2  0
 12 13  1  0
 13 14  2  0
 14 15  1  0
 15 16  2  0
 16 17  1  0
 16 18  1  0
 18 19  2  0
 12 20  1  0
 20 21  2  0
  4 22  1  0
 22 23  2  0
 22 24  1  0
 21  9  1  0
 19 13  1  0
  1 25  1  0
  1 26  1  0
  1 27  1  0
  2 28  1  0
  3 29  1  0
  3 30  1  0
  3 31  1  0
  4 32  1  1
  5 33  1  0
 10 34  1  0
 11 35  1  0
 14 36  1  0
 15 37  1  0
 18 38  1  0
 19 39  1  0
 20 40  1  0
 21 41  1  0
 24 42  1  0
M  END
$$$$
