@<TRIPOS>MOLECULE
*****
 66 71 0 0 0
SMALL
GASTEIGER

@<TRIPOS>ATOM
      1 C          -9.9069    3.1238   -2.1109 C.3     1  UNL1       -0.0209
      2 C          -8.5544    2.5529   -1.9054 C.ar    1  UNL1        0.0563
      3 C          -8.1672    1.2511   -1.6972 C.ar    1  UNL1        0.0322
      4 N          -6.8348    1.1777   -1.5589 N.ar    1  UNL1       -0.3055
      5 C          -6.0023    0.0435   -1.3298 C.ar    1  UNL1        0.0497
      6 C          -4.7799    0.2332   -0.6763 C.ar    1  UNL1       -0.0165
      7 C          -3.9558   -0.8470   -0.4423 C.ar    1  UNL1        0.0362
      8 N          -2.7082   -0.6816    0.2198 N.am    1  UNL1       -0.2814
      9 C          -2.5587   -0.7704    1.6263 C.2     1  UNL1        0.2483
     10 O          -3.6045   -1.0078    2.2789 O.2     1  UNL1       -0.2699
     11 C          -1.3090   -0.6096    2.3482 C.ar    1  UNL1        0.0376
     12 C          -1.3320   -0.7268    3.7236 C.ar    1  UNL1       -0.0493
     13 C          -0.1750   -0.5827    4.4478 C.ar    1  UNL1       -0.0576
     14 C           1.0339   -0.3138    3.7642 C.ar    1  UNL1       -0.0432
     15 C           2.2263   -0.0961    4.6100 C.3     1  UNL1       -0.0392
     16 C           1.1142   -0.1914    2.4123 C.ar    1  UNL1       -0.0200
     17 C           2.2794   -0.0144    1.5796 C.2     1  UNL1       -0.0377
     18 C           3.5329   -0.1536    1.8647 C.2     1  UNL1        0.0132
     19 N           4.5860    0.0731    0.8947 N.ar    1  UNL1       -0.2899
     20 C           4.4221    0.4390   -0.3685 C.ar    1  UNL1        0.1024
     21 N           5.6570    0.5458   -0.9443 N.ar    1  UNL1       -0.2303
     22 C           6.5975    0.2454   -0.0373 C.ar    1  UNL1        0.1478
     23 C           7.9711    0.1976   -0.0968 C.ar    1  UNL1        0.1499
     24 N           8.7275    0.4892   -1.2344 N.pl3   1  UNL1       -0.3244
     25 C           8.0926    0.8897   -2.4700 C.3     1  UNL1        0.0221
     26 C           8.9777    1.1306   -3.6445 C.3     1  UNL1       -0.0329
     27 C           8.1080   -0.0826   -3.5806 C.3     1  UNL1       -0.0329
     28 N           8.6072   -0.1608    1.0568 N.ar    1  UNL1       -0.2186
     29 C           7.9432   -0.4521    2.1903 C.ar    1  UNL1        0.1205
     30 N           6.5809   -0.3967    2.2216 N.ar    1  UNL1       -0.2157
     31 C           5.9056   -0.0501    1.1155 C.ar    1  UNL1        0.1693
     32 C          -0.1204   -0.3511    1.7325 C.ar    1  UNL1       -0.0422
     33 C          -4.3671   -2.1033   -0.8659 C.ar    1  UNL1       -0.0287
     34 C          -5.5585   -2.3150   -1.5074 C.ar    1  UNL1        0.0585
     35 C          -5.9640   -3.6748   -1.9457 C.3     1  UNL1        0.4175
     36 F          -7.3266   -3.8616   -1.8845 F       1  UNL1       -0.1659
     37 F          -5.3955   -4.5749   -1.0529 F       1  UNL1       -0.1659
     38 F          -5.4626   -3.9875   -3.1940 F       1  UNL1       -0.1659
     39 C          -6.3725   -1.2319   -1.7358 C.ar    1  UNL1       -0.0261
     40 C          -6.3955    2.4509   -1.6835 C.ar    1  UNL1        0.1007
     41 N          -7.4235    3.2809   -1.8916 N.ar    1  UNL1       -0.2406
     42 H          -9.8913    3.9688   -2.8572 H       1  UNL1        0.0293
     43 H         -10.5727    2.3432   -2.5702 H       1  UNL1        0.0293
     44 H         -10.3960    3.4328   -1.1669 H       1  UNL1        0.0293
     45 H          -8.8214    0.4016   -1.6490 H       1  UNL1        0.0831
     46 H          -4.4958    1.2312   -0.3614 H       1  UNL1        0.0657
     47 H          -1.8624   -0.4864   -0.3467 H       1  UNL1        0.1551
     48 H          -2.2624   -0.9321    4.2287 H       1  UNL1        0.0625
     49 H          -0.1843   -0.6725    5.5209 H       1  UNL1        0.0621
     50 H           2.8123    0.7713    4.2839 H       1  UNL1        0.0278
     51 H           2.8606   -0.9754    4.7501 H       1  UNL1        0.0278
     52 H           1.8269    0.2430    5.6253 H       1  UNL1        0.0278
     53 H           2.1123    0.3052    0.5159 H       1  UNL1        0.0638
     54 H           3.8259   -0.4834    2.8304 H       1  UNL1        0.0814
     55 H           3.4903    0.6278   -0.8831 H       1  UNL1        0.1033
     56 H           9.7807    0.4126   -1.1799 H       1  UNL1        0.1478
     57 H           7.2351    1.5972   -2.3119 H       1  UNL1        0.0498
     58 H           8.7491    1.9407   -4.3673 H       1  UNL1        0.0284
     59 H          10.0581    0.9918   -3.4687 H       1  UNL1        0.0284
     60 H           7.1824   -0.0998   -4.2056 H       1  UNL1        0.0284
     61 H           8.5560   -1.0859   -3.4641 H       1  UNL1        0.0284
     62 H           8.4413   -0.7321    3.0916 H       1  UNL1        0.1048
     63 H          -0.1231   -0.2626    0.6429 H       1  UNL1        0.0631
     64 H          -3.7110   -2.9204   -0.6722 H       1  UNL1        0.0642
     65 H          -7.3351   -1.3132   -2.2387 H       1  UNL1        0.0644
     66 H          -5.3636    2.8101   -1.6309 H       1  UNL1        0.1032
@<TRIPOS>BOND
     1     1     2    1
     2     2     3   ar
     3     3     4   ar
     4     4     5    1
     5     5     6   ar
     6     6     7   ar
     7     7     8    1
     8     8     9   am
     9     9    10    2
    10     9    11    1
    11    11    12   ar
    12    12    13   ar
    13    13    14   ar
    14    14    15    1
    15    14    16   ar
    16    16    17    1
    17    17    18    2
    18    18    19    1
    19    19    20   ar
    20    20    21   ar
    21    21    22   ar
    22    22    23   ar
    23    23    24    1
    24    24    25    1
    25    25    26    1
    26    26    27    1
    27    23    28   ar
    28    28    29   ar
    29    29    30   ar
    30    30    31   ar
    31    16    32   ar
    32     7    33   ar
    33    33    34   ar
    34    34    35    1
    35    35    36    1
    36    35    37    1
    37    35    38    1
    38    34    39   ar
    39     4    40   ar
    40    40    41   ar
    41    41     2   ar
    42    39     5   ar
    43    32    11   ar
    44    31    19   ar
    45    31    22   ar
    46    27    25    1
    47     1    42    1
    48     1    43    1
    49     1    44    1
    50     3    45    1
    51     6    46    1
    52     8    47    1
    53    12    48    1
    54    13    49    1
    55    15    50    1
    56    15    51    1
    57    15    52    1
    58    17    53    1
    59    18    54    1
    60    20    55    1
    61    24    56    1
    62    25    57    1
    63    26    58    1
    64    26    59    1
    65    27    60    1
    66    27    61    1
    67    29    62    1
    68    32    63    1
    69    33    64    1
    70    39    65    1
    71    40    66    1
