
     RDKit          3D

 66 71  0  0  0  0  0  0  0  0999 V2000
   -9.9069    3.1238   -2.1109 C   0  0  0  0  0  0  0  0  0  0  0  0
   -8.5544    2.5529   -1.9054 C   0  0  0  0  0  0  0  0  0  0  0  0
   -8.1672    1.2511   -1.6972 C   0  0  0  0  0  0  0  0  0  0  0  0
   -6.8348    1.1777   -1.5589 N   0  0  0  0  0  0  0  0  0  0  0  0
   -6.0023    0.0435   -1.3298 C   0  0  0  0  0  0  0  0  0  0  0  0
   -4.7799    0.2332   -0.6763 C   0  0  0  0  0  0  0  0  0  0  0  0
   -3.9558   -0.8470   -0.4423 C   0  0  0  0  0  0  0  0  0  0  0  0
   -2.7082   -0.6816    0.2198 N   0  0  0  0  0  0  0  0  0  0  0  0
   -2.5587   -0.7704    1.6263 C   0  0  0  0  0  0  0  0  0  0  0  0
   -3.6045   -1.0078    2.2789 O   0  0  0  0  0  0  0  0  0  0  0  0
   -1.3090   -0.6096    2.3482 C   0  0  0  0  0  0  0  0  0  0  0  0
   -1.3320   -0.7268    3.7236 C   0  0  0  0  0  0  0  0  0  0  0  0
   -0.1750   -0.5827    4.4478 C   0  0  0  0  0  0  0  0  0  0  0  0
    1.0339   -0.3138    3.7642 C   0  0  0  0  0  0  0  0  0  0  0  0
    2.2263   -0.0961    4.6100 C   0  0  0  0  0  0  0  0  0  0  0  0
    1.1142   -0.1914    2.4123 C   0  0  0  0  0  0  0  0  0  0  0  0
    2.2794   -0.0144    1.5796 C   0  0  0  0  0  0  0  0  0  0  0  0
    3.5329   -0.1536    1.8647 C   0  0  0  0  0  0  0  0  0  0  0  0
    4.5860    0.0731    0.8947 N   0  0  0  0  0  0  0  0  0  0  0  0
    4.4221    0.4390   -0.3685 C   0  0  0  0  0  0  0  0  0  0  0  0
    5.6570    0.5458   -0.9443 N   0  0  0  0  0  0  0  0  0  0  0  0
    6.5975    0.2454   -0.0373 C   0  0  0  0  0  0  0  0  0  0  0  0
    7.9711    0.1976   -0.0968 C   0  0  0  0  0  0  0  0  0  0  0  0
    8.7275    0.4892   -1.2344 N   0  0  0  0  0  0  0  0  0  0  0  0
    8.0926    0.8897   -2.4700 C   0  0  0  0  0  0  0  0  0  0  0  0
    8.9777    1.1306   -3.6445 C   0  0  0  0  0  0  0  0  0  0  0  0
    8.1080   -0.0826   -3.5806 C   0  0  0  0  0  0  0  0  0  0  0  0
    8.6072   -0.1608    1.0568 N   0  0  0  0  0  0  0  0  0  0  0  0
    7.9432   -0.4521    2.1903 C   0  0  0  0  0  0  0  0  0  0  0  0
    6.5809   -0.3967    2.2216 N   0  0  0  0  0  0  0  0  0  0  0  0
    5.9056   -0.0501    1.1155 C   0  0  0  0  0  0  0  0  0  0  0  0
   -0.1204   -0.3511    1.7325 C   0  0  0  0  0  0  0  0  0  0  0  0
   -4.3671   -2.1033   -0.8659 C   0  0  0  0  0  0  0  0  0  0  0  0
   -5.5585   -2.3150   -1.5074 C   0  0  0  0  0  0  0  0  0  0  0  0
   -5.9640   -3.6748   -1.9457 C   0  0  0  0  0  0  0  0  0  0  0  0
   -7.3266   -3.8616   -1.8845 F   0  0  0  0  0  0  0  0  0  0  0  0
   -5.3955   -4.5749   -1.0529 F   0  0  0  0  0  0  0  0  0  0  0  0
   -5.4626   -3.9875   -3.1940 F   0  0  0  0  0  0  0  0  0  0  0  0
   -6.3725   -1.2319   -1.7358 C   0  0  0  0  0  0  0  0  0  0  0  0
   -6.3955    2.4509   -1.6835 C   0  0  0  0  0  0  0  0  0  0  0  0
   -7.4235    3.2809   -1.8916 N   0  0  0  0  0  0  0  0  0  0  0  0
   -9.8913    3.9688   -2.8572 H   0  0  0  0  0  0  0  0  0  0  0  0
  -10.5727    2.3432   -2.5702 H   0  0  0  0  0  0  0  0  0  0  0  0
  -10.3960    3.4328   -1.1669 H   0  0  0  0  0  0  0  0  0  0  0  0
   -8.8214    0.4016   -1.6490 H   0  0  0  0  0  0  0  0  0  0  0  0
   -4.4958    1.2312   -0.3614 H   0  0  0  0  0  0  0  0  0  0  0  0
   -1.8624   -0.4864   -0.3467 H   0  0  0  0  0  0  0  0  0  0  0  0
   -2.2624   -0.9321    4.2287 H   0  0  0  0  0  0  0  0  0  0  0  0
   -0.1843   -0.6725    5.5209 H   0  0  0  0  0  0  0  0  0  0  0  0
    2.8123    0.7713    4.2839 H   0  0  0  0  0  0  0  0  0  0  0  0
    2.8606   -0.9754    4.7501 H   0  0  0  0  0  0  0  0  0  0  0  0
    1.8269    0.2430    5.6253 H   0  0  0  0  0  0  0  0  0  0  0  0
    2.1123    0.3052    0.5159 H   0  0  0  0  0  0  0  0  0  0  0  0
    3.8259   -0.4834    2.8304 H   0  0  0  0  0  0  0  0  0  0  0  0
    3.4903    0.6278   -0.8831 H   0  0  0  0  0  0  0  0  0  0  0  0
    9.7807    0.4126   -1.1799 H   0  0  0  0  0  0  0  0  0  0  0  0
    7.2351    1.5972   -2.3119 H   0  0  0  0  0  0  0  0  0  0  0  0
    8.7491    1.9407   -4.3673 H   0  0  0  0  0  0  0  0  0  0  0  0
   10.0581    0.9918   -3.4687 H   0  0  0  0  0  0  0  0  0  0  0  0
    7.1824   -0.0998   -4.2056 H   0  0  0  0  0  0  0  0  0  0  0  0
    8.5560   -1.0859   -3.4641 H   0  0  0  0  0  0  0  0  0  0  0  0
    8.4413   -0.7321    3.0916 H   0  0  0  0  0  0  0  0  0  0  0  0
   -0.1231   -0.2626    0.6429 H   0  0  0  0  0  0  0  0  0  0  0  0
   -3.7110   -2.9204   -0.6722 H   0  0  0  0  0  0  0  0  0  0  0  0
   -7.3351   -1.3132   -2.2387 H   0  0  0  0  0  0  0  0  0  0  0  0
   -5.3636    2.8101   -1.6309 H   0  0  0  0  0  0  0  0  0  0  0  0
  1  2  1  0
  2  3  2  0
  3  4  1  0
  4  5  1  0
  5  6  2  0
  6  7  1  0
  7  8  1  0
  8  9  1  0
  9 10  2  0
  9 11  1  0
 11 12  2  0
 12 13  1  0
 13 14  2  0
 14 15  1  0
 14 16  1  0
 16 17  1  0
 17 18  2  0
 18 19  1  0
 19 20  1  0
 20 21  2  0
 21 22  1  0
 22 23  2  0
 23 24  1  0
 24 25  1  0
 25 26  1  0
 26 27  1  0
 23 28  1  0
 28 29  2  0
 29 30  1  0
 30 31  2  0
 16 32  2  0
  7 33  2  0
 33 34  1  0
 34 35  1  0
 35 36  1  0
 35 37  1  0
 35 38  1  0
 34 39  2  0
  4 40  1  0
 40 41  2  0
 41  2  1  0
 39  5  1  0
 32 11  1  0
 31 19  1  0
 31 22  1  0
 27 25  1  0
  1 42  1  0
  1 43  1  0
  1 44  1  0
  3 45  1  0
  6 46  1  0
  8 47  1  0
 12 48  1  0
 13 49  1  0
 15 50  1  0
 15 51  1  0
 15 52  1  0
 17 53  1  0
 18 54  1  0
 20 55  1  0
 24 56  1  0
 25 57  1  0
 26 58  1  0
 26 59  1  0
 27 60  1  0
 27 61  1  0
 29 62  1  0
 32 63  1  0
 33 64  1  0
 39 65  1  0
 40 66  1  0
M  END
$$$$
