
     RDKit          3D

 73 78  0  0  0  0  0  0  0  0999 V2000
   -0.5149    8.3730   -0.5946 C   0  0  0  0  0  0  0  0  0  0  0  0
   -0.0349    7.0563   -0.4640 O   0  0  0  0  0  0  0  0  0  0  0  0
   -0.8501    5.9512   -0.3665 C   0  0  0  0  0  0  0  0  0  0  0  0
   -0.3247    4.6841   -0.2397 C   0  0  0  0  0  0  0  0  0  0  0  0
   -1.1504    3.5681   -0.1414 C   0  0  0  0  0  0  0  0  0  0  0  0
   -0.6798    2.2594   -0.0011 N   0  0  0  0  0  0  0  0  0  0  0  0
    0.7191    1.9148    0.1191 C   0  0  0  0  0  0  0  0  0  0  0  0
    1.6654    2.6143    0.5544 O   0  0  0  0  0  0  0  0  0  0  0  0
    0.8762    0.5805   -0.3591 N   0  0  0  0  0  0  0  0  0  0  0  0
    2.1163   -0.1069   -0.3923 C   0  0  0  0  0  0  0  0  0  0  0  0
    2.4386   -0.8737    0.7244 C   0  0  0  0  0  0  0  0  0  0  0  0
    3.6218   -1.5511    0.7387 C   0  0  0  0  0  0  0  0  0  0  0  0
    4.5488   -1.5245   -0.3136 C   0  0  0  0  0  0  0  0  0  0  0  0
    5.7843   -2.2735   -0.2332 C   0  0  0  0  0  0  0  0  0  0  0  0
    6.9156   -1.8069   -0.8564 C   0  0  0  0  0  0  0  0  0  0  0  0
    8.1205   -2.5093   -0.7958 C   0  0  0  0  0  0  0  0  0  0  0  0
    8.1791   -3.7075   -0.0901 C   0  0  0  0  0  0  0  0  0  0  0  0
    9.4333   -4.4372   -0.0250 C   0  0  0  0  0  0  0  0  0  0  0  0
    9.4752   -5.5153    0.6168 O   0  0  0  0  0  0  0  0  0  0  0  0
   10.6068   -4.0146   -0.6353 O   0  0  0  0  0  0  0  0  0  0  0  0
    7.0652   -4.1726    0.5266 C   0  0  0  0  0  0  0  0  0  0  0  0
    7.1337   -5.6826    1.4147 Cl  0  0  0  0  0  0  0  0  0  0  0  0
    5.8738   -3.4559    0.4536 C   0  0  0  0  0  0  0  0  0  0  0  0
    4.1811   -0.7505   -1.3946 C   0  0  0  0  0  0  0  0  0  0  0  0
    2.9876   -0.0415   -1.4588 C   0  0  0  0  0  0  0  0  0  0  0  0
   -0.3965    0.1409   -0.7530 C   0  0  0  0  0  0  0  0  0  0  0  0
   -0.6448   -0.7488   -1.5803 O   0  0  0  0  0  0  0  0  0  0  0  0
   -1.3546    0.9905    0.0518 C   0  0  0  0  0  0  0  0  0  0  0  0
   -1.3654    0.3938    1.4232 C   0  0  0  0  0  0  0  0  0  0  0  0
   -2.7419    0.3467    1.9986 C   0  0  0  0  0  0  0  0  0  0  0  0
   -3.7162   -0.2050    1.1356 N   0  0  0  0  0  0  0  0  0  0  0  0
   -4.8063   -0.9015    1.6700 C   0  0  0  0  0  0  0  0  0  0  0  0
   -5.7468   -1.4003    0.6692 C   0  0  0  0  0  0  0  0  0  0  0  0
   -6.9077   -0.7202    0.4410 N   0  0  0  0  0  0  0  0  0  0  0  0
   -7.8243   -1.0695   -0.4414 C   0  0  0  0  0  0  0  0  0  0  0  0
   -7.6344   -2.1915   -1.2046 C   0  0  0  0  0  0  0  0  0  0  0  0
   -6.4936   -2.9262   -1.0324 C   0  0  0  0  0  0  0  0  0  0  0  0
   -5.5455   -2.5200   -0.0839 C   0  0  0  0  0  0  0  0  0  0  0  0
   -4.3407   -3.3403    0.0850 C   0  0  0  0  0  0  0  0  0  0  0  0
   -3.3194   -0.4111   -0.1997 C   0  0  0  0  0  0  0  0  0  0  0  0
   -2.6629    0.9148   -0.6488 C   0  0  0  0  0  0  0  0  0  0  0  0
   -2.4662    3.8239   -0.1797 N   0  0  0  0  0  0  0  0  0  0  0  0
   -3.0126    5.0237   -0.3002 C   0  0  0  0  0  0  0  0  0  0  0  0
   -2.1788    6.1004   -0.3944 N   0  0  0  0  0  0  0  0  0  0  0  0
    0.3044    9.0771   -0.3749 H   0  0  0  0  0  0  0  0  0  0  0  0
   -0.9335    8.5636   -1.6123 H   0  0  0  0  0  0  0  0  0  0  0  0
   -1.3626    8.5712    0.1226 H   0  0  0  0  0  0  0  0  0  0  0  0
    0.7520    4.5605   -0.2201 H   0  0  0  0  0  0  0  0  0  0  0  0
    1.7582   -0.9343    1.5768 H   0  0  0  0  0  0  0  0  0  0  0  0
    3.8944   -2.1483    1.5843 H   0  0  0  0  0  0  0  0  0  0  0  0
    6.8990   -0.8912   -1.4046 H   0  0  0  0  0  0  0  0  0  0  0  0
    9.0258   -2.1764   -1.2703 H   0  0  0  0  0  0  0  0  0  0  0  0
   11.4841   -4.5470   -0.5328 H   0  0  0  0  0  0  0  0  0  0  0  0
    5.0249   -3.8564    0.9515 H   0  0  0  0  0  0  0  0  0  0  0  0
    4.8373   -0.6811   -2.2348 H   0  0  0  0  0  0  0  0  0  0  0  0
    2.7078    0.5602   -2.3041 H   0  0  0  0  0  0  0  0  0  0  0  0
   -0.7268    0.9562    2.1439 H   0  0  0  0  0  0  0  0  0  0  0  0
   -0.9628   -0.6612    1.4350 H   0  0  0  0  0  0  0  0  0  0  0  0
   -2.7363   -0.2202    2.9554 H   0  0  0  0  0  0  0  0  0  0  0  0
   -3.0242    1.3948    2.3000 H   0  0  0  0  0  0  0  0  0  0  0  0
   -4.4373   -1.7573    2.2921 H   0  0  0  0  0  0  0  0  0  0  0  0
   -5.3712   -0.1882    2.3495 H   0  0  0  0  0  0  0  0  0  0  0  0
   -8.7413   -0.5110   -0.6030 H   0  0  0  0  0  0  0  0  0  0  0  0
   -8.3883   -2.5011   -1.9494 H   0  0  0  0  0  0  0  0  0  0  0  0
   -6.3296   -3.8188   -1.6311 H   0  0  0  0  0  0  0  0  0  0  0  0
   -3.7291   -3.0381    0.9474 H   0  0  0  0  0  0  0  0  0  0  0  0
   -3.7368   -3.2036   -0.8547 H   0  0  0  0  0  0  0  0  0  0  0  0
   -4.6111   -4.4220    0.1483 H   0  0  0  0  0  0  0  0  0  0  0  0
   -4.1490   -0.5893   -0.9047 H   0  0  0  0  0  0  0  0  0  0  0  0
   -2.5241   -1.2025   -0.3006 H   0  0  0  0  0  0  0  0  0  0  0  0
   -2.5276    0.9118   -1.7484 H   0  0  0  0  0  0  0  0  0  0  0  0
   -3.3440    1.6926   -0.2816 H   0  0  0  0  0  0  0  0  0  0  0  0
   -4.0810    5.1813   -0.3263 H   0  0  0  0  0  0  0  0  0  0  0  0
  1  2  1  0
  2  3  1  0
  3  4  2  0
  4  5  1  0
  5  6  1  0
  6  7  1  0
  7  8  2  0
  7  9  1  0
  9 10  1  0
 10 11  2  0
 11 12  1  0
 12 13  2  0
 13 14  1  0
 14 15  2  0
 15 16  1  0
 16 17  2  0
 17 18  1  0
 18 19  2  0
 18 20  1  0
 17 21  1  0
 21 22  1  0
 21 23  2  0
 13 24  1  0
 24 25  2  0
  9 26  1  0
 26 27  2  0
 26 28  1  0
 28 29  1  0
 29 30  1  0
 30 31  1  0
 31 32  1  0
 32 33  1  0
 33 34  2  0
 34 35  1  0
 35 36  2  0
 36 37  1  0
 37 38  2  0
 38 39  1  0
 31 40  1  0
 40 41  1  0
  5 42  2  0
 42 43  1  0
 43 44  2  0
 44  3  1  0
 28  6  1  0
 38 33  1  0
 25 10  1  0
 41 28  1  0
 23 14  1  0
  1 45  1  0
  1 46  1  0
  1 47  1  0
  4 48  1  0
 11 49  1  0
 12 50  1  0
 15 51  1  0
 16 52  1  0
 20 53  1  0
 23 54  1  0
 24 55  1  0
 25 56  1  0
 29 57  1  0
 29 58  1  0
 30 59  1  0
 30 60  1  0
 32 61  1  0
 32 62  1  0
 35 63  1  0
 36 64  1  0
 37 65  1  0
 39 66  1  0
 39 67  1  0
 39 68  1  0
 40 69  1  0
 40 70  1  0
 41 71  1  0
 41 72  1  0
 43 73  1  0
M  END
$$$$
