@<TRIPOS>MOLECULE
*****
 73 78 0 0 0
SMALL
GASTEIGER

@<TRIPOS>ATOM
      1 C          -0.5149    8.3730   -0.5946 C.3     1  UNL1        0.0804
      2 O          -0.0349    7.0563   -0.4640 O.3     1  UNL1       -0.4795
      3 C          -0.8501    5.9512   -0.3665 C.ar    1  UNL1        0.2191
      4 C          -0.3247    4.6841   -0.2397 C.ar    1  UNL1        0.0404
      5 C          -1.1504    3.5681   -0.1414 C.ar    1  UNL1        0.1364
      6 N          -0.6798    2.2594   -0.0011 N.am    1  UNL1       -0.2240
      7 C           0.7191    1.9148    0.1191 C.2     1  UNL1        0.3219
      8 O           1.6654    2.6143    0.5544 O.2     1  UNL1       -0.2512
      9 N           0.8762    0.5805   -0.3591 N.am    1  UNL1       -0.1920
     10 C           2.1163   -0.1069   -0.3923 C.ar    1  UNL1        0.0455
     11 C           2.4386   -0.8737    0.7244 C.ar    1  UNL1       -0.0392
     12 C           3.6218   -1.5511    0.7387 C.ar    1  UNL1       -0.0523
     13 C           4.5488   -1.5245   -0.3136 C.ar    1  UNL1       -0.0177
     14 C           5.7843   -2.2735   -0.2332 C.ar    1  UNL1       -0.0165
     15 C           6.9156   -1.8069   -0.8564 C.ar    1  UNL1       -0.0532
     16 C           8.1205   -2.5093   -0.7958 C.ar    1  UNL1       -0.0458
     17 C           8.1791   -3.7075   -0.0901 C.ar    1  UNL1        0.0771
     18 C           9.4333   -4.4372   -0.0250 C.2     1  UNL1        0.3382
     19 O           9.4752   -5.5153    0.6168 O.2     1  UNL1       -0.2451
     20 O          10.6068   -4.0146   -0.6353 O.3     1  UNL1       -0.4771
     21 C           7.0652   -4.1726    0.5266 C.ar    1  UNL1        0.0555
     22 CL          7.1337   -5.6826    1.4147 Cl      1  UNL1       -0.0827
     23 C           5.8738   -3.4559    0.4536 C.ar    1  UNL1       -0.0349
     24 C           4.1811   -0.7505   -1.3946 C.ar    1  UNL1       -0.0523
     25 C           2.9876   -0.0415   -1.4588 C.ar    1  UNL1       -0.0392
     26 C          -0.3965    0.1409   -0.7530 C.2     1  UNL1        0.2516
     27 O          -0.6448   -0.7488   -1.5803 O.2     1  UNL1       -0.2724
     28 C          -1.3546    0.9905    0.0518 C.3     1  UNL1        0.1240
     29 C          -1.3654    0.3938    1.4232 C.3     1  UNL1       -0.0095
     30 C          -2.7419    0.3467    1.9986 C.3     1  UNL1        0.0017
     31 N          -3.7162   -0.2050    1.1356 N.3     1  UNL1       -0.2965
     32 C          -4.8063   -0.9015    1.6700 C.3     1  UNL1        0.0415
     33 C          -5.7468   -1.4003    0.6692 C.ar    1  UNL1        0.0581
     34 N          -6.9077   -0.7202    0.4410 N.ar    1  UNL1       -0.2583
     35 C          -7.8243   -1.0695   -0.4414 C.ar    1  UNL1        0.0279
     36 C          -7.6344   -2.1915   -1.2046 C.ar    1  UNL1       -0.0433
     37 C          -6.4936   -2.9262   -1.0324 C.ar    1  UNL1       -0.0557
     38 C          -5.5455   -2.5200   -0.0839 C.ar    1  UNL1       -0.0279
     39 C          -4.3407   -3.3403    0.0850 C.3     1  UNL1       -0.0380
     40 C          -3.3194   -0.4111   -0.1997 C.3     1  UNL1        0.0017
     41 C          -2.6629    0.9148   -0.6488 C.3     1  UNL1       -0.0095
     42 N          -2.4662    3.8239   -0.1797 N.ar    1  UNL1       -0.2200
     43 C          -3.0126    5.0237   -0.3002 C.ar    1  UNL1        0.1219
     44 N          -2.1788    6.1004   -0.3944 N.ar    1  UNL1       -0.2013
     45 H           0.3044    9.0771   -0.3749 H       1  UNL1        0.0660
     46 H          -0.9335    8.5636   -1.6123 H       1  UNL1        0.0660
     47 H          -1.3626    8.5712    0.1226 H       1  UNL1        0.0660
     48 H           0.7520    4.5605   -0.2201 H       1  UNL1        0.0705
     49 H           1.7582   -0.9343    1.5768 H       1  UNL1        0.0636
     50 H           3.8944   -2.1483    1.5843 H       1  UNL1        0.0624
     51 H           6.8990   -0.8912   -1.4046 H       1  UNL1        0.0624
     52 H           9.0258   -2.1764   -1.2703 H       1  UNL1        0.0626
     53 H          11.4841   -4.5470   -0.5328 H       1  UNL1        0.2954
     54 H           5.0249   -3.8564    0.9515 H       1  UNL1        0.0638
     55 H           4.8373   -0.6811   -2.2348 H       1  UNL1        0.0624
     56 H           2.7078    0.5602   -2.3041 H       1  UNL1        0.0636
     57 H          -0.7268    0.9562    2.1439 H       1  UNL1        0.0303
     58 H          -0.9628   -0.6612    1.4350 H       1  UNL1        0.0303
     59 H          -2.7363   -0.2202    2.9554 H       1  UNL1        0.0427
     60 H          -3.0242    1.3948    2.3000 H       1  UNL1        0.0427
     61 H          -4.4373   -1.7573    2.2921 H       1  UNL1        0.0491
     62 H          -5.3712   -0.1882    2.3495 H       1  UNL1        0.0491
     63 H          -8.7413   -0.5110   -0.6030 H       1  UNL1        0.0829
     64 H          -8.3883   -2.5011   -1.9494 H       1  UNL1        0.0633
     65 H          -6.3296   -3.8188   -1.6311 H       1  UNL1        0.0621
     66 H          -3.7291   -3.0381    0.9474 H       1  UNL1        0.0278
     67 H          -3.7368   -3.2036   -0.8547 H       1  UNL1        0.0278
     68 H          -4.6111   -4.4220    0.1483 H       1  UNL1        0.0278
     69 H          -4.1490   -0.5893   -0.9047 H       1  UNL1        0.0427
     70 H          -2.5241   -1.2025   -0.3006 H       1  UNL1        0.0427
     71 H          -2.5276    0.9118   -1.7484 H       1  UNL1        0.0303
     72 H          -3.3440    1.6926   -0.2816 H       1  UNL1        0.0303
     73 H          -4.0810    5.1813   -0.3263 H       1  UNL1        0.1049
@<TRIPOS>BOND
     1     1     2    1
     2     2     3    1
     3     3     4   ar
     4     4     5   ar
     5     5     6    1
     6     6     7   am
     7     7     8    2
     8     7     9   am
     9     9    10    1
    10    10    11   ar
    11    11    12   ar
    12    12    13   ar
    13    13    14    1
    14    14    15   ar
    15    15    16   ar
    16    16    17   ar
    17    17    18    1
    18    18    19    2
    19    18    20    1
    20    17    21   ar
    21    21    22    1
    22    21    23   ar
    23    13    24   ar
    24    24    25   ar
    25     9    26   am
    26    26    27    2
    27    26    28    1
    28    28    29    1
    29    29    30    1
    30    30    31    1
    31    31    32    1
    32    32    33    1
    33    33    34   ar
    34    34    35   ar
    35    35    36   ar
    36    36    37   ar
    37    37    38   ar
    38    38    39    1
    39    31    40    1
    40    40    41    1
    41     5    42   ar
    42    42    43   ar
    43    43    44   ar
    44    44     3   ar
    45    28     6    1
    46    38    33   ar
    47    25    10   ar
    48    41    28    1
    49    23    14   ar
    50     1    45    1
    51     1    46    1
    52     1    47    1
    53     4    48    1
    54    11    49    1
    55    12    50    1
    56    15    51    1
    57    16    52    1
    58    20    53    1
    59    23    54    1
    60    24    55    1
    61    25    56    1
    62    29    57    1
    63    29    58    1
    64    30    59    1
    65    30    60    1
    66    32    61    1
    67    32    62    1
    68    35    63    1
    69    36    64    1
    70    37    65    1
    71    39    66    1
    72    39    67    1
    73    39    68    1
    74    40    69    1
    75    40    70    1
    76    41    71    1
    77    41    72    1
    78    43    73    1
