
     RDKit          3D

 50 52  0  0  0  0  0  0  0  0999 V2000
    8.1472   -0.1725   -1.7071 C   0  0  0  0  0  0  0  0  0  0  0  0
    7.0631   -1.0785   -1.8769 O   0  0  0  0  0  0  0  0  0  0  0  0
    5.8480   -0.8114   -1.2333 C   0  0  0  0  0  0  0  0  0  0  0  0
    4.8129   -1.6995   -1.4104 C   0  0  0  0  0  0  0  0  0  0  0  0
    3.6443   -1.4507   -0.7969 N   0  0  0  0  0  0  0  0  0  0  0  0
    3.4527   -0.3691   -0.0196 C   0  0  0  0  0  0  0  0  0  0  0  0
    2.1712   -0.1256    0.6342 C   0  0  0  0  0  0  0  0  0  0  0  0
    2.0466    0.8977    1.3477 O   0  0  0  0  0  0  0  0  0  0  0  0
    1.0556   -0.9754    0.5129 N   0  0  0  0  0  0  0  0  0  0  0  0
   -0.2003   -0.7330    1.1562 C   0  0  0  0  0  0  0  0  0  0  0  0
   -0.4767   -1.2184    2.4188 C   0  0  0  0  0  0  0  0  0  0  0  0
   -1.6815   -0.9971    3.0595 C   0  0  0  0  0  0  0  0  0  0  0  0
   -2.6662   -0.2614    2.4285 C   0  0  0  0  0  0  0  0  0  0  0  0
   -3.8666   -0.0109    3.0044 F   0  0  0  0  0  0  0  0  0  0  0  0
   -2.4215    0.2381    1.1655 C   0  0  0  0  0  0  0  0  0  0  0  0
   -3.4868    1.0282    0.4950 C   0  0  2  0  0  0  0  0  0  0  0  0
   -3.8140    2.2889    1.2663 C   0  0  0  0  0  0  0  0  0  0  0  0
   -2.6871    3.0742    1.3637 F   0  0  0  0  0  0  0  0  0  0  0  0
   -4.7297    0.2070    0.2548 C   0  0  0  0  0  0  0  0  0  0  0  0
   -4.3069   -0.9418   -0.6501 C   0  0  1  0  0  0  0  0  0  0  0  0
   -5.3798   -1.9949   -0.7320 C   0  0  0  0  0  0  0  0  0  0  0  0
   -4.9538   -3.0003   -1.5526 F   0  0  0  0  0  0  0  0  0  0  0  0
   -6.5548   -1.4613   -1.1855 F   0  0  0  0  0  0  0  0  0  0  0  0
   -5.5312   -2.5251    0.5355 F   0  0  0  0  0  0  0  0  0  0  0  0
   -4.0152   -0.3663   -1.9105 O   0  0  0  0  0  0  0  0  0  0  0  0
   -3.2404    0.7876   -1.8951 C   0  0  0  0  0  0  0  0  0  0  0  0
   -2.6983    1.2809   -3.1224 N   0  0  0  0  0  0  0  0  0  0  0  0
   -2.9893    1.4361   -0.8084 N   0  0  0  0  0  0  0  0  0  0  0  0
   -1.1972   -0.0008    0.5436 C   0  0  0  0  0  0  0  0  0  0  0  0
    4.5008    0.5110    0.1472 C   0  0  0  0  0  0  0  0  0  0  0  0
    4.3860    1.7340    0.9866 C   0  0  0  0  0  0  0  0  0  0  0  0
    5.6738    0.2689   -0.4638 N   0  0  0  0  0  0  0  0  0  0  0  0
    7.7831    0.8007   -1.3459 H   0  0  0  0  0  0  0  0  0  0  0  0
    8.7256   -0.0934   -2.6485 H   0  0  0  0  0  0  0  0  0  0  0  0
    8.8354   -0.5793   -0.9351 H   0  0  0  0  0  0  0  0  0  0  0  0
    4.9361   -2.5776   -2.0289 H   0  0  0  0  0  0  0  0  0  0  0  0
    1.1469   -1.8305   -0.0784 H   0  0  0  0  0  0  0  0  0  0  0  0
    0.3040   -1.7914    2.8978 H   0  0  0  0  0  0  0  0  0  0  0  0
   -1.8961   -1.3793    4.0509 H   0  0  0  0  0  0  0  0  0  0  0  0
   -4.5387    2.8630    0.6369 H   0  0  0  0  0  0  0  0  0  0  0  0
   -4.3065    2.1045    2.2236 H   0  0  0  0  0  0  0  0  0  0  0  0
   -5.4352    0.8594   -0.3100 H   0  0  0  0  0  0  0  0  0  0  0  0
   -5.2326   -0.1219    1.1634 H   0  0  0  0  0  0  0  0  0  0  0  0
   -3.3625   -1.3972   -0.2803 H   0  0  0  0  0  0  0  0  0  0  0  0
   -3.2479    1.2701   -4.0188 H   0  0  0  0  0  0  0  0  0  0  0  0
   -1.7333    1.6753   -3.1907 H   0  0  0  0  0  0  0  0  0  0  0  0
   -1.0261    0.3975   -0.4415 H   0  0  0  0  0  0  0  0  0  0  0  0
    5.3348    2.3060    0.9743 H   0  0  0  0  0  0  0  0  0  0  0  0
    4.1897    1.4985    2.0558 H   0  0  0  0  0  0  0  0  0  0  0  0
    3.6184    2.4368    0.5630 H   0  0  0  0  0  0  0  0  0  0  0  0
  1  2  1  0
  2  3  1  0
  3  4  2  0
  4  5  1  0
  5  6  2  0
  6  7  1  0
  7  8  2  0
  7  9  1  0
  9 10  1  0
 10 11  2  0
 11 12  1  0
 12 13  2  0
 13 14  1  0
 13 15  1  0
 15 16  1  0
 16 17  1  1
 17 18  1  0
 16 19  1  0
 19 20  1  0
 20 21  1  0
 21 22  1  0
 21 23  1  0
 21 24  1  0
 20 25  1  0
 25 26  1  0
 26 27  1  0
 26 28  2  0
 15 29  2  0
  6 30  1  0
 30 31  1  0
 30 32  2  0
 32  3  1  0
 29 10  1  0
 28 16  1  0
  1 33  1  0
  1 34  1  0
  1 35  1  0
  4 36  1  0
  9 37  1  0
 11 38  1  0
 12 39  1  0
 17 40  1  0
 17 41  1  0
 19 42  1  0
 19 43  1  0
 20 44  1  1
 27 45  1  0
 27 46  1  0
 29 47  1  0
 31 48  1  0
 31 49  1  0
 31 50  1  0
M  END
$$$$
