@<TRIPOS>MOLECULE
*****
 50 52 0 0 0
SMALL
GASTEIGER

@<TRIPOS>ATOM
      1 C           8.1472   -0.1725   -1.7071 C.3     1  UNL1        0.0805
      2 O           7.0631   -1.0785   -1.8769 O.3     1  UNL1       -0.4786
      3 C           5.8480   -0.8114   -1.2333 C.ar    1  UNL1        0.2334
      4 C           4.8129   -1.6995   -1.4104 C.ar    1  UNL1        0.0899
      5 N           3.6443   -1.4507   -0.7969 N.ar    1  UNL1       -0.2433
      6 C           3.4527   -0.3691   -0.0196 C.ar    1  UNL1        0.1468
      7 C           2.1712   -0.1256    0.6342 C.2     1  UNL1        0.2683
      8 O           2.0466    0.8977    1.3477 O.2     1  UNL1       -0.2681
      9 N           1.0556   -0.9754    0.5129 N.am    1  UNL1       -0.2802
     10 C          -0.2003   -0.7330    1.1562 C.ar    1  UNL1        0.0342
     11 C          -0.4767   -1.2184    2.4188 C.ar    1  UNL1       -0.0377
     12 C          -1.6815   -0.9971    3.0595 C.ar    1  UNL1       -0.0243
     13 C          -2.6662   -0.2614    2.4285 C.ar    1  UNL1        0.1291
     14 F          -3.8666   -0.0109    3.0044 F       1  UNL1       -0.2051
     15 C          -2.4215    0.2381    1.1655 C.ar    1  UNL1        0.0196
     16 C          -3.4868    1.0282    0.4950 C.3     1  UNL1        0.1258
     17 C          -3.8140    2.2889    1.2663 C.3     1  UNL1        0.1196
     18 F          -2.6871    3.0742    1.3637 F       1  UNL1       -0.2462
     19 C          -4.7297    0.2070    0.2548 C.3     1  UNL1        0.0251
     20 C          -4.3069   -0.9418   -0.6501 C.3     1  UNL1        0.1998
     21 C          -5.3798   -1.9949   -0.7320 C.3     1  UNL1        0.4266
     22 F          -4.9538   -3.0003   -1.5526 F       1  UNL1       -0.1669
     23 F          -6.5548   -1.4613   -1.1855 F       1  UNL1       -0.1669
     24 F          -5.5312   -2.5251    0.5355 F       1  UNL1       -0.1669
     25 O          -4.0152   -0.3663   -1.9105 O.2     1  UNL1       -0.4534
     26 C          -3.2404    0.7876   -1.8951 C.2     1  UNL1        0.2766
     27 N          -2.6983    1.2809   -3.1224 N.pl3   1  UNL1       -0.3134
     28 N          -2.9893    1.4361   -0.8084 N.2     1  UNL1       -0.2228
     29 C          -1.1972   -0.0008    0.5436 C.ar    1  UNL1       -0.0322
     30 C           4.5008    0.5110    0.1472 C.ar    1  UNL1        0.0724
     31 C           4.3860    1.7340    0.9866 C.3     1  UNL1       -0.0200
     32 N           5.6738    0.2689   -0.4638 N.ar    1  UNL1       -0.2146
     33 H           7.7831    0.8007   -1.3459 H       1  UNL1        0.0660
     34 H           8.7256   -0.0934   -2.6485 H       1  UNL1        0.0660
     35 H           8.8354   -0.5793   -0.9351 H       1  UNL1        0.0660
     36 H           4.9361   -2.5776   -2.0289 H       1  UNL1        0.0884
     37 H           1.1469   -1.8305   -0.0784 H       1  UNL1        0.1552
     38 H           0.3040   -1.7914    2.8978 H       1  UNL1        0.0637
     39 H          -1.8961   -1.3793    4.0509 H       1  UNL1        0.0647
     40 H          -4.5387    2.8630    0.6369 H       1  UNL1        0.0643
     41 H          -4.3065    2.1045    2.2236 H       1  UNL1        0.0643
     42 H          -5.4352    0.8594   -0.3100 H       1  UNL1        0.0331
     43 H          -5.2326   -0.1219    1.1634 H       1  UNL1        0.0331
     44 H          -3.3625   -1.3972   -0.2803 H       1  UNL1        0.0826
     45 H          -3.2479    1.2701   -4.0188 H       1  UNL1        0.1466
     46 H          -1.7333    1.6753   -3.1907 H       1  UNL1        0.1466
     47 H          -1.0261    0.3975   -0.4415 H       1  UNL1        0.0640
     48 H           5.3348    2.3060    0.9743 H       1  UNL1        0.0293
     49 H           4.1897    1.4985    2.0558 H       1  UNL1        0.0293
     50 H           3.6184    2.4368    0.5630 H       1  UNL1        0.0293
@<TRIPOS>BOND
     1     1     2    1
     2     2     3    1
     3     3     4   ar
     4     4     5   ar
     5     5     6   ar
     6     6     7    1
     7     7     8    2
     8     7     9   am
     9     9    10    1
    10    10    11   ar
    11    11    12   ar
    12    12    13   ar
    13    13    14    1
    14    13    15   ar
    15    15    16    1
    16    16    17    1
    17    17    18    1
    18    16    19    1
    19    19    20    1
    20    20    21    1
    21    21    22    1
    22    21    23    1
    23    21    24    1
    24    20    25    1
    25    25    26    1
    26    26    27    1
    27    26    28    2
    28    15    29   ar
    29     6    30   ar
    30    30    31    1
    31    30    32   ar
    32    32     3   ar
    33    29    10   ar
    34    28    16    1
    35     1    33    1
    36     1    34    1
    37     1    35    1
    38     4    36    1
    39     9    37    1
    40    11    38    1
    41    12    39    1
    42    17    40    1
    43    17    41    1
    44    19    42    1
    45    19    43    1
    46    20    44    1
    47    27    45    1
    48    27    46    1
    49    29    47    1
    50    31    48    1
    51    31    49    1
    52    31    50    1
