
     RDKit          3D

 46 49  0  0  0  0  0  0  0  0999 V2000
    4.0694   -0.9836   -2.7332 C   0  0  0  0  0  0  0  0  0  0  0  0
    4.6866   -0.2618   -1.6739 O   0  0  0  0  0  0  0  0  0  0  0  0
    3.8735    0.1936   -0.6339 C   0  0  0  0  0  0  0  0  0  0  0  0
    2.5474   -0.0213   -0.5965 N   0  0  0  0  0  0  0  0  0  0  0  0
    1.7609    0.4211    0.4126 C   0  0  0  0  0  0  0  0  0  0  0  0
    0.3641    0.1423    0.3606 N   0  0  0  0  0  0  0  0  0  0  0  0
   -0.5444    0.5789    1.4023 C   0  0  0  0  0  0  0  0  0  0  0  0
   -1.9373    0.3598    0.8891 C   0  0  1  0  0  0  0  0  0  0  0  0
   -2.4699    1.6040    0.3192 C   0  0  0  0  0  0  0  0  0  0  0  0
   -2.4097    2.6458    1.0324 O   0  0  0  0  0  0  0  0  0  0  0  0
   -3.0460    1.7376   -0.9624 N   0  0  0  0  0  0  0  0  0  0  0  0
   -3.4895    3.0196   -1.4772 C   0  0  0  0  0  0  0  0  0  0  0  0
   -3.1904    0.5700   -1.7646 C   0  0  0  0  0  0  0  0  0  0  0  0
   -3.7083    0.6374   -2.9376 N   0  0  0  0  0  0  0  0  0  0  0  0
   -2.7333   -0.6575   -1.1966 N   0  0  0  0  0  0  0  0  0  0  0  0
   -1.7422   -0.7253   -0.1430 C   0  0  2  0  0  0  0  0  0  0  0  0
   -1.9048   -2.0263    0.5662 C   0  0  0  0  0  0  0  0  0  0  0  0
   -1.0884   -3.0361    0.8115 C   0  0  0  0  0  0  0  0  0  0  0  0
   -1.5260   -4.1157    1.4979 C   0  0  0  0  0  0  0  0  0  0  0  0
   -2.8269   -4.1088    1.9156 C   0  0  0  0  0  0  0  0  0  0  0  0
   -3.7923   -5.2677    2.8131 Cl  0  0  0  0  0  0  0  0  0  0  0  0
   -3.4139   -2.4968    1.2921 S   0  0  0  0  0  0  0  0  0  0  0  0
   -0.3536   -0.5763   -0.6674 C   0  0  0  0  0  0  0  0  0  0  0  0
    2.3437    1.0980    1.4050 N   0  0  0  0  0  0  0  0  0  0  0  0
    3.6598    1.3610    1.4540 C   0  0  0  0  0  0  0  0  0  0  0  0
    4.2797    2.1144    2.5674 C   0  0  0  0  0  0  0  0  0  0  0  0
    4.4392    0.9019    0.4183 C   0  0  0  0  0  0  0  0  0  0  0  0
    5.7747    1.1117    0.3691 F   0  0  0  0  0  0  0  0  0  0  0  0
    3.8786   -0.3104   -3.5932 H   0  0  0  0  0  0  0  0  0  0  0  0
    4.7429   -1.8111   -3.0150 H   0  0  0  0  0  0  0  0  0  0  0  0
    3.0769   -1.3645   -2.4003 H   0  0  0  0  0  0  0  0  0  0  0  0
   -0.3618    0.0692    2.3604 H   0  0  0  0  0  0  0  0  0  0  0  0
   -0.3527    1.6685    1.5447 H   0  0  0  0  0  0  0  0  0  0  0  0
   -2.5643    0.0283    1.7426 H   0  0  0  0  0  0  0  0  0  0  0  0
   -4.5597    2.8799   -1.7900 H   0  0  0  0  0  0  0  0  0  0  0  0
   -2.8451    3.3086   -2.3065 H   0  0  0  0  0  0  0  0  0  0  0  0
   -3.5192    3.7882   -0.6779 H   0  0  0  0  0  0  0  0  0  0  0  0
   -4.0199    1.5673   -3.2874 H   0  0  0  0  0  0  0  0  0  0  0  0
   -3.1728   -1.5373   -1.6020 H   0  0  0  0  0  0  0  0  0  0  0  0
   -0.0242   -3.0121    0.4549 H   0  0  0  0  0  0  0  0  0  0  0  0
   -0.8820   -5.0164    1.7440 H   0  0  0  0  0  0  0  0  0  0  0  0
    0.1344   -1.5365   -0.9434 H   0  0  0  0  0  0  0  0  0  0  0  0
   -0.4236    0.0255   -1.6148 H   0  0  0  0  0  0  0  0  0  0  0  0
    5.0297    2.8493    2.1850 H   0  0  0  0  0  0  0  0  0  0  0  0
    3.5211    2.7351    3.1122 H   0  0  0  0  0  0  0  0  0  0  0  0
    4.7196    1.4481    3.3468 H   0  0  0  0  0  0  0  0  0  0  0  0
  1  2  1  0
  2  3  1  0
  3  4  2  0
  4  5  1  0
  5  6  1  0
  6  7  1  0
  7  8  1  0
  8  9  1  0
  9 10  2  0
  9 11  1  0
 11 12  1  0
 11 13  1  0
 13 14  2  3
 13 15  1  0
 15 16  1  0
 16 17  1  1
 17 18  2  0
 18 19  1  0
 19 20  2  0
 20 21  1  0
 20 22  1  0
 16 23  1  0
  5 24  2  0
 24 25  1  0
 25 26  1  0
 25 27  2  0
 27 28  1  0
 27  3  1  0
 23  6  1  0
 16  8  1  0
 22 17  1  0
  1 29  1  0
  1 30  1  0
  1 31  1  0
  7 32  1  0
  7 33  1  0
  8 34  1  1
 12 35  1  0
 12 36  1  0
 12 37  1  0
 14 38  1  0
 15 39  1  0
 18 40  1  0
 19 41  1  0
 23 42  1  0
 23 43  1  0
 26 44  1  0
 26 45  1  0
 26 46  1  0
M  END
$$$$
