@<TRIPOS>MOLECULE
*****
 46 49 0 0 0
SMALL
GASTEIGER

@<TRIPOS>ATOM
      1 C           4.0694   -0.9836   -2.7332 C.3     1  UNL1        0.0805
      2 O           4.6866   -0.2618   -1.6739 O.3     1  UNL1       -0.4776
      3 C           3.8735    0.1936   -0.6339 C.ar    1  UNL1        0.2557
      4 N           2.5474   -0.0213   -0.5965 N.ar    1  UNL1       -0.1768
      5 C           1.7609    0.4211    0.4126 C.ar    1  UNL1        0.2214
      6 N           0.3641    0.1423    0.3606 N.pl3   1  UNL1       -0.2949
      7 C          -0.5444    0.5789    1.4023 C.3     1  UNL1        0.0313
      8 C          -1.9373    0.3598    0.8891 C.3     1  UNL1        0.1071
      9 C          -2.4699    1.6040    0.3192 C.2     1  UNL1        0.2858
     10 O          -2.4097    2.6458    1.0324 O.2     1  UNL1       -0.2567
     11 N          -3.0460    1.7376   -0.9624 N.am    1  UNL1       -0.1649
     12 C          -3.4895    3.0196   -1.4772 C.3     1  UNL1        0.0571
     13 C          -3.1904    0.5700   -1.7646 C.2     1  UNL1        0.3718
     14 N          -3.7083    0.6374   -2.9376 N.2     1  UNL1       -0.1329
     15 N          -2.7333   -0.6575   -1.1966 N.pl3   1  UNL1       -0.2258
     16 C          -1.7422   -0.7253   -0.1430 C.3     1  UNL1        0.1405
     17 C          -1.9048   -2.0263    0.5662 C.ar    1  UNL1        0.0312
     18 C          -1.0884   -3.0361    0.8115 C.ar    1  UNL1       -0.0466
     19 C          -1.5260   -4.1157    1.4979 C.ar    1  UNL1       -0.0358
     20 C          -2.8269   -4.1088    1.9156 C.ar    1  UNL1        0.0784
     21 CL         -3.7923   -5.2677    2.8131 Cl      1  UNL1       -0.0758
     22 S          -3.4139   -2.4968    1.2921 S.2     1  UNL1       -0.0781
     23 C          -0.3536   -0.5763   -0.6674 C.3     1  UNL1        0.0551
     24 N           2.3437    1.0980    1.4050 N.ar    1  UNL1       -0.2165
     25 C           3.6598    1.3610    1.4540 C.ar    1  UNL1        0.0822
     26 C           4.2797    2.1144    2.5674 C.3     1  UNL1       -0.0193
     27 C           4.4392    0.9019    0.4183 C.ar    1  UNL1        0.2055
     28 F           5.7747    1.1117    0.3691 F       1  UNL1       -0.1980
     29 H           3.8786   -0.3104   -3.5932 H       1  UNL1        0.0660
     30 H           4.7429   -1.8111   -3.0150 H       1  UNL1        0.0660
     31 H           3.0769   -1.3645   -2.4003 H       1  UNL1        0.0660
     32 H          -0.3618    0.0692    2.3604 H       1  UNL1        0.0474
     33 H          -0.3527    1.6685    1.5447 H       1  UNL1        0.0474
     34 H          -2.5643    0.0283    1.7426 H       1  UNL1        0.0464
     35 H          -4.5597    2.8799   -1.7900 H       1  UNL1        0.0602
     36 H          -2.8451    3.3086   -2.3065 H       1  UNL1        0.0602
     37 H          -3.5192    3.7882   -0.6779 H       1  UNL1        0.0602
     38 H          -4.0199    1.5673   -3.2874 H       1  UNL1        0.3058
     39 H          -3.1728   -1.5373   -1.6020 H       1  UNL1        0.2454
     40 H          -0.0242   -3.0121    0.4549 H       1  UNL1        0.0627
     41 H          -0.8820   -5.0164    1.7440 H       1  UNL1        0.0638
     42 H           0.1344   -1.5365   -0.9434 H       1  UNL1        0.0504
     43 H          -0.4236    0.0255   -1.6148 H       1  UNL1        0.0504
     44 H           5.0297    2.8493    2.1850 H       1  UNL1        0.0293
     45 H           3.5211    2.7351    3.1122 H       1  UNL1        0.0293
     46 H           4.7196    1.4481    3.3468 H       1  UNL1        0.0293
@<TRIPOS>BOND
     1     1     2    1
     2     2     3    1
     3     3     4   ar
     4     4     5   ar
     5     5     6    1
     6     6     7    1
     7     7     8    1
     8     8     9    1
     9     9    10    2
    10     9    11   am
    11    11    12    1
    12    11    13    1
    13    13    14    2
    14    13    15    1
    15    15    16    1
    16    16    17    1
    17    17    18   ar
    18    18    19   ar
    19    19    20   ar
    20    20    21    1
    21    20    22   ar
    22    16    23    1
    23     5    24   ar
    24    24    25   ar
    25    25    26    1
    26    25    27   ar
    27    27    28    1
    28    27     3   ar
    29    23     6    1
    30    16     8    1
    31    22    17   ar
    32     1    29    1
    33     1    30    1
    34     1    31    1
    35     7    32    1
    36     7    33    1
    37     8    34    1
    38    12    35    1
    39    12    36    1
    40    12    37    1
    41    14    38    1
    42    15    39    1
    43    18    40    1
    44    19    41    1
    45    23    42    1
    46    23    43    1
    47    26    44    1
    48    26    45    1
    49    26    46    1
