@<TRIPOS>MOLECULE
*****
 35 37 0 0 0
SMALL
GASTEIGER

@<TRIPOS>ATOM
      1 C           4.0675   -1.7010    0.9150 C.3     1  UNL1        0.0137
      2 N           3.7745   -0.4247    0.2974 N.ar    1  UNL1       -0.3286
      3 C           4.4356    0.1296   -0.7292 C.ar    1  UNL1        0.0247
      4 C           3.8608    1.3294   -1.0220 C.ar    1  UNL1        0.0466
      5 N           2.8413    1.5096   -0.1686 N.ar    1  UNL1       -0.2303
      6 C           2.7767    0.4397    0.6477 C.ar    1  UNL1        0.1687
      7 S           1.6172    0.1904    1.9545 S.3     1  UNL1       -0.0863
      8 C           0.1300   -0.6814    1.4778 C.3     1  UNL1        0.0178
      9 C          -0.7307    0.0700    0.5320 C.3     1  UNL1        0.0538
     10 C          -0.0694    0.4143   -0.7832 C.3     1  UNL1       -0.0473
     11 S          -1.3283    1.6444    1.2989 S.3     1  UNL1       -0.1270
     12 C          -2.5982    1.8085    0.0188 C.3     1  UNL1        0.0945
     13 C          -4.0033    2.0143    0.4103 C.3     1  UNL1        0.1188
     14 BR         -4.4850    1.5179    2.1982 Br      1  UNL1       -0.0754
     15 C          -4.1996    0.9514   -0.6083 C.2     1  UNL1        0.2334
     16 O          -5.0246    0.6728   -1.4831 O.2     1  UNL1       -0.2742
     17 N          -3.0040    0.3898   -0.1254 N.am    1  UNL1       -0.2721
     18 C          -2.0552   -0.5516    0.2708 C.3     1  UNL1        0.1389
     19 C          -1.9811   -1.6335   -0.7571 C.2     1  UNL1        0.3269
     20 O          -1.1835   -2.5934   -0.6019 O.2     1  UNL1       -0.2489
     21 O          -2.7667   -1.6311   -1.9002 O.3     1  UNL1       -0.4793
     22 H           5.1672   -1.7989    1.0384 H       1  UNL1        0.0456
     23 H           3.7660   -2.5254    0.2295 H       1  UNL1        0.0456
     24 H           3.5518   -1.8316    1.8714 H       1  UNL1        0.0456
     25 H           5.2818   -0.3352   -1.2153 H       1  UNL1        0.0825
     26 H           4.1973    2.0051   -1.8222 H       1  UNL1        0.0845
     27 H           0.4290   -1.6319    0.9538 H       1  UNL1        0.0395
     28 H          -0.4559   -0.9013    2.3881 H       1  UNL1        0.0395
     29 H           0.1473    1.4955   -0.8694 H       1  UNL1        0.0244
     30 H          -0.7835    0.2088   -1.6321 H       1  UNL1        0.0244
     31 H           0.8063   -0.2198   -0.9545 H       1  UNL1        0.0244
     32 H          -2.2987    2.2899   -0.9086 H       1  UNL1        0.0633
     33 H          -4.4596    2.9965    0.1422 H       1  UNL1        0.0540
     34 H          -2.3152   -1.0990    1.2346 H       1  UNL1        0.0631
     35 H          -3.1079   -2.5183   -2.2982 H       1  UNL1        0.2951
@<TRIPOS>BOND
     1     1     2    1
     2     2     3   ar
     3     3     4   ar
     4     4     5   ar
     5     5     6   ar
     6     6     7    1
     7     7     8    1
     8     9     8    1
     9     9    10    1
    10     9    11    1
    11    11    12    1
    12    12    13    1
    13    13    14    1
    14    13    15    1
    15    15    16    2
    16    15    17   am
    17    17    18    1
    18    18    19    1
    19    19    20    2
    20    19    21    1
    21     6     2   ar
    22    18     9    1
    23    17    12    1
    24     1    22    1
    25     1    23    1
    26     1    24    1
    27     3    25    1
    28     4    26    1
    29     8    27    1
    30     8    28    1
    31    10    29    1
    32    10    30    1
    33    10    31    1
    34    12    32    1
    35    13    33    1
    36    18    34    1
    37    21    35    1
