
     RDKit          3D

 35 37  0  0  0  0  0  0  0  0999 V2000
    4.0675   -1.7010    0.9150 C   0  0  0  0  0  0  0  0  0  0  0  0
    3.7745   -0.4247    0.2974 N   0  0  0  0  0  0  0  0  0  0  0  0
    4.4356    0.1296   -0.7292 C   0  0  0  0  0  0  0  0  0  0  0  0
    3.8608    1.3294   -1.0220 C   0  0  0  0  0  0  0  0  0  0  0  0
    2.8413    1.5096   -0.1686 N   0  0  0  0  0  0  0  0  0  0  0  0
    2.7767    0.4397    0.6477 C   0  0  0  0  0  0  0  0  0  0  0  0
    1.6172    0.1904    1.9545 S   0  0  0  0  0  0  0  0  0  0  0  0
    0.1300   -0.6814    1.4778 C   0  0  0  0  0  0  0  0  0  0  0  0
   -0.7307    0.0700    0.5320 C   0  0  2  0  0  0  0  0  0  0  0  0
   -0.0694    0.4143   -0.7832 C   0  0  0  0  0  0  0  0  0  0  0  0
   -1.3283    1.6444    1.2989 S   0  0  0  0  0  0  0  0  0  0  0  0
   -2.5982    1.8085    0.0188 C   0  0  2  0  0  0  0  0  0  0  0  0
   -4.0033    2.0143    0.4103 C   0  0  2  0  0  0  0  0  0  0  0  0
   -4.4850    1.5179    2.1982 Br  0  0  0  0  0  0  0  0  0  0  0  0
   -4.1996    0.9514   -0.6083 C   0  0  0  0  0  0  0  0  0  0  0  0
   -5.0246    0.6728   -1.4831 O   0  0  0  0  0  0  0  0  0  0  0  0
   -3.0040    0.3898   -0.1254 N   0  0  0  0  0  0  0  0  0  0  0  0
   -2.0552   -0.5516    0.2708 C   0  0  1  0  0  0  0  0  0  0  0  0
   -1.9811   -1.6335   -0.7571 C   0  0  0  0  0  0  0  0  0  0  0  0
   -1.1835   -2.5934   -0.6019 O   0  0  0  0  0  0  0  0  0  0  0  0
   -2.7667   -1.6311   -1.9002 O   0  0  0  0  0  0  0  0  0  0  0  0
    5.1672   -1.7989    1.0384 H   0  0  0  0  0  0  0  0  0  0  0  0
    3.7660   -2.5254    0.2295 H   0  0  0  0  0  0  0  0  0  0  0  0
    3.5518   -1.8316    1.8714 H   0  0  0  0  0  0  0  0  0  0  0  0
    5.2818   -0.3352   -1.2153 H   0  0  0  0  0  0  0  0  0  0  0  0
    4.1973    2.0051   -1.8222 H   0  0  0  0  0  0  0  0  0  0  0  0
    0.4290   -1.6319    0.9538 H   0  0  0  0  0  0  0  0  0  0  0  0
   -0.4559   -0.9013    2.3881 H   0  0  0  0  0  0  0  0  0  0  0  0
    0.1473    1.4955   -0.8694 H   0  0  0  0  0  0  0  0  0  0  0  0
   -0.7835    0.2088   -1.6321 H   0  0  0  0  0  0  0  0  0  0  0  0
    0.8063   -0.2198   -0.9545 H   0  0  0  0  0  0  0  0  0  0  0  0
   -2.2987    2.2899   -0.9086 H   0  0  0  0  0  0  0  0  0  0  0  0
   -4.4596    2.9965    0.1422 H   0  0  0  0  0  0  0  0  0  0  0  0
   -2.3152   -1.0990    1.2346 H   0  0  0  0  0  0  0  0  0  0  0  0
   -3.1079   -2.5183   -2.2982 H   0  0  0  0  0  0  0  0  0  0  0  0
  1  2  1  0
  2  3  1  0
  3  4  2  0
  4  5  1  0
  5  6  2  0
  6  7  1  0
  7  8  1  0
  9  8  1  1
  9 10  1  0
  9 11  1  0
 11 12  1  0
 12 13  1  0
 13 14  1  0
 13 15  1  0
 15 16  2  0
 15 17  1  0
 17 18  1  0
 18 19  1  0
 19 20  2  0
 19 21  1  0
  6  2  1  0
 18  9  1  0
 17 12  1  0
  1 22  1  0
  1 23  1  0
  1 24  1  0
  3 25  1  0
  4 26  1  0
  8 27  1  0
  8 28  1  0
 10 29  1  0
 10 30  1  0
 10 31  1  0
 12 32  1  6
 13 33  1  6
 18 34  1  1
 21 35  1  0
M  END
$$$$
