@<TRIPOS>MOLECULE
*****
 49 52 0 0 0
SMALL
GASTEIGER

@<TRIPOS>ATOM
      1 C          -7.1323    0.4021    2.9791 C.3     1  UNL1        0.0125
      2 C          -5.9233    0.3248    2.0937 C.2     1  UNL1        0.2141
      3 O          -4.8585   -0.1775    2.5052 O.2     1  UNL1       -0.2758
      4 N          -5.9633    0.8191    0.7736 N.am    1  UNL1       -0.2857
      5 C          -4.8227    0.7432   -0.0539 C.ar    1  UNL1        0.0334
      6 C          -3.8740    1.7714   -0.1013 C.ar    1  UNL1       -0.0402
      7 C          -2.7631    1.6912   -0.9109 C.ar    1  UNL1       -0.0551
      8 C          -2.5546    0.5831   -1.7048 C.ar    1  UNL1       -0.0259
      9 C          -1.3738    0.5147   -2.5578 C.3     1  UNL1        0.0703
     10 N          -0.2080   -0.0972   -1.8849 N.ar    1  UNL1       -0.2228
     11 N           0.6265    0.6399   -1.2290 N.ar    1  UNL1       -0.1520
     12 C           1.7490    0.2228   -0.5579 C.ar    1  UNL1        0.1525
     13 N           2.5393    1.1722    0.1035 N.pl3   1  UNL1       -0.2829
     14 C           3.7169    1.1835    0.8141 C.ar    1  UNL1        0.1196
     15 C           4.9736    1.3918    0.2353 C.ar    1  UNL1        0.0006
     16 C           5.9218    1.3823    1.2260 C.ar    1  UNL1        0.0616
     17 C           7.3924    1.5713    1.0282 C.3     1  UNL1       -0.0206
     18 N           5.2524    1.1729    2.3766 N.ar    1  UNL1       -0.1775
     19 N           3.9570    1.0537    2.1551 N.ar    1  UNL1       -0.2637
     20 C           1.9921   -1.1144   -0.5990 C.ar    1  UNL1        0.0291
     21 C           3.0859   -1.6495    0.0401 C.ar    1  UNL1       -0.0505
     22 C           3.3307   -3.0042    0.0008 C.ar    1  UNL1       -0.0611
     23 C           2.4841   -3.8296   -0.6768 C.ar    1  UNL1       -0.0610
     24 C           1.3810   -3.2848   -1.3200 C.ar    1  UNL1       -0.0487
     25 C           1.1010   -1.9324   -1.3040 C.ar    1  UNL1        0.0514
     26 C          -0.0069   -1.4214   -1.9519 C.ar    1  UNL1        0.2754
     27 O          -0.7698   -2.1786   -2.5642 O.2     1  UNL1       -0.2655
     28 C          -3.4756   -0.4425   -1.6748 C.ar    1  UNL1       -0.0551
     29 C          -4.5825   -0.3487   -0.8599 C.ar    1  UNL1       -0.0402
     30 H          -6.9443   -0.2329    3.8627 H       1  UNL1        0.0323
     31 H          -8.0348    0.0603    2.4416 H       1  UNL1        0.0323
     32 H          -7.2421    1.4586    3.2671 H       1  UNL1        0.0323
     33 H          -6.8317    1.2386    0.4119 H       1  UNL1        0.1548
     34 H          -4.0251    2.6492    0.5183 H       1  UNL1        0.0636
     35 H          -2.0624    2.5376   -0.8950 H       1  UNL1        0.0621
     36 H          -1.0235    1.5362   -2.8496 H       1  UNL1        0.0560
     37 H          -1.5101   -0.0963   -3.4861 H       1  UNL1        0.0560
     38 H           2.1044    2.1926    0.0477 H       1  UNL1        0.1550
     39 H           5.1860    1.5371   -0.8049 H       1  UNL1        0.0670
     40 H           7.5640    2.3645    0.2472 H       1  UNL1        0.0293
     41 H           7.9021    1.9099    1.9393 H       1  UNL1        0.0293
     42 H           7.8656    0.6441    0.6457 H       1  UNL1        0.0293
     43 H           3.1691    0.8875    2.8207 H       1  UNL1        0.1903
     44 H           3.7899   -1.0676    0.5925 H       1  UNL1        0.0625
     45 H           4.1897   -3.4219    0.5024 H       1  UNL1        0.0618
     46 H           2.6739   -4.8950   -0.7093 H       1  UNL1        0.0618
     47 H           0.7402   -3.9645   -1.8410 H       1  UNL1        0.0625
     48 H          -3.3735   -1.3443   -2.2737 H       1  UNL1        0.0621
     49 H          -5.3324   -1.1526   -0.8179 H       1  UNL1        0.0636
@<TRIPOS>BOND
     1     1     2    1
     2     2     3    2
     3     2     4   am
     4     4     5    1
     5     5     6   ar
     6     6     7   ar
     7     7     8   ar
     8     8     9    1
     9     9    10    1
    10    10    11   ar
    11    11    12   ar
    12    12    13    1
    13    13    14    1
    14    14    15   ar
    15    15    16   ar
    16    16    17    1
    17    16    18   ar
    18    18    19   ar
    19    12    20   ar
    20    20    21   ar
    21    21    22   ar
    22    22    23   ar
    23    23    24   ar
    24    24    25   ar
    25    25    26   ar
    26    26    27    2
    27     8    28   ar
    28    28    29   ar
    29    29     5   ar
    30    26    10   ar
    31    19    14   ar
    32    25    20   ar
    33     1    30    1
    34     1    31    1
    35     1    32    1
    36     4    33    1
    37     6    34    1
    38     7    35    1
    39     9    36    1
    40     9    37    1
    41    13    38    1
    42    15    39    1
    43    17    40    1
    44    17    41    1
    45    17    42    1
    46    19    43    1
    47    21    44    1
    48    22    45    1
    49    23    46    1
    50    24    47    1
    51    28    48    1
    52    29    49    1
