
     RDKit          3D

 49 52  0  0  0  0  0  0  0  0999 V2000
   -7.1323    0.4021    2.9791 C   0  0  0  0  0  0  0  0  0  0  0  0
   -5.9233    0.3248    2.0937 C   0  0  0  0  0  0  0  0  0  0  0  0
   -4.8585   -0.1775    2.5052 O   0  0  0  0  0  0  0  0  0  0  0  0
   -5.9633    0.8191    0.7736 N   0  0  0  0  0  0  0  0  0  0  0  0
   -4.8227    0.7432   -0.0539 C   0  0  0  0  0  0  0  0  0  0  0  0
   -3.8740    1.7714   -0.1013 C   0  0  0  0  0  0  0  0  0  0  0  0
   -2.7631    1.6912   -0.9109 C   0  0  0  0  0  0  0  0  0  0  0  0
   -2.5546    0.5831   -1.7048 C   0  0  0  0  0  0  0  0  0  0  0  0
   -1.3738    0.5147   -2.5578 C   0  0  0  0  0  0  0  0  0  0  0  0
   -0.2080   -0.0972   -1.8849 N   0  0  0  0  0  0  0  0  0  0  0  0
    0.6265    0.6399   -1.2290 N   0  0  0  0  0  0  0  0  0  0  0  0
    1.7490    0.2228   -0.5579 C   0  0  0  0  0  0  0  0  0  0  0  0
    2.5393    1.1722    0.1035 N   0  0  0  0  0  0  0  0  0  0  0  0
    3.7169    1.1835    0.8141 C   0  0  0  0  0  0  0  0  0  0  0  0
    4.9736    1.3918    0.2353 C   0  0  0  0  0  0  0  0  0  0  0  0
    5.9218    1.3823    1.2260 C   0  0  0  0  0  0  0  0  0  0  0  0
    7.3924    1.5713    1.0282 C   0  0  0  0  0  0  0  0  0  0  0  0
    5.2524    1.1729    2.3766 N   0  0  0  0  0  0  0  0  0  0  0  0
    3.9570    1.0537    2.1551 N   0  0  0  0  0  0  0  0  0  0  0  0
    1.9921   -1.1144   -0.5990 C   0  0  0  0  0  0  0  0  0  0  0  0
    3.0859   -1.6495    0.0401 C   0  0  0  0  0  0  0  0  0  0  0  0
    3.3307   -3.0042    0.0008 C   0  0  0  0  0  0  0  0  0  0  0  0
    2.4841   -3.8296   -0.6768 C   0  0  0  0  0  0  0  0  0  0  0  0
    1.3810   -3.2848   -1.3200 C   0  0  0  0  0  0  0  0  0  0  0  0
    1.1010   -1.9324   -1.3040 C   0  0  0  0  0  0  0  0  0  0  0  0
   -0.0069   -1.4214   -1.9519 C   0  0  0  0  0  0  0  0  0  0  0  0
   -0.7698   -2.1786   -2.5642 O   0  0  0  0  0  0  0  0  0  0  0  0
   -3.4756   -0.4425   -1.6748 C   0  0  0  0  0  0  0  0  0  0  0  0
   -4.5825   -0.3487   -0.8599 C   0  0  0  0  0  0  0  0  0  0  0  0
   -6.9443   -0.2329    3.8627 H   0  0  0  0  0  0  0  0  0  0  0  0
   -8.0348    0.0603    2.4416 H   0  0  0  0  0  0  0  0  0  0  0  0
   -7.2421    1.4586    3.2671 H   0  0  0  0  0  0  0  0  0  0  0  0
   -6.8317    1.2386    0.4119 H   0  0  0  0  0  0  0  0  0  0  0  0
   -4.0251    2.6492    0.5183 H   0  0  0  0  0  0  0  0  0  0  0  0
   -2.0624    2.5376   -0.8950 H   0  0  0  0  0  0  0  0  0  0  0  0
   -1.0235    1.5362   -2.8496 H   0  0  0  0  0  0  0  0  0  0  0  0
   -1.5101   -0.0963   -3.4861 H   0  0  0  0  0  0  0  0  0  0  0  0
    2.1044    2.1926    0.0477 H   0  0  0  0  0  0  0  0  0  0  0  0
    5.1860    1.5371   -0.8049 H   0  0  0  0  0  0  0  0  0  0  0  0
    7.5640    2.3645    0.2472 H   0  0  0  0  0  0  0  0  0  0  0  0
    7.9021    1.9099    1.9393 H   0  0  0  0  0  0  0  0  0  0  0  0
    7.8656    0.6441    0.6457 H   0  0  0  0  0  0  0  0  0  0  0  0
    3.1691    0.8875    2.8207 H   0  0  0  0  0  0  0  0  0  0  0  0
    3.7899   -1.0676    0.5925 H   0  0  0  0  0  0  0  0  0  0  0  0
    4.1897   -3.4219    0.5024 H   0  0  0  0  0  0  0  0  0  0  0  0
    2.6739   -4.8950   -0.7093 H   0  0  0  0  0  0  0  0  0  0  0  0
    0.7402   -3.9645   -1.8410 H   0  0  0  0  0  0  0  0  0  0  0  0
   -3.3735   -1.3443   -2.2737 H   0  0  0  0  0  0  0  0  0  0  0  0
   -5.3324   -1.1526   -0.8179 H   0  0  0  0  0  0  0  0  0  0  0  0
  1  2  1  0
  2  3  2  0
  2  4  1  0
  4  5  1  0
  5  6  2  0
  6  7  1  0
  7  8  2  0
  8  9  1  0
  9 10  1  0
 10 11  1  0
 11 12  2  0
 12 13  1  0
 13 14  1  0
 14 15  2  0
 15 16  1  0
 16 17  1  0
 16 18  2  0
 18 19  1  0
 12 20  1  0
 20 21  2  0
 21 22  1  0
 22 23  2  0
 23 24  1  0
 24 25  2  0
 25 26  1  0
 26 27  2  0
  8 28  1  0
 28 29  2  0
 29  5  1  0
 26 10  1  0
 19 14  1  0
 25 20  1  0
  1 30  1  0
  1 31  1  0
  1 32  1  0
  4 33  1  0
  6 34  1  0
  7 35  1  0
  9 36  1  0
  9 37  1  0
 13 38  1  0
 15 39  1  0
 17 40  1  0
 17 41  1  0
 17 42  1  0
 19 43  1  0
 21 44  1  0
 22 45  1  0
 23 46  1  0
 24 47  1  0
 28 48  1  0
 29 49  1  0
M  END
$$$$
