@<TRIPOS>MOLECULE
*****
 24 24 0 0 0
SMALL
GASTEIGER

@<TRIPOS>ATOM
      1 C           3.5747    0.2724   -0.2258 C.3     1  UNL1        0.0201
      2 N           2.2223    0.2222    0.3847 N.ar    1  UNL1       -0.2566
      3 C           2.0822    0.3548    1.7677 C.ar    1  UNL1        0.3104
      4 O           3.0784    0.5261    2.5952 O.2     1  UNL1       -0.2578
      5 S           0.4116    0.2420    2.0505 S.2     1  UNL1        0.0551
      6 N          -0.0631    0.0202    0.3139 N.ar    1  UNL1       -0.2544
      7 C          -1.4076   -0.1432   -0.1539 C.3     1  UNL1        0.0488
      8 C          -2.3570    0.0330    1.0143 C.3     1  UNL1       -0.0411
      9 C          -1.6838    0.9579   -1.1551 C.3     1  UNL1       -0.0411
     10 C          -1.6782   -1.5122   -0.7247 C.3     1  UNL1       -0.0411
     11 C           1.1316    0.0595   -0.2839 C.ar    1  UNL1        0.3388
     12 O           1.1127   -0.0780   -1.5860 O.2     1  UNL1       -0.2457
     13 H           3.5445   -0.2084   -1.2241 H       1  UNL1        0.0458
     14 H           3.9330    1.2916   -0.3381 H       1  UNL1        0.0458
     15 H           4.2724   -0.3193    0.3857 H       1  UNL1        0.0458
     16 H          -3.3014   -0.5345    0.8628 H       1  UNL1        0.0252
     17 H          -2.5194    1.0971    1.2581 H       1  UNL1        0.0252
     18 H          -1.8254   -0.4156    1.9038 H       1  UNL1        0.0252
     19 H          -1.1529    1.8742   -0.7818 H       1  UNL1        0.0252
     20 H          -1.2609    0.6664   -2.1375 H       1  UNL1        0.0252
     21 H          -2.7683    1.1730   -1.2566 H       1  UNL1        0.0252
     22 H          -0.8369   -1.9573   -1.2475 H       1  UNL1        0.0252
     23 H          -2.0062   -2.2402    0.0600 H       1  UNL1        0.0252
     24 H          -2.5023   -1.3817   -1.4818 H       1  UNL1        0.0252
@<TRIPOS>BOND
     1     1     2    1
     2     2     3   ar
     3     3     4    2
     4     3     5   ar
     5     5     6   ar
     6     6     7    1
     7     7     8    1
     8     7     9    1
     9     7    10    1
    10     6    11   ar
    11    11    12    2
    12    11     2   ar
    13     1    13    1
    14     1    14    1
    15     1    15    1
    16     8    16    1
    17     8    17    1
    18     8    18    1
    19     9    19    1
    20     9    20    1
    21     9    21    1
    22    10    22    1
    23    10    23    1
    24    10    24    1
