
     RDKit          3D

 24 24  0  0  0  0  0  0  0  0999 V2000
    3.5747    0.2724   -0.2258 C   0  0  0  0  0  0  0  0  0  0  0  0
    2.2223    0.2222    0.3847 N   0  0  0  0  0  0  0  0  0  0  0  0
    2.0822    0.3548    1.7677 C   0  0  0  0  0  0  0  0  0  0  0  0
    3.0784    0.5261    2.5952 O   0  0  0  0  0  0  0  0  0  0  0  0
    0.4116    0.2420    2.0505 S   0  0  0  0  0  0  0  0  0  0  0  0
   -0.0631    0.0202    0.3139 N   0  0  0  0  0  0  0  0  0  0  0  0
   -1.4076   -0.1432   -0.1539 C   0  0  0  0  0  0  0  0  0  0  0  0
   -2.3570    0.0330    1.0143 C   0  0  0  0  0  0  0  0  0  0  0  0
   -1.6838    0.9579   -1.1551 C   0  0  0  0  0  0  0  0  0  0  0  0
   -1.6782   -1.5122   -0.7247 C   0  0  0  0  0  0  0  0  0  0  0  0
    1.1316    0.0595   -0.2839 C   0  0  0  0  0  0  0  0  0  0  0  0
    1.1127   -0.0780   -1.5860 O   0  0  0  0  0  0  0  0  0  0  0  0
    3.5445   -0.2084   -1.2241 H   0  0  0  0  0  0  0  0  0  0  0  0
    3.9330    1.2916   -0.3381 H   0  0  0  0  0  0  0  0  0  0  0  0
    4.2724   -0.3193    0.3857 H   0  0  0  0  0  0  0  0  0  0  0  0
   -3.3014   -0.5345    0.8628 H   0  0  0  0  0  0  0  0  0  0  0  0
   -2.5194    1.0971    1.2581 H   0  0  0  0  0  0  0  0  0  0  0  0
   -1.8254   -0.4156    1.9038 H   0  0  0  0  0  0  0  0  0  0  0  0
   -1.1529    1.8742   -0.7818 H   0  0  0  0  0  0  0  0  0  0  0  0
   -1.2609    0.6664   -2.1375 H   0  0  0  0  0  0  0  0  0  0  0  0
   -2.7683    1.1730   -1.2566 H   0  0  0  0  0  0  0  0  0  0  0  0
   -0.8369   -1.9573   -1.2475 H   0  0  0  0  0  0  0  0  0  0  0  0
   -2.0062   -2.2402    0.0600 H   0  0  0  0  0  0  0  0  0  0  0  0
   -2.5023   -1.3817   -1.4818 H   0  0  0  0  0  0  0  0  0  0  0  0
  1  2  1  0
  2  3  1  0
  3  4  2  0
  3  5  1  0
  5  6  1  0
  6  7  1  0
  7  8  1  0
  7  9  1  0
  7 10  1  0
  6 11  1  0
 11 12  2  0
 11  2  1  0
  1 13  1  0
  1 14  1  0
  1 15  1  0
  8 16  1  0
  8 17  1  0
  8 18  1  0
  9 19  1  0
  9 20  1  0
  9 21  1  0
 10 22  1  0
 10 23  1  0
 10 24  1  0
M  END
$$$$
