@<TRIPOS>MOLECULE
*****
 64 67 0 0 0
SMALL
GASTEIGER

@<TRIPOS>ATOM
      1 C          -1.6642    2.4294    1.2213 C.1     1  UNL1       -0.1186
      2 C          -2.0286    1.3932    1.7075 C.1     1  UNL1       -0.0992
      3 C          -2.4665    0.1486    2.3187 C.3     1  UNL1        0.0300
      4 C          -1.6951   -0.0060    3.6662 C.3     1  UNL1       -0.0487
      5 C          -3.9094    0.1181    2.7110 C.3     1  UNL1       -0.0487
      6 C          -2.0605   -1.0244    1.5119 C.3     1  UNL1        0.0076
      7 C          -2.5440   -1.0955    0.0982 C.3     1  UNL1        0.1428
      8 C          -4.0139   -1.1111   -0.0663 C.ar    1  UNL1       -0.0041
      9 C          -4.7230    0.0437   -0.3090 C.ar    1  UNL1       -0.0548
     10 C          -6.0911   -0.0044   -0.4629 C.ar    1  UNL1       -0.0614
     11 C          -6.8183   -1.1780   -0.3860 C.ar    1  UNL1       -0.0617
     12 C          -6.1240   -2.3219   -0.1465 C.ar    1  UNL1       -0.0614
     13 C          -4.7569   -2.2960    0.0104 C.ar    1  UNL1       -0.0548
     14 C          -2.0495   -2.4158   -0.4653 C.3     1  UNL1        0.0075
     15 C          -0.5561   -2.4526   -0.6728 C.3     1  UNL1        0.0224
     16 N          -0.0123   -1.2972   -1.3125 N.am    1  UNL1       -0.2605
     17 C           1.1542   -1.3406   -2.1682 C.3     1  UNL1        0.0515
     18 C           0.7718   -0.9219   -3.5662 C.3     1  UNL1       -0.0421
     19 C           2.2548   -0.4804   -1.6315 C.ar    1  UNL1       -0.0271
     20 C           2.9859    0.3654   -2.4302 C.ar    1  UNL1       -0.0562
     21 C           4.0144    1.1694   -1.9484 C.ar    1  UNL1       -0.0537
     22 C           4.3396    1.1361   -0.5979 C.ar    1  UNL1       -0.0165
     23 C           5.4179    1.9705   -0.0571 C.ar    1  UNL1       -0.0017
     24 C           6.1304    1.4617    1.0377 C.ar    1  UNL1       -0.0475
     25 C           7.1428    2.2049    1.5747 C.ar    1  UNL1        0.0034
     26 C           7.4302    3.4313    1.0217 C.ar    1  UNL1        0.2487
     27 O           8.3728    4.1293    1.5177 O.2     1  UNL1       -0.2679
     28 N           6.7270    3.8987   -0.0347 N.ar    1  UNL1       -0.3285
     29 C           5.7314    3.1849   -0.5747 C.ar    1  UNL1        0.0126
     30 C           3.6040    0.2878    0.1961 C.ar    1  UNL1       -0.0537
     31 C           2.5874   -0.5048   -0.2898 C.ar    1  UNL1       -0.0562
     32 C          -0.6447   -0.0436   -1.0934 C.2     1  UNL1        0.4042
     33 O          -0.0633    1.0543   -1.2318 O.2     1  UNL1       -0.2262
     34 O          -1.9762   -0.0688   -0.7067 O.3     1  UNL1       -0.4388
     35 H          -1.3583    3.3384    0.8104 H       1  UNL1        0.1228
     36 H          -2.1641    0.6963    4.3609 H       1  UNL1        0.0244
     37 H          -0.6228    0.1920    3.4653 H       1  UNL1        0.0244
     38 H          -1.8188   -1.0520    3.9452 H       1  UNL1        0.0244
     39 H          -4.4145    1.0441    2.3418 H       1  UNL1        0.0244
     40 H          -4.4665   -0.7749    2.4297 H       1  UNL1        0.0244
     41 H          -4.0558    0.1859    3.8375 H       1  UNL1        0.0244
     42 H          -0.9439   -1.0412    1.4666 H       1  UNL1        0.0322
     43 H          -2.3919   -2.0001    1.9894 H       1  UNL1        0.0322
     44 H          -4.2262    1.0219   -0.3875 H       1  UNL1        0.0622
     45 H          -6.6491    0.9069   -0.6546 H       1  UNL1        0.0618
     46 H          -7.8791   -1.2319   -0.5024 H       1  UNL1        0.0618
     47 H          -6.6593   -3.2770   -0.0779 H       1  UNL1        0.0618
     48 H          -4.2761   -3.2326    0.1969 H       1  UNL1        0.0622
     49 H          -2.5336   -2.5963   -1.4336 H       1  UNL1        0.0322
     50 H          -2.2546   -3.2379    0.2830 H       1  UNL1        0.0322
     51 H          -0.0585   -2.6026    0.3301 H       1  UNL1        0.0467
     52 H          -0.3616   -3.3972   -1.2582 H       1  UNL1        0.0467
     53 H           1.4776   -2.4072   -2.2157 H       1  UNL1        0.0549
     54 H          -0.1912   -1.3833   -3.8851 H       1  UNL1        0.0251
     55 H           0.7607    0.1805   -3.6903 H       1  UNL1        0.0251
     56 H           1.5430   -1.3108   -4.2626 H       1  UNL1        0.0251
     57 H           2.7670    0.4273   -3.5070 H       1  UNL1        0.0621
     58 H           4.5895    1.8333   -2.5702 H       1  UNL1        0.0624
     59 H           5.8795    0.4966    1.4456 H       1  UNL1        0.0626
     60 H           7.7120    1.8220    2.4315 H       1  UNL1        0.0672
     61 H           7.0160    4.8428   -0.3904 H       1  UNL1        0.1683
     62 H           5.1805    3.5681   -1.4154 H       1  UNL1        0.0814
     63 H           3.8618    0.2613    1.2666 H       1  UNL1        0.0624
     64 H           2.0715   -1.1368    0.4192 H       1  UNL1        0.0621
@<TRIPOS>BOND
     1     1     2    3
     2     2     3    1
     3     3     4    1
     4     3     5    1
     5     3     6    1
     6     7     6    1
     7     7     8    1
     8     8     9   ar
     9     9    10   ar
    10    10    11   ar
    11    11    12   ar
    12    12    13   ar
    13     7    14    1
    14    14    15    1
    15    15    16    1
    16    16    17    1
    17    17    18    1
    18    17    19    1
    19    19    20   ar
    20    20    21   ar
    21    21    22   ar
    22    22    23    1
    23    23    24   ar
    24    24    25   ar
    25    25    26   ar
    26    26    27    2
    27    26    28   ar
    28    28    29   ar
    29    22    30   ar
    30    30    31   ar
    31    16    32   am
    32    32    33    2
    33    32    34    1
    34    34     7    1
    35    13     8   ar
    36    31    19   ar
    37    29    23   ar
    38     1    35    1
    39     4    36    1
    40     4    37    1
    41     4    38    1
    42     5    39    1
    43     5    40    1
    44     5    41    1
    45     6    42    1
    46     6    43    1
    47     9    44    1
    48    10    45    1
    49    11    46    1
    50    12    47    1
    51    13    48    1
    52    14    49    1
    53    14    50    1
    54    15    51    1
    55    15    52    1
    56    17    53    1
    57    18    54    1
    58    18    55    1
    59    18    56    1
    60    20    57    1
    61    21    58    1
    62    24    59    1
    63    25    60    1
    64    28    61    1
    65    29    62    1
    66    30    63    1
    67    31    64    1
