@<TRIPOS>MOLECULE
*****
 47 51 0 0 0
SMALL
GASTEIGER

@<TRIPOS>ATOM
      1 C           2.4893   -2.0668   -2.3556 C.3     1  UNL1       -0.0389
      2 C           1.1803   -1.6374   -1.8256 C.ar    1  UNL1       -0.0362
      3 C           0.0295   -2.3015   -2.2462 C.ar    1  UNL1       -0.0414
      4 C          -1.1942   -1.8997   -1.7503 C.ar    1  UNL1        0.0135
      5 N          -1.2409   -0.8798   -0.8765 N.ar    1  UNL1       -0.2837
      6 C          -2.5106   -0.4862   -0.3819 C.ar    1  UNL1        0.0495
      7 C          -2.9168    0.8379   -0.4590 C.ar    1  UNL1       -0.0370
      8 C          -4.1613    1.1309    0.0441 C.ar    1  UNL1       -0.0475
      9 C          -4.9952    0.1777    0.6070 C.ar    1  UNL1        0.0370
     10 C          -6.3112    0.5232    1.1321 C.ar    1  UNL1        0.2271
     11 N          -7.1714   -0.3445    1.6901 N.ar    1  UNL1       -0.2175
     12 C          -8.2896    0.3013    2.0670 C.ar    1  UNL1        0.0663
     13 C          -8.0838    1.6171    1.7158 C.ar    1  UNL1        0.1125
     14 O          -6.8916    1.7061    1.1612 O.2     1  UNL1       -0.4436
     15 C          -4.5407   -1.1092    0.6551 C.ar    1  UNL1       -0.0475
     16 C          -3.3084   -1.4687    0.1706 C.ar    1  UNL1       -0.0370
     17 C          -0.1096   -0.2274   -0.4634 C.ar    1  UNL1        0.2637
     18 O          -0.1849    0.7206    0.3529 O.2     1  UNL1       -0.2667
     19 C           1.1277   -0.5996   -0.9358 C.ar    1  UNL1        0.0499
     20 C           2.3793    0.0436   -0.5456 C.ar    1  UNL1       -0.0117
     21 C           2.8537    1.1208   -1.2721 C.ar    1  UNL1       -0.0518
     22 C           4.0140    1.7482   -0.9431 C.ar    1  UNL1       -0.0350
     23 C           4.7530    1.3177    0.1375 C.ar    1  UNL1        0.0761
     24 N           5.8862    1.9117    0.4785 N.ar    1  UNL1       -0.2147
     25 C           6.5939    1.4868    1.5267 C.ar    1  UNL1        0.2131
     26 N           7.8005    2.1258    1.8830 N.pl3   1  UNL1       -0.3275
     27 N           6.1588    0.4499    2.2445 N.ar    1  UNL1       -0.2225
     28 C           5.0187   -0.1992    1.9554 C.ar    1  UNL1        0.0404
     29 C           4.2874    0.2449    0.8670 C.ar    1  UNL1        0.0192
     30 C           3.1130   -0.3853    0.5289 C.ar    1  UNL1       -0.0432
     31 H           2.8672   -2.9167   -1.7267 H       1  UNL1        0.0278
     32 H           2.3976   -2.4854   -3.3885 H       1  UNL1        0.0278
     33 H           3.2277   -1.2453   -2.4224 H       1  UNL1        0.0278
     34 H           0.0961   -3.1149   -2.9468 H       1  UNL1        0.0635
     35 H          -2.0895   -2.4222   -2.0825 H       1  UNL1        0.0814
     36 H          -2.2978    1.6080   -0.8891 H       1  UNL1        0.0638
     37 H          -4.5419    2.1451    0.0164 H       1  UNL1        0.0626
     38 H          -9.1823   -0.0527    2.5387 H       1  UNL1        0.0862
     39 H          -8.7206    2.4753    1.8341 H       1  UNL1        0.1046
     40 H          -5.1569   -1.8967    1.0874 H       1  UNL1        0.0626
     41 H          -2.9625   -2.4848    0.2143 H       1  UNL1        0.0638
     42 H           2.2880    1.4725   -2.1228 H       1  UNL1        0.0624
     43 H           4.4067    2.5907   -1.4930 H       1  UNL1        0.0639
     44 H           8.1703    2.1185    2.8767 H       1  UNL1        0.1452
     45 H           8.3352    2.6187    1.1280 H       1  UNL1        0.1452
     46 H           4.6487   -1.0410    2.5239 H       1  UNL1        0.0837
     47 H           2.7389   -1.2281    1.0948 H       1  UNL1        0.0631
@<TRIPOS>BOND
     1     1     2    1
     2     2     3   ar
     3     3     4   ar
     4     4     5   ar
     5     5     6    1
     6     6     7   ar
     7     7     8   ar
     8     8     9   ar
     9     9    10    1
    10    10    11   ar
    11    11    12   ar
    12    12    13   ar
    13    13    14   ar
    14     9    15   ar
    15    15    16   ar
    16     5    17   ar
    17    17    18    2
    18    17    19   ar
    19    19    20    1
    20    20    21   ar
    21    21    22   ar
    22    22    23   ar
    23    23    24   ar
    24    24    25   ar
    25    25    26    1
    26    25    27   ar
    27    27    28   ar
    28    28    29   ar
    29    29    30   ar
    30    19     2   ar
    31    30    20   ar
    32    16     6   ar
    33    29    23   ar
    34    14    10   ar
    35     1    31    1
    36     1    32    1
    37     1    33    1
    38     3    34    1
    39     4    35    1
    40     7    36    1
    41     8    37    1
    42    12    38    1
    43    13    39    1
    44    15    40    1
    45    16    41    1
    46    21    42    1
    47    22    43    1
    48    26    44    1
    49    26    45    1
    50    28    46    1
    51    30    47    1
