@<TRIPOS>MOLECULE
*****
 52 56 0 0 0
SMALL
GASTEIGER

@<TRIPOS>ATOM
      1 C           0.2739    3.1525    0.7644 C.3     1  UNL1       -0.0391
      2 C           1.4008    2.2548    0.4062 C.ar    1  UNL1       -0.0425
      3 C           2.7158    2.6431    0.5888 C.ar    1  UNL1       -0.0575
      4 C           3.7417    1.7586    0.2345 C.ar    1  UNL1       -0.0494
      5 C           3.5017    0.5078   -0.2923 C.ar    1  UNL1        0.0373
      6 C           4.5550   -0.4275   -0.6674 C.2     1  UNL1        0.2443
      7 O           4.2148   -1.5297   -1.1335 O.2     1  UNL1       -0.2702
      8 N           5.9171   -0.1542   -0.5323 N.am    1  UNL1       -0.3085
      9 C           6.9886   -1.0456   -0.8888 C.3     1  UNL1        0.0235
     10 C           8.3401   -0.6200   -1.2101 C.3     1  UNL1       -0.0328
     11 C           8.0563   -1.1701    0.1924 C.3     1  UNL1       -0.0328
     12 C           2.1597    0.1618   -0.4576 C.ar    1  UNL1       -0.0415
     13 C           1.1311    1.0076   -0.1196 C.ar    1  UNL1       -0.0091
     14 C          -0.2742    0.6422   -0.2940 C.ar    1  UNL1        0.0476
     15 C          -0.9668    0.9069   -1.4559 C.ar    1  UNL1       -0.0367
     16 C          -2.2975    0.5696   -1.6419 C.ar    1  UNL1        0.0381
     17 C          -3.1691    0.7307   -2.6882 C.ar    1  UNL1        0.0591
     18 N          -4.3397    0.2151   -2.3230 N.ar    1  UNL1       -0.1721
     19 N          -4.2147   -0.2625   -1.0735 N.ar    1  UNL1       -0.2100
     20 C          -5.2995   -0.8798   -0.4000 C.ar    1  UNL1        0.1377
     21 C          -5.9890   -0.2010    0.5717 C.ar    1  UNL1        0.1516
     22 F          -5.6198    1.0642    0.9015 F       1  UNL1       -0.2032
     23 C          -7.0696   -0.8184    1.2142 C.ar    1  UNL1       -0.0242
     24 C          -7.4440   -2.1022    0.8765 C.ar    1  UNL1       -0.0562
     25 C          -6.7382   -2.7712   -0.1047 C.ar    1  UNL1       -0.0242
     26 C          -5.6565   -2.1635   -0.7532 C.ar    1  UNL1        0.1516
     27 F          -4.9521   -2.8022   -1.7173 F       1  UNL1       -0.2032
     28 C          -2.9628   -0.0600   -0.6202 C.ar    1  UNL1        0.1469
     29 N          -2.3131   -0.3353    0.5350 N.ar    1  UNL1       -0.2953
     30 C          -3.0309   -0.9964    1.5964 C.3     1  UNL1        0.0167
     31 C          -0.9972    0.0085    0.6943 C.ar    1  UNL1        0.2603
     32 O          -0.4252   -0.2644    1.7851 O.2     1  UNL1       -0.2670
     33 H          -0.6389    2.6018    1.0175 H       1  UNL1        0.0278
     34 H           0.0723    3.8917   -0.0463 H       1  UNL1        0.0278
     35 H           0.5231    3.7798    1.6640 H       1  UNL1        0.0278
     36 H           2.9650    3.6120    0.9978 H       1  UNL1        0.0621
     37 H           4.7858    2.0615    0.3772 H       1  UNL1        0.0625
     38 H           6.2042    0.7697   -0.1415 H       1  UNL1        0.1493
     39 H           6.6481   -2.0188   -1.3010 H       1  UNL1        0.0498
     40 H           8.6947    0.4231   -1.1951 H       1  UNL1        0.0284
     41 H           8.9622   -1.2829   -1.8350 H       1  UNL1        0.0284
     42 H           8.4528   -2.1670    0.4424 H       1  UNL1        0.0284
     43 H           8.0443   -0.4617    1.0379 H       1  UNL1        0.0284
     44 H           1.9179   -0.8028   -0.8647 H       1  UNL1        0.0631
     45 H          -0.4652    1.3985   -2.2671 H       1  UNL1        0.0633
     46 H          -2.9227    1.2045   -3.6487 H       1  UNL1        0.0855
     47 H          -7.6051   -0.2643    1.9830 H       1  UNL1        0.0647
     48 H          -8.2809   -2.5682    1.3805 H       1  UNL1        0.0619
     49 H          -7.0256   -3.7771   -0.3746 H       1  UNL1        0.0647
     50 H          -3.6066   -0.2206    2.1473 H       1  UNL1        0.0457
     51 H          -2.2734   -1.3920    2.3314 H       1  UNL1        0.0457
     52 H          -3.6884   -1.8066    1.2457 H       1  UNL1        0.0457
@<TRIPOS>BOND
     1     1     2    1
     2     2     3   ar
     3     3     4   ar
     4     4     5   ar
     5     5     6    1
     6     6     7    2
     7     6     8   am
     8     8     9    1
     9     9    10    1
    10    10    11    1
    11     5    12   ar
    12    12    13   ar
    13    13    14    1
    14    14    15   ar
    15    15    16   ar
    16    16    17   ar
    17    17    18   ar
    18    18    19   ar
    19    19    20    1
    20    20    21   ar
    21    21    22    1
    22    21    23   ar
    23    23    24   ar
    24    24    25   ar
    25    25    26   ar
    26    26    27    1
    27    19    28   ar
    28    28    29   ar
    29    29    30    1
    30    29    31   ar
    31    31    32    2
    32    13     2   ar
    33    31    14   ar
    34    11     9    1
    35    28    16   ar
    36    26    20   ar
    37     1    33    1
    38     1    34    1
    39     1    35    1
    40     3    36    1
    41     4    37    1
    42     8    38    1
    43     9    39    1
    44    10    40    1
    45    10    41    1
    46    11    42    1
    47    11    43    1
    48    12    44    1
    49    15    45    1
    50    17    46    1
    51    23    47    1
    52    24    48    1
    53    25    49    1
    54    30    50    1
    55    30    51    1
    56    30    52    1
