@<TRIPOS>MOLECULE
*****
 48 49 0 0 0
SMALL
GASTEIGER

@<TRIPOS>ATOM
      1 C          -4.7810    2.1649   -1.6999 C.3     1  UNL1        0.0789
      2 O          -4.4256    1.3854   -0.6093 O.3     1  UNL1       -0.4933
      3 C          -3.2284    0.8040   -0.3178 C.ar    1  UNL1        0.1417
      4 C          -2.1239    0.9210   -1.1295 C.ar    1  UNL1       -0.0149
      5 C          -0.9341    0.3075   -0.7813 C.ar    1  UNL1       -0.0181
      6 C          -0.8688   -0.4209    0.3865 C.ar    1  UNL1        0.1235
      7 N           0.3458   -1.0469    0.7340 N.pl3   1  UNL1       -0.2975
      8 C           1.4324   -1.0694   -0.1835 C.ar    1  UNL1        0.0683
      9 C           2.5802   -0.3730    0.1462 C.ar    1  UNL1        0.0034
     10 C           3.6498   -0.3592   -0.6907 C.ar    1  UNL1        0.1430
     11 N           4.8194    0.3558   -0.3423 N.pl3   1  UNL1       -0.3264
     12 C           5.8700   -0.3043    0.4047 C.3     1  UNL1        0.0228
     13 C           7.0039    0.6411    0.6491 C.3     1  UNL1        0.0086
     14 N           6.6415    1.8060    1.3916 N.3     1  UNL1       -0.3285
     15 N           3.5699   -1.0349   -1.8443 N.ar    1  UNL1       -0.1336
     16 N           2.4799   -1.7087   -2.1772 N.ar    1  UNL1       -0.1409
     17 C           1.3859   -1.7517   -1.3699 C.ar    1  UNL1        0.1685
     18 C           0.2299   -2.5664   -1.7405 C.2     1  UNL1        0.2635
     19 N           0.2271   -3.1558   -3.0452 N.am    1  UNL1       -0.3240
     20 O          -0.7526   -2.7917   -1.0197 O.2     1  UNL1       -0.2686
     21 N          -1.9781   -0.5056    1.1476 N.ar    1  UNL1       -0.2329
     22 C          -3.1516    0.0699    0.8530 C.ar    1  UNL1        0.0874
     23 C          -4.2995   -0.1012    1.7786 C.3     1  UNL1       -0.0007
     24 C          -4.2994    1.0058    2.8030 C.3     1  UNL1       -0.0571
     25 C          -5.6170   -0.1578    1.0399 C.3     1  UNL1       -0.0571
     26 H          -4.0109    2.1962   -2.4692 H       1  UNL1        0.0660
     27 H          -4.9511    3.2154   -1.3391 H       1  UNL1        0.0660
     28 H          -5.7035    1.7770   -2.1774 H       1  UNL1        0.0660
     29 H          -2.1626    1.4976   -2.0600 H       1  UNL1        0.0656
     30 H          -0.0920    0.4265   -1.4498 H       1  UNL1        0.0653
     31 H           0.4763   -1.5016    1.6576 H       1  UNL1        0.1536
     32 H           2.6093    0.1693    1.0988 H       1  UNL1        0.0672
     33 H           4.8934    1.3500   -0.6366 H       1  UNL1        0.1475
     34 H           5.4143   -0.6019    1.3792 H       1  UNL1        0.0474
     35 H           6.2440   -1.2001   -0.1107 H       1  UNL1        0.0474
     36 H           7.3622    0.9858   -0.3624 H       1  UNL1        0.0437
     37 H           7.8470    0.0875    1.1485 H       1  UNL1        0.0437
     38 H           5.6561    2.0785    1.3477 H       1  UNL1        0.1183
     39 H           7.1282    1.9452    2.2810 H       1  UNL1        0.1183
     40 H           1.0614   -3.6938   -3.3381 H       1  UNL1        0.1453
     41 H          -0.6106   -3.0178   -3.6389 H       1  UNL1        0.1453
     42 H          -4.1702   -1.0765    2.2861 H       1  UNL1        0.0360
     43 H          -4.9761    1.8344    2.5545 H       1  UNL1        0.0236
     44 H          -4.6114    0.6259    3.8131 H       1  UNL1        0.0236
     45 H          -3.2471    1.3761    2.9708 H       1  UNL1        0.0236
     46 H          -5.5191   -0.6117    0.0493 H       1  UNL1        0.0236
     47 H          -6.1013    0.8439    0.9899 H       1  UNL1        0.0236
     48 H          -6.3120   -0.8200    1.6228 H       1  UNL1        0.0236
@<TRIPOS>BOND
     1     1     2    1
     2     2     3    1
     3     3     4   ar
     4     4     5   ar
     5     5     6   ar
     6     6     7    1
     7     7     8    1
     8     8     9   ar
     9     9    10   ar
    10    10    11    1
    11    11    12    1
    12    12    13    1
    13    13    14    1
    14    10    15   ar
    15    15    16   ar
    16    16    17   ar
    17    17    18    1
    18    18    19   am
    19    18    20    2
    20     6    21   ar
    21    21    22   ar
    22    22    23    1
    23    23    24    1
    24    23    25    1
    25    22     3   ar
    26    17     8   ar
    27     1    26    1
    28     1    27    1
    29     1    28    1
    30     4    29    1
    31     5    30    1
    32     7    31    1
    33     9    32    1
    34    11    33    1
    35    12    34    1
    36    12    35    1
    37    13    36    1
    38    13    37    1
    39    14    38    1
    40    14    39    1
    41    19    40    1
    42    19    41    1
    43    23    42    1
    44    24    43    1
    45    24    44    1
    46    24    45    1
    47    25    46    1
    48    25    47    1
    49    25    48    1
