
     RDKit          3D

 48 50  0  0  0  0  0  0  0  0999 V2000
   -2.3958   -1.7623   -2.7360 O   0  0  0  0  0  0  0  0  0  0  0  0
   -3.0666   -1.4214   -1.5913 N   0  0  0  0  0  0  0  0  0  0  0  0
   -2.6727   -0.1329   -1.1721 C   0  0  0  0  0  0  0  0  0  0  0  0
   -1.8526    0.6706   -1.6771 O   0  0  0  0  0  0  0  0  0  0  0  0
   -3.2392    0.5153    0.0591 C   0  0  0  0  0  0  0  0  0  0  0  0
   -2.6524    1.8574    0.2592 C   0  0  0  0  0  0  0  0  0  0  0  0
   -3.4932    3.0177   -0.1458 C   0  0  0  0  0  0  0  0  0  0  0  0
   -4.8493    2.8267   -0.0746 O   0  0  0  0  0  0  0  0  0  0  0  0
   -5.2575    1.7252    0.6599 C   0  0  0  0  0  0  0  0  0  0  0  0
   -4.7363    0.5197   -0.1299 C   0  0  0  0  0  0  0  0  0  0  0  0
   -2.8375   -0.5710    1.4237 S   0  0  0  0  0  0  0  0  0  0  0  0
   -3.5230   -1.8945    1.2836 O   0  0  0  0  0  0  0  0  0  0  0  0
   -3.4067    0.0603    2.6861 O   0  0  0  0  0  0  0  0  0  0  0  0
   -1.1046   -0.7634    1.5737 C   0  0  0  0  0  0  0  0  0  0  0  0
   -0.2632    0.0213    2.3351 C   0  0  0  0  0  0  0  0  0  0  0  0
    1.0929   -0.2262    2.3766 C   0  0  0  0  0  0  0  0  0  0  0  0
    1.6164   -1.2743    1.6458 C   0  0  0  0  0  0  0  0  0  0  0  0
    2.9651   -1.6072    1.6193 O   0  0  0  0  0  0  0  0  0  0  0  0
    3.8284   -1.0519    0.6858 C   0  0  0  0  0  0  0  0  0  0  0  0
    5.1540   -1.4546    0.7520 C   0  0  0  0  0  0  0  0  0  0  0  0
    6.1173   -0.9806   -0.1158 C   0  0  0  0  0  0  0  0  0  0  0  0
    5.7484   -0.0756   -1.0816 C   0  0  0  0  0  0  0  0  0  0  0  0
    4.4337    0.3334   -1.1590 C   0  0  0  0  0  0  0  0  0  0  0  0
    3.4644   -0.1388   -0.2914 C   0  0  0  0  0  0  0  0  0  0  0  0
    6.8188    0.4086   -1.9949 C   0  0  0  0  0  0  0  0  0  0  0  0
    7.8294    0.9679   -1.2395 F   0  0  0  0  0  0  0  0  0  0  0  0
    6.3510    1.2994   -2.9172 F   0  0  0  0  0  0  0  0  0  0  0  0
    7.3313   -0.7113   -2.6374 F   0  0  0  0  0  0  0  0  0  0  0  0
    0.7852   -2.0834    0.8670 C   0  0  0  0  0  0  0  0  0  0  0  0
   -0.5661   -1.8069    0.8491 C   0  0  0  0  0  0  0  0  0  0  0  0
   -2.1645   -2.7180   -2.6122 H   0  0  0  0  0  0  0  0  0  0  0  0
   -3.7678   -1.9615   -1.0517 H   0  0  0  0  0  0  0  0  0  0  0  0
   -1.6477    1.9115   -0.2095 H   0  0  0  0  0  0  0  0  0  0  0  0
   -2.4633    1.9798    1.3563 H   0  0  0  0  0  0  0  0  0  0  0  0
   -3.2712    3.2584   -1.2155 H   0  0  0  0  0  0  0  0  0  0  0  0
   -3.2467    3.9364    0.4264 H   0  0  0  0  0  0  0  0  0  0  0  0
   -6.3495    1.7043    0.6648 H   0  0  0  0  0  0  0  0  0  0  0  0
   -4.8615    1.7767    1.6779 H   0  0  0  0  0  0  0  0  0  0  0  0
   -4.9240    0.7433   -1.1971 H   0  0  0  0  0  0  0  0  0  0  0  0
   -5.1708   -0.4327    0.2020 H   0  0  0  0  0  0  0  0  0  0  0  0
   -0.7282    0.8168    2.8778 H   0  0  0  0  0  0  0  0  0  0  0  0
    1.7505    0.3781    2.9646 H   0  0  0  0  0  0  0  0  0  0  0  0
    5.4735   -2.1623    1.4975 H   0  0  0  0  0  0  0  0  0  0  0  0
    7.1540   -1.3252   -0.0284 H   0  0  0  0  0  0  0  0  0  0  0  0
    4.1560    1.0409   -1.9174 H   0  0  0  0  0  0  0  0  0  0  0  0
    2.4339    0.1631   -0.3292 H   0  0  0  0  0  0  0  0  0  0  0  0
    1.1866   -2.9062    0.2915 H   0  0  0  0  0  0  0  0  0  0  0  0
   -1.1793   -2.4708    0.2221 H   0  0  0  0  0  0  0  0  0  0  0  0
  1  2  1  0
  2  3  1  0
  3  4  2  0
  3  5  1  0
  5  6  1  0
  6  7  1  0
  7  8  1  0
  8  9  1  0
  9 10  1  0
  5 11  1  0
 11 12  2  0
 11 13  2  0
 11 14  1  0
 14 15  2  0
 15 16  1  0
 16 17  2  0
 17 18  1  0
 18 19  1  0
 19 20  2  0
 20 21  1  0
 21 22  2  0
 22 23  1  0
 23 24  2  0
 22 25  1  0
 25 26  1  0
 25 27  1  0
 25 28  1  0
 17 29  1  0
 29 30  2  0
 10  5  1  0
 30 14  1  0
 24 19  1  0
  1 31  1  0
  2 32  1  0
  6 33  1  0
  6 34  1  0
  7 35  1  0
  7 36  1  0
  9 37  1  0
  9 38  1  0
 10 39  1  0
 10 40  1  0
 15 41  1  0
 16 42  1  0
 20 43  1  0
 21 44  1  0
 23 45  1  0
 24 46  1  0
 29 47  1  0
 30 48  1  0
M  END
$$$$
