@<TRIPOS>MOLECULE
*****
 48 50 0 0 0
SMALL
GASTEIGER

@<TRIPOS>ATOM
      1 O          -2.3958   -1.7623   -2.7360 O.3     1  UNL1       -0.2951
      2 N          -3.0666   -1.4214   -1.5913 N.am    1  UNL1       -0.1957
      3 C          -2.6727   -0.1329   -1.1721 C.2     1  UNL1        0.2633
      4 O          -1.8526    0.6706   -1.6771 O.2     1  UNL1       -0.2713
      5 C          -3.2392    0.5153    0.0591 C.3     1  UNL1        0.1740
      6 C          -2.6524    1.8574    0.2592 C.3     1  UNL1        0.0048
      7 C          -3.4932    3.0177   -0.1458 C.3     1  UNL1        0.0501
      8 O          -4.8493    2.8267   -0.0746 O.3     1  UNL1       -0.3796
      9 C          -5.2575    1.7252    0.6599 C.3     1  UNL1        0.0501
     10 C          -4.7363    0.5197   -0.1299 C.3     1  UNL1        0.0048
     11 S          -2.8375   -0.5710    1.4237 S.O2    1  UNL1        0.0112
     12 O          -3.5230   -1.8945    1.2836 O.2     1  UNL1       -0.1684
     13 O          -3.4067    0.0603    2.6861 O.2     1  UNL1       -0.1684
     14 C          -1.1046   -0.7634    1.5737 C.ar    1  UNL1        0.0896
     15 C          -0.2632    0.0213    2.3351 C.ar    1  UNL1       -0.0334
     16 C           1.0929   -0.2262    2.3766 C.ar    1  UNL1       -0.0175
     17 C           1.6164   -1.2743    1.6458 C.ar    1  UNL1        0.1285
     18 O           2.9651   -1.6072    1.6193 O.3     1  UNL1       -0.4560
     19 C           3.8284   -1.0519    0.6858 C.ar    1  UNL1        0.1285
     20 C           5.1540   -1.4546    0.7520 C.ar    1  UNL1       -0.0188
     21 C           6.1173   -0.9806   -0.1158 C.ar    1  UNL1       -0.0466
     22 C           5.7484   -0.0756   -1.0816 C.ar    1  UNL1        0.0550
     23 C           4.4337    0.3334   -1.1590 C.ar    1  UNL1       -0.0466
     24 C           3.4644   -0.1388   -0.2914 C.ar    1  UNL1       -0.0188
     25 C           6.8188    0.4086   -1.9949 C.3     1  UNL1        0.4174
     26 F           7.8294    0.9679   -1.2395 F       1  UNL1       -0.1659
     27 F           6.3510    1.2994   -2.9172 F       1  UNL1       -0.1659
     28 F           7.3313   -0.7113   -2.6374 F       1  UNL1       -0.1659
     29 C           0.7852   -2.0834    0.8670 C.ar    1  UNL1       -0.0175
     30 C          -0.5661   -1.8069    0.8491 C.ar    1  UNL1       -0.0334
     31 H          -2.1645   -2.7180   -2.6122 H       1  UNL1        0.2414
     32 H          -3.7678   -1.9615   -1.0517 H       1  UNL1        0.1823
     33 H          -1.6477    1.9115   -0.2095 H       1  UNL1        0.0313
     34 H          -2.4633    1.9798    1.3563 H       1  UNL1        0.0313
     35 H          -3.2712    3.2584   -1.2155 H       1  UNL1        0.0560
     36 H          -3.2467    3.9364    0.4264 H       1  UNL1        0.0560
     37 H          -6.3495    1.7043    0.6648 H       1  UNL1        0.0560
     38 H          -4.8615    1.7767    1.6779 H       1  UNL1        0.0560
     39 H          -4.9240    0.7433   -1.1971 H       1  UNL1        0.0313
     40 H          -5.1708   -0.4327    0.2020 H       1  UNL1        0.0313
     41 H          -0.7282    0.8168    2.8778 H       1  UNL1        0.0638
     42 H           1.7505    0.3781    2.9646 H       1  UNL1        0.0655
     43 H           5.4735   -2.1623    1.4975 H       1  UNL1        0.0654
     44 H           7.1540   -1.3252   -0.0284 H       1  UNL1        0.0624
     45 H           4.1560    1.0409   -1.9174 H       1  UNL1        0.0624
     46 H           2.4339    0.1631   -0.3292 H       1  UNL1        0.0654
     47 H           1.1866   -2.9062    0.2915 H       1  UNL1        0.0655
     48 H          -1.1793   -2.4708    0.2221 H       1  UNL1        0.0638
@<TRIPOS>BOND
     1     1     2    1
     2     2     3   am
     3     3     4    2
     4     3     5    1
     5     5     6    1
     6     6     7    1
     7     7     8    1
     8     8     9    1
     9     9    10    1
    10     5    11    1
    11    11    12    2
    12    11    13    2
    13    11    14    1
    14    14    15   ar
    15    15    16   ar
    16    16    17   ar
    17    17    18    1
    18    18    19    1
    19    19    20   ar
    20    20    21   ar
    21    21    22   ar
    22    22    23   ar
    23    23    24   ar
    24    22    25    1
    25    25    26    1
    26    25    27    1
    27    25    28    1
    28    17    29   ar
    29    29    30   ar
    30    10     5    1
    31    30    14   ar
    32    24    19   ar
    33     1    31    1
    34     2    32    1
    35     6    33    1
    36     6    34    1
    37     7    35    1
    38     7    36    1
    39     9    37    1
    40     9    38    1
    41    10    39    1
    42    10    40    1
    43    15    41    1
    44    16    42    1
    45    20    43    1
    46    21    44    1
    47    23    45    1
    48    24    46    1
    49    29    47    1
    50    30    48    1
