@<TRIPOS>MOLECULE
*****
 49 52 0 0 0
SMALL
GASTEIGER

@<TRIPOS>ATOM
      1 O           0.5970   -1.3842    2.3066 O.2     1  UNL1       -0.2702
      2 C           1.0281   -0.8440    1.2577 C.2     1  UNL1        0.2446
      3 N           0.0979   -0.1947    0.4201 N.am    1  UNL1       -0.3043
      4 C          -1.3255   -0.1327    0.7298 C.3     1  UNL1        0.0516
      5 C          -1.7927    1.2570    0.9316 C.ar    1  UNL1       -0.0241
      6 C          -1.4302    2.2823    0.0794 C.ar    1  UNL1       -0.0552
      7 C          -1.8632    3.5783    0.2636 C.ar    1  UNL1       -0.0403
      8 C          -2.6854    3.8909    1.3242 C.ar    1  UNL1        0.0761
      9 CL         -3.2524    5.5492    1.5782 Cl      1  UNL1       -0.0806
     10 C          -3.0632    2.8860    2.1914 C.ar    1  UNL1        0.1419
     11 F          -3.8779    3.2022    3.2400 F       1  UNL1       -0.2040
     12 C          -2.6185    1.6053    1.9854 C.ar    1  UNL1       -0.0200
     13 C          -2.1166   -0.8716   -0.3192 C.3     1  UNL1       -0.0161
     14 C          -1.9480   -0.3246   -1.6971 C.3     1  UNL1       -0.0356
     15 C          -2.6249   -1.2482   -2.6679 C.3     1  UNL1       -0.0038
     16 N          -3.7620   -1.9273   -2.1458 N.3     1  UNL1       -0.3160
     17 C          -4.4655   -1.2309   -1.1129 C.3     1  UNL1       -0.0038
     18 C          -3.5827   -0.8149    0.0365 C.3     1  UNL1       -0.0356
     19 C           2.4473   -0.8968    0.9333 C.ar    1  UNL1        0.0373
     20 C           3.3233   -1.5582    1.8074 C.ar    1  UNL1       -0.0490
     21 C           4.6508   -1.6148    1.5163 C.ar    1  UNL1       -0.0519
     22 C           5.2043   -1.0454    0.3821 C.ar    1  UNL1        0.0003
     23 C           6.5467   -1.0947    0.0743 C.ar    1  UNL1        0.0353
     24 N           7.0411   -0.5262   -1.0411 N.ar    1  UNL1       -0.2626
     25 C           6.2409    0.1216   -1.9141 C.ar    1  UNL1        0.0281
     26 C           4.8963    0.1736   -1.6103 C.ar    1  UNL1       -0.0359
     27 C           4.3481   -0.3953   -0.4784 C.ar    1  UNL1       -0.0143
     28 C           2.9886   -0.3289   -0.1948 C.ar    1  UNL1       -0.0418
     29 H           0.4416    0.2573   -0.4526 H       1  UNL1        0.1496
     30 H          -1.4831   -0.6678    1.6901 H       1  UNL1        0.0551
     31 H          -0.7865    2.0787   -0.7645 H       1  UNL1        0.0621
     32 H          -1.5600    4.3628   -0.4250 H       1  UNL1        0.0633
     33 H          -2.9240    0.8156    2.6791 H       1  UNL1        0.0650
     34 H          -1.7603   -1.9218   -0.3116 H       1  UNL1        0.0323
     35 H          -2.4349    0.6796   -1.8059 H       1  UNL1        0.0281
     36 H          -0.8624   -0.2719   -1.9876 H       1  UNL1        0.0281
     37 H          -1.8664   -1.9764   -3.0701 H       1  UNL1        0.0424
     38 H          -2.9552   -0.6670   -3.5710 H       1  UNL1        0.0424
     39 H          -3.6336   -2.9385   -1.9612 H       1  UNL1        0.1219
     40 H          -5.2118   -1.9606   -0.6824 H       1  UNL1        0.0424
     41 H          -5.0699   -0.3823   -1.4773 H       1  UNL1        0.0424
     42 H          -3.7302   -1.4436    0.9372 H       1  UNL1        0.0281
     43 H          -3.8348    0.2276    0.3080 H       1  UNL1        0.0281
     44 H           2.9001   -2.0086    2.7004 H       1  UNL1        0.0625
     45 H           5.3076   -2.1234    2.1934 H       1  UNL1        0.0624
     46 H           7.1995   -1.6095    0.7630 H       1  UNL1        0.0836
     47 H           6.6690    0.5653   -2.7970 H       1  UNL1        0.0830
     48 H           4.2181    0.6783   -2.2744 H       1  UNL1        0.0639
     49 H           2.3754    0.1935   -0.9080 H       1  UNL1        0.0631
@<TRIPOS>BOND
     1     1     2    2
     2     2     3   am
     3     3     4    1
     4     4     5    1
     5     5     6   ar
     6     6     7   ar
     7     7     8   ar
     8     8     9    1
     9     8    10   ar
    10    10    11    1
    11    10    12   ar
    12     4    13    1
    13    13    14    1
    14    14    15    1
    15    15    16    1
    16    16    17    1
    17    17    18    1
    18     2    19    1
    19    19    20   ar
    20    20    21   ar
    21    21    22   ar
    22    22    23   ar
    23    23    24   ar
    24    24    25   ar
    25    25    26   ar
    26    26    27   ar
    27    27    28   ar
    28    12     5   ar
    29    18    13    1
    30    28    19   ar
    31    27    22   ar
    32     3    29    1
    33     4    30    1
    34     6    31    1
    35     7    32    1
    36    12    33    1
    37    13    34    1
    38    14    35    1
    39    14    36    1
    40    15    37    1
    41    15    38    1
    42    16    39    1
    43    17    40    1
    44    17    41    1
    45    18    42    1
    46    18    43    1
    47    20    44    1
    48    21    45    1
    49    23    46    1
    50    25    47    1
    51    26    48    1
    52    28    49    1
