
     RDKit          3D

 49 52  0  0  0  0  0  0  0  0999 V2000
    0.5970   -1.3842    2.3066 O   0  0  0  0  0  0  0  0  0  0  0  0
    1.0281   -0.8440    1.2577 C   0  0  0  0  0  0  0  0  0  0  0  0
    0.0979   -0.1947    0.4201 N   0  0  0  0  0  0  0  0  0  0  0  0
   -1.3255   -0.1327    0.7298 C   0  0  0  0  0  0  0  0  0  0  0  0
   -1.7927    1.2570    0.9316 C   0  0  0  0  0  0  0  0  0  0  0  0
   -1.4302    2.2823    0.0794 C   0  0  0  0  0  0  0  0  0  0  0  0
   -1.8632    3.5783    0.2636 C   0  0  0  0  0  0  0  0  0  0  0  0
   -2.6854    3.8909    1.3242 C   0  0  0  0  0  0  0  0  0  0  0  0
   -3.2524    5.5492    1.5782 Cl  0  0  0  0  0  0  0  0  0  0  0  0
   -3.0632    2.8860    2.1914 C   0  0  0  0  0  0  0  0  0  0  0  0
   -3.8779    3.2022    3.2400 F   0  0  0  0  0  0  0  0  0  0  0  0
   -2.6185    1.6053    1.9854 C   0  0  0  0  0  0  0  0  0  0  0  0
   -2.1166   -0.8716   -0.3192 C   0  0  0  0  0  0  0  0  0  0  0  0
   -1.9480   -0.3246   -1.6971 C   0  0  0  0  0  0  0  0  0  0  0  0
   -2.6249   -1.2482   -2.6679 C   0  0  0  0  0  0  0  0  0  0  0  0
   -3.7620   -1.9273   -2.1458 N   0  0  0  0  0  0  0  0  0  0  0  0
   -4.4655   -1.2309   -1.1129 C   0  0  0  0  0  0  0  0  0  0  0  0
   -3.5827   -0.8149    0.0365 C   0  0  0  0  0  0  0  0  0  0  0  0
    2.4473   -0.8968    0.9333 C   0  0  0  0  0  0  0  0  0  0  0  0
    3.3233   -1.5582    1.8074 C   0  0  0  0  0  0  0  0  0  0  0  0
    4.6508   -1.6148    1.5163 C   0  0  0  0  0  0  0  0  0  0  0  0
    5.2043   -1.0454    0.3821 C   0  0  0  0  0  0  0  0  0  0  0  0
    6.5467   -1.0947    0.0743 C   0  0  0  0  0  0  0  0  0  0  0  0
    7.0411   -0.5262   -1.0411 N   0  0  0  0  0  0  0  0  0  0  0  0
    6.2409    0.1216   -1.9141 C   0  0  0  0  0  0  0  0  0  0  0  0
    4.8963    0.1736   -1.6103 C   0  0  0  0  0  0  0  0  0  0  0  0
    4.3481   -0.3953   -0.4784 C   0  0  0  0  0  0  0  0  0  0  0  0
    2.9886   -0.3289   -0.1948 C   0  0  0  0  0  0  0  0  0  0  0  0
    0.4416    0.2573   -0.4526 H   0  0  0  0  0  0  0  0  0  0  0  0
   -1.4831   -0.6678    1.6901 H   0  0  0  0  0  0  0  0  0  0  0  0
   -0.7865    2.0787   -0.7645 H   0  0  0  0  0  0  0  0  0  0  0  0
   -1.5600    4.3628   -0.4250 H   0  0  0  0  0  0  0  0  0  0  0  0
   -2.9240    0.8156    2.6791 H   0  0  0  0  0  0  0  0  0  0  0  0
   -1.7603   -1.9218   -0.3116 H   0  0  0  0  0  0  0  0  0  0  0  0
   -2.4349    0.6796   -1.8059 H   0  0  0  0  0  0  0  0  0  0  0  0
   -0.8624   -0.2719   -1.9876 H   0  0  0  0  0  0  0  0  0  0  0  0
   -1.8664   -1.9764   -3.0701 H   0  0  0  0  0  0  0  0  0  0  0  0
   -2.9552   -0.6670   -3.5710 H   0  0  0  0  0  0  0  0  0  0  0  0
   -3.6336   -2.9385   -1.9612 H   0  0  0  0  0  0  0  0  0  0  0  0
   -5.2118   -1.9606   -0.6824 H   0  0  0  0  0  0  0  0  0  0  0  0
   -5.0699   -0.3823   -1.4773 H   0  0  0  0  0  0  0  0  0  0  0  0
   -3.7302   -1.4436    0.9372 H   0  0  0  0  0  0  0  0  0  0  0  0
   -3.8348    0.2276    0.3080 H   0  0  0  0  0  0  0  0  0  0  0  0
    2.9001   -2.0086    2.7004 H   0  0  0  0  0  0  0  0  0  0  0  0
    5.3076   -2.1234    2.1934 H   0  0  0  0  0  0  0  0  0  0  0  0
    7.1995   -1.6095    0.7630 H   0  0  0  0  0  0  0  0  0  0  0  0
    6.6690    0.5653   -2.7970 H   0  0  0  0  0  0  0  0  0  0  0  0
    4.2181    0.6783   -2.2744 H   0  0  0  0  0  0  0  0  0  0  0  0
    2.3754    0.1935   -0.9080 H   0  0  0  0  0  0  0  0  0  0  0  0
  1  2  2  0
  2  3  1  0
  3  4  1  0
  4  5  1  0
  5  6  2  0
  6  7  1  0
  7  8  2  0
  8  9  1  0
  8 10  1  0
 10 11  1  0
 10 12  2  0
  4 13  1  0
 13 14  1  0
 14 15  1  0
 15 16  1  0
 16 17  1  0
 17 18  1  0
  2 19  1  0
 19 20  2  0
 20 21  1  0
 21 22  2  0
 22 23  1  0
 23 24  2  0
 24 25  1  0
 25 26  2  0
 26 27  1  0
 27 28  2  0
 12  5  1  0
 18 13  1  0
 28 19  1  0
 27 22  1  0
  3 29  1  0
  4 30  1  0
  6 31  1  0
  7 32  1  0
 12 33  1  0
 13 34  1  0
 14 35  1  0
 14 36  1  0
 15 37  1  0
 15 38  1  0
 16 39  1  0
 17 40  1  0
 17 41  1  0
 18 42  1  0
 18 43  1  0
 20 44  1  0
 21 45  1  0
 23 46  1  0
 25 47  1  0
 26 48  1  0
 28 49  1  0
M  END
$$$$
