@<TRIPOS>MOLECULE
*****
 64 69 0 0 0
SMALL
GASTEIGER

@<TRIPOS>ATOM
      1 O           5.4626    1.0968    0.3579 O.2     1  UNL1       -0.2522
      2 C           5.7649   -0.0999    0.5044 C.2     1  UNL1        0.3081
      3 N           7.1416   -0.4317    0.6750 N.am    1  UNL1       -0.2691
      4 C           8.2255    0.4708    0.6966 C.ar    1  UNL1        0.0376
      5 C           9.5088   -0.0651    0.8792 C.ar    1  UNL1       -0.0223
      6 C          10.6442    0.7043    0.9190 C.ar    1  UNL1        0.0293
      7 N          10.5557    2.0272    0.7805 N.ar    1  UNL1       -0.2631
      8 C           9.3505    2.5908    0.6031 C.ar    1  UNL1        0.0293
      9 C           8.1791    1.8212    0.5596 C.ar    1  UNL1       -0.0223
     10 N           4.7724   -1.1179    0.5034 N.am    1  UNL1       -0.2692
     11 C           3.3891   -0.9025    0.3438 C.ar    1  UNL1        0.0348
     12 C           2.7587    0.2885    0.1649 C.ar    1  UNL1       -0.0398
     13 C           1.3805    0.4172    0.0146 C.ar    1  UNL1       -0.0493
     14 C           0.6004   -0.6858    0.0440 C.ar    1  UNL1        0.0194
     15 C          -0.8516   -0.6574   -0.1038 C.ar    1  UNL1        0.1668
     16 N          -1.6273   -1.7576   -0.0747 N.ar    1  UNL1       -0.1945
     17 C          -2.9515   -1.7122   -0.2112 C.ar    1  UNL1        0.2228
     18 N          -3.7655   -2.8661   -0.1810 N.pl3   1  UNL1       -0.2951
     19 C          -3.1357   -4.1821    0.0102 C.3     1  UNL1        0.0384
     20 C          -4.1282   -4.9977    0.8202 C.3     1  UNL1        0.0635
     21 O          -4.8135   -4.1285    1.6599 O.3     1  UNL1       -0.3767
     22 C          -5.7834   -3.3871    0.9820 C.3     1  UNL1        0.0635
     23 C          -5.1891   -2.8576   -0.3252 C.3     1  UNL1        0.0384
     24 N          -3.5347   -0.5184   -0.3849 N.ar    1  UNL1       -0.1808
     25 C          -2.8108    0.6201   -0.4228 C.ar    1  UNL1        0.2233
     26 N          -3.4206    1.8750   -0.6048 N.pl3   1  UNL1       -0.2890
     27 C          -4.8229    2.1704   -0.7679 C.3     1  UNL1        0.0500
     28 C          -4.9758    3.3289    0.2126 C.3     1  UNL1       -0.0304
     29 C          -3.5927    3.9653    0.2951 C.3     1  UNL1       -0.0304
     30 C          -2.7446    3.1472   -0.6658 C.3     1  UNL1        0.0500
     31 C          -2.9055    3.6623   -2.0812 C.3     1  UNL1        0.0663
     32 O          -4.2261    3.7557   -2.4650 O.3     1  UNL1       -0.3761
     33 C          -4.9955    2.6496   -2.1940 C.3     1  UNL1        0.0663
     34 N          -1.4796    0.5140   -0.2798 N.ar    1  UNL1       -0.1945
     35 C           1.1982   -1.9295    0.2248 C.ar    1  UNL1       -0.0493
     36 C           2.5593   -2.0378    0.3713 C.ar    1  UNL1       -0.0398
     37 H           7.3805   -1.4598    0.7985 H       1  UNL1        0.1564
     38 H           9.6596   -1.1412    0.9998 H       1  UNL1        0.0651
     39 H          11.6338    0.2760    1.0613 H       1  UNL1        0.0830
     40 H           9.2808    3.6643    0.4909 H       1  UNL1        0.0830
     41 H           7.2334    2.3112    0.4158 H       1  UNL1        0.0651
     42 H           5.1495   -2.1124    0.6375 H       1  UNL1        0.1564
     43 H           3.3387    1.2115    0.1330 H       1  UNL1        0.0636
     44 H           0.9138    1.3836   -0.1261 H       1  UNL1        0.0625
     45 H          -2.1951   -4.0799    0.5932 H       1  UNL1        0.0487
     46 H          -2.8835   -4.6617   -0.9401 H       1  UNL1        0.0487
     47 H          -4.8118   -5.5500    0.1525 H       1  UNL1        0.0575
     48 H          -3.5313   -5.6703    1.4740 H       1  UNL1        0.0575
     49 H          -6.0241   -2.4963    1.5969 H       1  UNL1        0.0575
     50 H          -6.6929   -3.9782    0.8041 H       1  UNL1        0.0575
     51 H          -5.4937   -3.5608   -1.1548 H       1  UNL1        0.0487
     52 H          -5.5545   -1.8555   -0.5714 H       1  UNL1        0.0487
     53 H          -5.4935    1.3412   -0.5633 H       1  UNL1        0.0523
     54 H          -5.7201    4.0348   -0.1760 H       1  UNL1        0.0284
     55 H          -5.3059    2.9471    1.1892 H       1  UNL1        0.0284
     56 H          -3.6202    5.0352    0.0236 H       1  UNL1        0.0284
     57 H          -3.1650    3.8485    1.2970 H       1  UNL1        0.0284
     58 H          -1.6905    3.1198   -0.4070 H       1  UNL1        0.0523
     59 H          -2.2988    3.0130   -2.7301 H       1  UNL1        0.0578
     60 H          -2.4638    4.6792   -2.1200 H       1  UNL1        0.0578
     61 H          -4.8392    1.7967   -2.8519 H       1  UNL1        0.0578
     62 H          -6.0668    2.9589   -2.2903 H       1  UNL1        0.0578
     63 H           0.5463   -2.8174    0.2461 H       1  UNL1        0.0625
     64 H           2.9771   -3.0082    0.5075 H       1  UNL1        0.0636
@<TRIPOS>BOND
     1     1     2    2
     2     2     3   am
     3     3     4    1
     4     4     5   ar
     5     5     6   ar
     6     6     7   ar
     7     7     8   ar
     8     8     9   ar
     9     2    10   am
    10    10    11    1
    11    11    12   ar
    12    12    13   ar
    13    13    14   ar
    14    14    15    1
    15    15    16   ar
    16    16    17   ar
    17    17    18    1
    18    18    19    1
    19    19    20    1
    20    20    21    1
    21    21    22    1
    22    22    23    1
    23    17    24   ar
    24    24    25   ar
    25    25    26    1
    26    26    27    1
    27    27    28    1
    28    28    29    1
    29    29    30    1
    30    30    31    1
    31    31    32    1
    32    32    33    1
    33    25    34   ar
    34    14    35   ar
    35    35    36   ar
    36     9     4   ar
    37    36    11   ar
    38    34    15   ar
    39    23    18    1
    40    30    26    1
    41    33    27    1
    42     3    37    1
    43     5    38    1
    44     6    39    1
    45     8    40    1
    46     9    41    1
    47    10    42    1
    48    12    43    1
    49    13    44    1
    50    19    45    1
    51    19    46    1
    52    20    47    1
    53    20    48    1
    54    22    49    1
    55    22    50    1
    56    23    51    1
    57    23    52    1
    58    27    53    1
    59    28    54    1
    60    28    55    1
    61    29    56    1
    62    29    57    1
    63    30    58    1
    64    31    59    1
    65    31    60    1
    66    33    61    1
    67    33    62    1
    68    35    63    1
    69    36    64    1
