
     RDKit          3D

 15 16  0  0  0  0  0  0  0  0999 V2000
   -3.4895   -1.2549    0.2188 Cl  0  0  0  0  0  0  0  0  0  0  0  0
   -1.9324   -0.4575    0.1645 C   0  0  0  0  0  0  0  0  0  0  0  0
   -0.7963   -1.2231   -0.1211 C   0  0  0  0  0  0  0  0  0  0  0  0
    0.3941   -0.5256   -0.1465 C   0  0  0  0  0  0  0  0  0  0  0  0
    0.5743    0.8239    0.0767 C   0  0  0  0  0  0  0  0  0  0  0  0
    1.8507    1.1129   -0.0344 O   0  0  0  0  0  0  0  0  0  0  0  0
    2.5068   -0.0076   -0.3231 C   0  0  0  0  0  0  0  0  0  0  0  0
    3.7563    0.2113   -0.4434 O   0  0  0  0  0  0  0  0  0  0  0  0
    1.6146   -1.0076   -0.3911 N   0  0  0  0  0  0  0  0  0  0  0  0
   -0.5928    1.5404    0.3572 C   0  0  0  0  0  0  0  0  0  0  0  0
   -1.8285    0.9055    0.3999 C   0  0  0  0  0  0  0  0  0  0  0  0
   -0.8349   -2.2785   -0.3087 H   0  0  0  0  0  0  0  0  0  0  0  0
    2.0192   -1.9290   -0.6112 H   0  0  0  0  0  0  0  0  0  0  0  0
   -0.5203    2.5932    0.5401 H   0  0  0  0  0  0  0  0  0  0  0  0
   -2.7215    1.4963    0.6223 H   0  0  0  0  0  0  0  0  0  0  0  0
  1  2  1  0
  2  3  2  0
  3  4  1  0
  4  5  2  0
  5  6  1  0
  6  7  1  0
  7  8  2  0
  7  9  1  0
  5 10  1  0
 10 11  2  0
 11  2  1  0
  9  4  1  0
  3 12  1  0
  9 13  1  0
 10 14  1  0
 11 15  1  0
M  END
$$$$
