@<TRIPOS>MOLECULE
*****
 113 119 0 0 0
SMALL
GASTEIGER

@<TRIPOS>ATOM
      1 C          -3.9052   -0.2324    0.4743 C.3     1  UNL1        0.0580
      2 C          -2.8473    0.8077    0.3290 C.3     1  UNL1        0.1404
      3 O          -3.1950    1.7075   -0.7315 O.3     1  UNL1       -0.4545
      4 C          -3.4367    3.0596   -0.4186 C.2     1  UNL1        0.3395
      5 O          -3.3990    3.6461    0.6952 O.2     1  UNL1       -0.2449
      6 C          -3.7894    3.9370   -1.5613 C.ar    1  UNL1        0.0590
      7 C          -4.0467    5.2766   -1.3534 C.ar    1  UNL1       -0.0478
      8 C          -4.3741    6.1184   -2.3955 C.ar    1  UNL1       -0.0610
      9 C          -4.4476    5.6246   -3.6621 C.ar    1  UNL1       -0.0617
     10 C          -4.1953    4.2854   -3.9045 C.ar    1  UNL1       -0.0610
     11 C          -3.8698    3.4549   -2.8599 C.ar    1  UNL1       -0.0478
     12 C          -1.4834    0.3901    0.1184 C.3     1  UNL1        0.1157
     13 O          -1.4738   -0.4547    1.3097 O.3     1  UNL1       -0.3839
     14 C          -0.2700    1.0990    0.5556 C.3     1  UNL1        0.0215
     15 C           0.8164    0.0448    0.6670 C.3     1  UNL1        0.1271
     16 O           2.0567    0.4329    0.1942 O.3     1  UNL1       -0.4550
     17 C           3.1547    0.6214    0.9714 C.2     1  UNL1        0.3388
     18 O           3.1723    0.4584    2.2316 O.2     1  UNL1       -0.2478
     19 C           4.4513    1.0450    0.3876 C.3     1  UNL1        0.1740
     20 O           4.2760    1.1974   -0.9884 O.3     1  UNL1       -0.3786
     21 C           5.4996   -0.0364    0.5545 C.3     1  UNL1        0.0850
     22 N           6.7506    0.3423   -0.0761 N.am    1  UNL1       -0.3015
     23 C           7.4918   -0.1028   -1.1850 C.2     1  UNL1        0.2446
     24 O           7.1019   -1.0433   -1.8913 O.2     1  UNL1       -0.2702
     25 C           8.7437    0.5772   -1.4867 C.ar    1  UNL1        0.0367
     26 C           9.4285    0.0989   -2.5991 C.ar    1  UNL1       -0.0496
     27 C          10.6334    0.6516   -3.0039 C.ar    1  UNL1       -0.0610
     28 C          11.1578    1.7130   -2.2661 C.ar    1  UNL1       -0.0617
     29 C          10.4963    2.2011   -1.1625 C.ar    1  UNL1       -0.0610
     30 C           9.2915    1.6134   -0.7969 C.ar    1  UNL1       -0.0496
     31 C           5.6544   -0.5126    1.9326 C.ar    1  UNL1       -0.0242
     32 C           5.0164   -1.6400    2.4028 C.ar    1  UNL1       -0.0567
     33 C           5.1196   -2.1492    3.7002 C.ar    1  UNL1       -0.0614
     34 C           5.9411   -1.4470    4.5832 C.ar    1  UNL1       -0.0617
     35 C           6.6122   -0.2995    4.1643 C.ar    1  UNL1       -0.0614
     36 C           6.4473    0.1250    2.8641 C.ar    1  UNL1       -0.0567
     37 C           0.4363   -1.3421    0.3327 C.2     1  UNL1       -0.0288
     38 C           1.0590   -2.6519    0.6697 C.3     1  UNL1       -0.0399
     39 C          -0.6599   -1.5677   -0.3719 C.2     1  UNL1       -0.0114
     40 C          -1.3850   -2.8196   -0.3226 C.3     1  UNL1        0.1831
     41 O          -1.0117   -3.9185    0.3703 O.3     1  UNL1       -0.4493
     42 C          -0.8506   -5.1849   -0.2397 C.2     1  UNL1        0.3049
     43 C          -0.4345   -6.2935    0.6648 C.3     1  UNL1        0.0333
     44 O          -1.0385   -5.4096   -1.4807 O.2     1  UNL1       -0.2511
     45 C          -2.8409   -2.5369    0.2169 C.2     1  UNL1        0.1866
     46 O          -3.3453   -3.5860   -0.2430 O.2     1  UNL1       -0.2924
     47 C          -3.7354   -1.5723    0.9961 C.3     1  UNL1        0.0662
     48 C          -3.6447   -1.8220    2.4598 C.3     1  UNL1       -0.0498
     49 C          -5.1095   -2.2457    0.6683 C.3     1  UNL1        0.0704
     50 O          -4.9594   -3.5612    1.1827 O.3     1  UNL1       -0.3907
     51 C          -6.2585   -1.7009    1.3849 C.3     1  UNL1        0.0043
     52 C          -6.2297   -0.2287    1.5271 C.3     1  UNL1        0.1035
     53 O          -5.8139    0.2595    2.7795 O.3     1  UNL1       -0.3684
     54 C          -5.2494    1.2992    2.0256 C.3     1  UNL1        0.0909
     55 C          -5.1927    0.5146    0.7732 C.3     1  UNL1        0.1696
     56 O          -5.7920    1.0566   -0.3867 O.3     1  UNL1       -0.4528
     57 C          -6.8874    1.7704   -0.5967 C.2     1  UNL1        0.3046
     58 C          -7.3507    2.2461   -1.9155 C.3     1  UNL1        0.0333
     59 O          -7.6085    2.0843    0.3661 O.2     1  UNL1       -0.2511
     60 C          -1.1314   -0.3330   -1.1373 C.3     1  UNL1        0.0227
     61 C           0.0487    0.1488   -1.9382 C.3     1  UNL1       -0.0532
     62 C          -2.1678   -0.6566   -2.1350 C.3     1  UNL1       -0.0532
     63 H          -4.1118   -0.4996   -0.6168 H       1  UNL1        0.0388
     64 H          -2.8498    1.4505    1.2341 H       1  UNL1        0.0768
     65 H          -4.0024    5.7150   -0.3742 H       1  UNL1        0.0626
     66 H          -4.5725    7.1706   -2.2074 H       1  UNL1        0.0618
     67 H          -4.7087    6.2979   -4.4896 H       1  UNL1        0.0618
     68 H          -4.2459    3.8602   -4.9058 H       1  UNL1        0.0618
     69 H          -3.6611    2.3983   -2.9820 H       1  UNL1        0.0626
     70 H          -1.5496    0.1004    2.0943 H       1  UNL1        0.2104
     71 H          -0.4636    1.6113    1.5568 H       1  UNL1        0.0334
     72 H           0.0336    1.9864   -0.0155 H       1  UNL1        0.0334
     73 H           0.9997   -0.0465    1.7922 H       1  UNL1        0.0783
     74 H           4.8003    2.0224    0.7793 H       1  UNL1        0.0733
     75 H           3.5614    0.5642   -1.2924 H       1  UNL1        0.2106
     76 H           5.0969   -0.9002   -0.0527 H       1  UNL1        0.0580
     77 H           6.9936    1.1216    0.5740 H       1  UNL1        0.1497
     78 H           9.0724   -0.7150   -3.2044 H       1  UNL1        0.0625
     79 H          11.1809    0.3077   -3.8508 H       1  UNL1        0.0618
     80 H          12.0874    2.2212   -2.4878 H       1  UNL1        0.0618
     81 H          10.8458    3.0227   -0.5440 H       1  UNL1        0.0618
     82 H           8.7639    1.9780    0.0558 H       1  UNL1        0.0625
     83 H           4.3762   -2.1960    1.7328 H       1  UNL1        0.0621
     84 H           4.5803   -3.0411    3.9762 H       1  UNL1        0.0618
     85 H           5.9935   -1.8738    5.5756 H       1  UNL1        0.0618
     86 H           7.2288    0.1993    4.8827 H       1  UNL1        0.0618
     87 H           6.9911    1.0130    2.6093 H       1  UNL1        0.0621
     88 H           2.1099   -2.3048    0.9478 H       1  UNL1        0.0276
     89 H           0.7418   -3.1031    1.6056 H       1  UNL1        0.0276
     90 H           1.2703   -3.2771   -0.1846 H       1  UNL1        0.0276
     91 H          -1.4894   -3.1337   -1.3828 H       1  UNL1        0.0864
     92 H          -1.0045   -6.2352    1.6009 H       1  UNL1        0.0342
     93 H           0.6737   -6.2425    0.8051 H       1  UNL1        0.0342
     94 H          -0.6985   -7.2456    0.1669 H       1  UNL1        0.0342
     95 H          -3.4222   -0.9942    3.1269 H       1  UNL1        0.0240
     96 H          -4.4680   -2.3754    2.9404 H       1  UNL1        0.0240
     97 H          -2.7672   -2.5217    2.6122 H       1  UNL1        0.0240
     98 H          -5.2310   -2.2624   -0.4170 H       1  UNL1        0.0604
     99 H          -5.8489   -3.9529    1.1115 H       1  UNL1        0.2098
    100 H          -7.1622   -2.0115    0.8157 H       1  UNL1        0.0317
    101 H          -6.4377   -2.1305    2.4024 H       1  UNL1        0.0317
    102 H          -7.2605    0.1655    1.4301 H       1  UNL1        0.0638
    103 H          -6.0421    2.0741    2.0070 H       1  UNL1        0.0601
    104 H          -4.3543    1.7474    2.4702 H       1  UNL1        0.0601
    105 H          -6.5410    2.3527   -2.6708 H       1  UNL1        0.0342
    106 H          -7.8414    3.2218   -1.8294 H       1  UNL1        0.0342
    107 H          -8.0779    1.5263   -2.3712 H       1  UNL1        0.0342
    108 H           0.8655   -0.6375   -1.9818 H       1  UNL1        0.0239
    109 H           0.3867    1.1586   -1.8088 H       1  UNL1        0.0239
    110 H          -0.1718    0.1667   -3.0654 H       1  UNL1        0.0239
    111 H          -2.6783   -1.6349   -2.0566 H       1  UNL1        0.0239
    112 H          -2.7720    0.1994   -2.4333 H       1  UNL1        0.0239
    113 H          -1.6462   -0.8774   -3.1332 H       1  UNL1        0.0239
@<TRIPOS>BOND
     1     1     2    1
     2     2     3    1
     3     3     4    1
     4     4     5    2
     5     4     6    1
     6     6     7   ar
     7     7     8   ar
     8     8     9   ar
     9     9    10   ar
    10    10    11   ar
    11     2    12    1
    12    12    13    1
    13    12    14    1
    14    14    15    1
    15    15    16    1
    16    16    17    1
    17    17    18    2
    18    17    19    1
    19    19    20    1
    20    19    21    1
    21    21    22    1
    22    22    23   am
    23    23    24    2
    24    23    25    1
    25    25    26   ar
    26    26    27   ar
    27    27    28   ar
    28    28    29   ar
    29    29    30   ar
    30    21    31    1
    31    31    32   ar
    32    32    33   ar
    33    33    34   ar
    34    34    35   ar
    35    35    36   ar
    36    15    37    1
    37    37    38    1
    38    37    39    2
    39    39    40    1
    40    40    41    1
    41    41    42    1
    42    42    43    1
    43    42    44    2
    44    40    45    1
    45    45    46    2
    46    45    47    1
    47    47    48    1
    48    47    49    1
    49    49    50    1
    50    49    51    1
    51    51    52    1
    52    52    53    1
    53    53    54    1
    54    54    55    1
    55    55    56    1
    56    56    57    1
    57    57    58    1
    58    57    59    2
    59    39    60    1
    60    60    61    1
    61    60    62    1
    62    47     1    1
    63    55    52    1
    64    55     1    1
    65    11     6   ar
    66    60    12    1
    67    30    25   ar
    68    36    31   ar
    69     1    63    1
    70     2    64    1
    71     7    65    1
    72     8    66    1
    73     9    67    1
    74    10    68    1
    75    11    69    1
    76    13    70    1
    77    14    71    1
    78    14    72    1
    79    15    73    1
    80    19    74    1
    81    20    75    1
    82    21    76    1
    83    22    77    1
    84    26    78    1
    85    27    79    1
    86    28    80    1
    87    29    81    1
    88    30    82    1
    89    32    83    1
    90    33    84    1
    91    34    85    1
    92    35    86    1
    93    36    87    1
    94    38    88    1
    95    38    89    1
    96    38    90    1
    97    40    91    1
    98    43    92    1
    99    43    93    1
   100    43    94    1
   101    48    95    1
   102    48    96    1
   103    48    97    1
   104    49    98    1
   105    50    99    1
   106    51   100    1
   107    51   101    1
   108    52   102    1
   109    54   103    1
   110    54   104    1
   111    58   105    1
   112    58   106    1
   113    58   107    1
   114    61   108    1
   115    61   109    1
   116    61   110    1
   117    62   111    1
   118    62   112    1
   119    62   113    1
