@<TRIPOS>MOLECULE
*****
 56 60 0 0 0
SMALL
GASTEIGER

@<TRIPOS>ATOM
      1 C          -3.7022    1.6283    4.2357 C.3     1  UNL1       -0.0396
      2 C          -3.4220    1.3992    2.7772 C.ar    1  UNL1       -0.0483
      3 C          -3.2867    2.4383    1.9029 C.ar    1  UNL1       -0.0580
      4 C          -3.0304    2.1706    0.5782 C.ar    1  UNL1       -0.0473
      5 C          -2.9029    0.8964    0.0874 C.ar    1  UNL1        0.0640
      6 C          -2.6551    0.6952   -1.3215 C.2     1  UNL1        0.2491
      7 O          -3.7728    0.6241   -2.0044 O.2     1  UNL1       -0.2699
      8 N          -1.4386    0.5772   -1.9858 N.am    1  UNL1       -0.2897
      9 C          -1.4578    0.3845   -3.4323 C.3     1  UNL1        0.0388
     10 C          -0.1857    1.1156   -3.8978 C.3     1  UNL1        0.0635
     11 O           0.0538    2.2408   -3.1198 O.3     1  UNL1       -0.3764
     12 C           0.4654    1.9537   -1.8224 C.3     1  UNL1        0.0666
     13 C          -0.1504    0.6207   -1.4078 C.3     1  UNL1        0.0537
     14 C           0.0030    0.3451    0.0382 C.3     1  UNL1       -0.0068
     15 C           1.4878    0.4542    0.3221 C.ar    1  UNL1       -0.0435
     16 C           1.9793    1.6777    0.6822 C.ar    1  UNL1       -0.0584
     17 C           3.3325    1.8280    0.9513 C.ar    1  UNL1       -0.0595
     18 C           4.1290    0.7170    0.8404 C.ar    1  UNL1       -0.0363
     19 C           3.6514   -0.5270    0.4781 C.ar    1  UNL1        0.0656
     20 N           4.5431   -1.6441    0.3823 N.ar    1  UNL1       -0.2399
     21 C           5.7822   -1.5832   -0.1175 C.ar    1  UNL1        0.0312
     22 C           6.3518   -2.8399   -0.0552 C.ar    1  UNL1       -0.0238
     23 C           5.3902   -3.6588    0.5082 C.ar    1  UNL1        0.0498
     24 N           4.3190   -2.8827    0.7519 N.ar    1  UNL1       -0.1748
     25 C           2.3080   -0.6401    0.2191 C.ar    1  UNL1       -0.0330
     26 C          -3.0349   -0.1665    0.9468 C.ar    1  UNL1        0.0985
     27 N          -2.9202   -1.5208    0.5224 N.ar    1  UNL1       -0.1496
     28 N          -2.2414   -2.4960    1.1034 N.ar    1  UNL1       -0.1556
     29 C          -2.4163   -3.6005    0.3580 C.ar    1  UNL1        0.0697
     30 C          -3.2280   -3.2867   -0.7113 C.ar    1  UNL1        0.0697
     31 N          -3.5208   -1.9835   -0.5741 N.ar    1  UNL1       -0.1556
     32 C          -3.2965    0.1043    2.2999 C.ar    1  UNL1       -0.0309
     33 H          -4.3124    0.7635    4.5991 H       1  UNL1        0.0278
     34 H          -4.2747    2.5607    4.4007 H       1  UNL1        0.0278
     35 H          -2.7654    1.6365    4.8290 H       1  UNL1        0.0278
     36 H          -3.3832    3.4437    2.2686 H       1  UNL1        0.0620
     37 H          -2.9258    2.9964   -0.1010 H       1  UNL1        0.0626
     38 H          -2.3449    0.8129   -3.8969 H       1  UNL1        0.0487
     39 H          -1.2911   -0.6909   -3.6601 H       1  UNL1        0.0487
     40 H           0.6732    0.4309   -3.9528 H       1  UNL1        0.0575
     41 H          -0.3989    1.4823   -4.9218 H       1  UNL1        0.0575
     42 H           1.5676    1.9397   -1.7294 H       1  UNL1        0.0578
     43 H           0.0074    2.7266   -1.1728 H       1  UNL1        0.0578
     44 H           0.5361   -0.1386   -1.9277 H       1  UNL1        0.0526
     45 H          -0.2622   -0.7250    0.2151 H       1  UNL1        0.0332
     46 H          -0.4526    1.0429    0.7368 H       1  UNL1        0.0332
     47 H           1.3844    2.5723    0.7804 H       1  UNL1        0.0620
     48 H           3.7528    2.7929    1.2410 H       1  UNL1        0.0618
     49 H           5.2071    0.7725    1.0403 H       1  UNL1        0.0639
     50 H           6.3226   -0.7269   -0.5242 H       1  UNL1        0.0831
     51 H           7.3627   -3.1222   -0.3875 H       1  UNL1        0.0648
     52 H           5.5378   -4.7122    0.6898 H       1  UNL1        0.0848
     53 H           1.8779   -1.5854   -0.0679 H       1  UNL1        0.0641
     54 H          -2.0005   -4.6033    0.5357 H       1  UNL1        0.0864
     55 H          -3.5531   -3.9782   -1.4987 H       1  UNL1        0.0864
     56 H          -3.3988   -0.7325    2.9687 H       1  UNL1        0.0642
@<TRIPOS>BOND
     1     1     2    1
     2     2     3   ar
     3     3     4   ar
     4     4     5   ar
     5     5     6    1
     6     6     7    2
     7     6     8   am
     8     8     9    1
     9     9    10    1
    10    10    11    1
    11    11    12    1
    12    12    13    1
    13    13    14    1
    14    14    15    1
    15    15    16   ar
    16    16    17   ar
    17    17    18   ar
    18    18    19   ar
    19    19    20    1
    20    20    21   ar
    21    21    22   ar
    22    22    23   ar
    23    23    24   ar
    24    19    25   ar
    25     5    26   ar
    26    26    27    1
    27    27    28   ar
    28    28    29   ar
    29    29    30   ar
    30    30    31   ar
    31    26    32   ar
    32    32     2   ar
    33    13     8    1
    34    25    15   ar
    35    31    27   ar
    36    24    20   ar
    37     1    33    1
    38     1    34    1
    39     1    35    1
    40     3    36    1
    41     4    37    1
    42     9    38    1
    43     9    39    1
    44    10    40    1
    45    10    41    1
    46    12    42    1
    47    12    43    1
    48    13    44    1
    49    14    45    1
    50    14    46    1
    51    16    47    1
    52    17    48    1
    53    18    49    1
    54    21    50    1
    55    22    51    1
    56    23    52    1
    57    25    53    1
    58    29    54    1
    59    30    55    1
    60    32    56    1
