@<TRIPOS>MOLECULE
*****
 42 43 0 0 0
SMALL
GASTEIGER

@<TRIPOS>ATOM
      1 C           5.6187   -0.0099   -1.2055 C.3     1  UNL1        0.0788
      2 O           4.7971   -0.9151   -0.4934 O.3     1  UNL1       -0.4951
      3 C           3.6211   -0.5040    0.1347 C.ar    1  UNL1        0.1202
      4 C           3.2017    0.8081    0.0916 C.ar    1  UNL1       -0.0181
      5 C           2.0210    1.2043    0.7259 C.ar    1  UNL1       -0.0319
      6 C           1.2406    0.3021    1.4118 C.ar    1  UNL1        0.1057
      7 S          -0.2296    0.7531    2.2192 S.O2    1  UNL1        0.0616
      8 O          -0.4768   -0.1474    3.4256 O.2     1  UNL1       -0.1528
      9 O          -0.0886    2.1514    2.8261 O.2     1  UNL1       -0.1528
     10 N          -1.6007    0.7357    1.2751 N.3     1  UNL1       -0.1634
     11 C          -1.5693    1.6104    0.2005 C.3     1  UNL1        0.0991
     12 C          -2.0995    2.9754    0.4863 C.2     1  UNL1        0.2512
     13 O          -2.5439    3.3489    1.5791 O.2     1  UNL1       -0.2723
     14 N          -2.0771    3.8900   -0.6023 N.am    1  UNL1       -0.1964
     15 O          -2.5347    5.1556   -0.4525 O.3     1  UNL1       -0.2952
     16 C          -2.5336   -0.2896    1.2906 C.3     1  UNL1        0.0460
     17 C          -2.3218   -1.4275    0.3674 C.ar    1  UNL1       -0.0317
     18 C          -2.8338   -1.4685   -0.9029 C.ar    1  UNL1       -0.0573
     19 C          -2.6111   -2.5524   -1.7345 C.ar    1  UNL1       -0.0615
     20 C          -1.8633   -3.6234   -1.2988 C.ar    1  UNL1       -0.0617
     21 C          -1.3482   -3.5861   -0.0244 C.ar    1  UNL1       -0.0615
     22 C          -1.5768   -2.5007    0.7948 C.ar    1  UNL1       -0.0573
     23 C           1.6635   -1.0021    1.4513 C.ar    1  UNL1       -0.0319
     24 C           2.8412   -1.4047    0.8202 C.ar    1  UNL1       -0.0181
     25 H           6.5331   -0.5489   -1.5167 H       1  UNL1        0.0660
     26 H           5.1424    0.3972   -2.1012 H       1  UNL1        0.0660
     27 H           5.9766    0.8164   -0.5341 H       1  UNL1        0.0660
     28 H           3.8014    1.5190   -0.4396 H       1  UNL1        0.0655
     29 H           1.7055    2.2410    0.6834 H       1  UNL1        0.0638
     30 H          -0.4951    1.7776   -0.1351 H       1  UNL1        0.0540
     31 H          -2.1105    1.1776   -0.6752 H       1  UNL1        0.0540
     32 H          -1.7116    3.6323   -1.5562 H       1  UNL1        0.1822
     33 H          -3.5179    5.0879   -0.2385 H       1  UNL1        0.2414
     34 H          -3.6036    0.0557    1.1589 H       1  UNL1        0.0493
     35 H          -2.5817   -0.7710    2.3277 H       1  UNL1        0.0493
     36 H          -3.4315   -0.6673   -1.3005 H       1  UNL1        0.0621
     37 H          -3.0077   -2.6024   -2.7420 H       1  UNL1        0.0618
     38 H          -1.6881   -4.4839   -1.9630 H       1  UNL1        0.0618
     39 H          -0.7647   -4.4343    0.3003 H       1  UNL1        0.0618
     40 H          -1.1450   -2.5511    1.7786 H       1  UNL1        0.0621
     41 H           1.0577   -1.7143    1.9919 H       1  UNL1        0.0638
     42 H           3.1447   -2.4353    0.8700 H       1  UNL1        0.0655
@<TRIPOS>BOND
     1     1     2    1
     2     2     3    1
     3     3     4   ar
     4     4     5   ar
     5     5     6   ar
     6     6     7    1
     7     7     8    2
     8     7     9    2
     9     7    10    1
    10    10    11    1
    11    11    12    1
    12    12    13    2
    13    12    14   am
    14    14    15    1
    15    10    16    1
    16    16    17    1
    17    17    18   ar
    18    18    19   ar
    19    19    20   ar
    20    20    21   ar
    21    21    22   ar
    22     6    23   ar
    23    23    24   ar
    24    24     3   ar
    25    22    17   ar
    26     1    25    1
    27     1    26    1
    28     1    27    1
    29     4    28    1
    30     5    29    1
    31    11    30    1
    32    11    31    1
    33    14    32    1
    34    15    33    1
    35    16    34    1
    36    16    35    1
    37    18    36    1
    38    19    37    1
    39    20    38    1
    40    21    39    1
    41    22    40    1
    42    23    41    1
    43    24    42    1
