
     RDKit          3D

 51 54  0  0  0  0  0  0  0  0999 V2000
   -5.3792    1.5439   -0.8809 C   0  0  0  0  0  0  0  0  0  0  0  0
   -4.5333    2.5180   -1.5026 N   0  0  0  0  0  0  0  0  0  0  0  0
   -5.1810    3.4873   -2.3882 C   0  0  0  0  0  0  0  0  0  0  0  0
   -3.1322    2.6193   -1.3313 C   0  0  0  0  0  0  0  0  0  0  0  0
   -2.4809    3.5268   -1.9441 O   0  0  0  0  0  0  0  0  0  0  0  0
   -2.3695    1.6834   -0.4371 C   0  0  2  0  0  0  0  0  0  0  0  0
   -0.8948    1.8663   -0.3557 C   0  0  0  0  0  0  0  0  0  0  0  0
   -1.4366    0.6752   -1.0096 C   0  0  1  0  0  0  0  0  0  0  0  0
   -1.4342   -0.7042   -0.6515 C   0  0  1  0  0  0  0  0  0  0  0  0
   -1.9523   -1.5066   -1.8956 C   0  0  0  0  0  0  0  0  0  0  0  0
   -0.1759   -1.4047   -0.3334 C   0  0  0  0  0  0  0  0  0  0  0  0
    1.0210   -0.8571   -0.0572 C   0  0  0  0  0  0  0  0  0  0  0  0
    2.1841   -1.5757    0.2411 C   0  0  0  0  0  0  0  0  0  0  0  0
    3.4359   -0.9124    0.5181 C   0  0  0  0  0  0  0  0  0  0  0  0
    4.3302   -1.3152    1.4025 C   0  0  0  0  0  0  0  0  0  0  0  0
    4.0102   -2.4580    2.0961 F   0  0  0  0  0  0  0  0  0  0  0  0
    5.5508   -0.6456    1.6664 C   0  0  0  0  0  0  0  0  0  0  0  0
    6.6107   -0.9480    2.5111 C   0  0  0  0  0  0  0  0  0  0  0  0
    7.6453   -0.1318    2.5758 C   0  0  0  0  0  0  0  0  0  0  0  0
    7.7353    1.0232    1.8405 C   0  0  0  0  0  0  0  0  0  0  0  0
    8.6601    2.0476    1.6962 C   0  0  0  0  0  0  0  0  0  0  0  0
    9.4041    2.9001    1.5839 N   0  0  0  0  0  0  0  0  0  0  0  0
    6.1218    0.9350    0.9299 S   0  0  0  0  0  0  0  0  0  0  0  0
    2.0850   -2.9533    0.2512 C   0  0  0  0  0  0  0  0  0  0  0  0
    0.8778   -3.5585   -0.0257 C   0  0  0  0  0  0  0  0  0  0  0  0
   -0.2503   -2.7896   -0.3174 C   0  0  0  0  0  0  0  0  0  0  0  0
   -1.3726   -3.5036   -0.5772 F   0  0  0  0  0  0  0  0  0  0  0  0
   -2.3351   -1.1043    0.3695 N   0  0  0  0  0  0  0  0  0  0  0  0
   -3.1438   -0.5536    1.1213 C   0  0  0  0  0  0  0  0  0  0  0  0
   -3.9174   -1.2552    2.0637 N   0  0  0  0  0  0  0  0  0  0  0  0
   -3.3313    1.2050    0.9858 S   0  0  0  0  0  0  0  0  0  0  0  0
   -6.3240    1.4418   -1.4820 H   0  0  0  0  0  0  0  0  0  0  0  0
   -4.8904    0.5500   -0.8898 H   0  0  0  0  0  0  0  0  0  0  0  0
   -5.6179    1.8391    0.1695 H   0  0  0  0  0  0  0  0  0  0  0  0
   -4.4246    4.0518   -2.9740 H   0  0  0  0  0  0  0  0  0  0  0  0
   -5.7623    4.2390   -1.8231 H   0  0  0  0  0  0  0  0  0  0  0  0
   -5.9043    2.9592   -3.0424 H   0  0  0  0  0  0  0  0  0  0  0  0
   -0.5240    2.7175   -0.9752 H   0  0  0  0  0  0  0  0  0  0  0  0
   -0.3696    1.9174    0.6105 H   0  0  0  0  0  0  0  0  0  0  0  0
   -1.4049    0.8198   -2.1624 H   0  0  0  0  0  0  0  0  0  0  0  0
   -2.2939   -0.7710   -2.6736 H   0  0  0  0  0  0  0  0  0  0  0  0
   -1.1724   -2.0908   -2.3683 H   0  0  0  0  0  0  0  0  0  0  0  0
   -2.8180   -2.1121   -1.6664 H   0  0  0  0  0  0  0  0  0  0  0  0
    1.1228    0.2048   -0.0605 H   0  0  0  0  0  0  0  0  0  0  0  0
    3.6723   -0.0101   -0.0360 H   0  0  0  0  0  0  0  0  0  0  0  0
    6.5380   -1.9160    3.1255 H   0  0  0  0  0  0  0  0  0  0  0  0
    8.5191   -0.3670    3.2665 H   0  0  0  0  0  0  0  0  0  0  0  0
    2.9622   -3.5640    0.4706 H   0  0  0  0  0  0  0  0  0  0  0  0
    0.8257   -4.6411   -0.0117 H   0  0  0  0  0  0  0  0  0  0  0  0
   -4.5365   -2.0141    1.6999 H   0  0  0  0  0  0  0  0  0  0  0  0
   -3.9495   -1.1081    3.0835 H   0  0  0  0  0  0  0  0  0  0  0  0
  1  2  1  0
  2  3  1  0
  2  4  1  0
  4  5  2  0
  6  4  1  6
  6  7  1  0
  7  8  1  0
  8  9  1  0
  9 10  1  6
  9 11  1  0
 11 12  2  0
 12 13  1  0
 13 14  1  0
 14 15  2  0
 15 16  1  0
 15 17  1  0
 17 18  2  0
 18 19  1  0
 19 20  2  0
 20 21  1  0
 21 22  3  0
 20 23  1  0
 13 24  2  0
 24 25  1  0
 25 26  2  0
 26 27  1  0
  9 28  1  0
 28 29  2  0
 29 30  1  0
 29 31  1  0
  8  6  1  0
 26 11  1  0
 31  6  1  0
 23 17  1  0
  1 32  1  0
  1 33  1  0
  1 34  1  0
  3 35  1  0
  3 36  1  0
  3 37  1  0
  7 38  1  0
  7 39  1  0
  8 40  1  6
 10 41  1  0
 10 42  1  0
 10 43  1  0
 12 44  1  0
 14 45  1  0
 18 46  1  0
 19 47  1  0
 24 48  1  0
 25 49  1  0
 30 50  1  0
 30 51  1  0
M  END
$$$$
