@<TRIPOS>MOLECULE
*****
 51 54 0 0 0
SMALL
GASTEIGER

@<TRIPOS>ATOM
      1 C          -5.3792    1.5439   -0.8809 C.3     1  UNL1        0.0029
      2 N          -4.5333    2.5180   -1.5026 N.am    1  UNL1       -0.3064
      3 C          -5.1810    3.4873   -2.3882 C.3     1  UNL1        0.0029
      4 C          -3.1322    2.6193   -1.3313 C.2     1  UNL1        0.2319
      5 O          -2.4809    3.5268   -1.9441 O.2     1  UNL1       -0.2741
      6 C          -2.3695    1.6834   -0.4371 C.3     1  UNL1        0.1054
      7 C          -0.8948    1.8663   -0.3557 C.3     1  UNL1       -0.0220
      8 C          -1.4366    0.6752   -1.0096 C.3     1  UNL1        0.0134
      9 C          -1.4342   -0.7042   -0.6515 C.3     1  UNL1        0.0935
     10 C          -1.9523   -1.5066   -1.8956 C.3     1  UNL1       -0.0351
     11 C          -0.1759   -1.4047   -0.3334 C.ar    1  UNL1        0.0158
     12 C           1.0210   -0.8571   -0.0572 C.ar    1  UNL1       -0.0463
     13 C           2.1841   -1.5757    0.2411 C.ar    1  UNL1       -0.0218
     14 C           3.4359   -0.9124    0.5181 C.2     1  UNL1       -0.0182
     15 C           4.3302   -1.3152    1.4025 C.2     1  UNL1        0.1376
     16 F           4.0102   -2.4580    2.0961 F       1  UNL1       -0.2043
     17 C           5.5508   -0.6456    1.6664 C.ar    1  UNL1        0.0486
     18 C           6.6107   -0.9480    2.5111 C.ar    1  UNL1       -0.0435
     19 C           7.6453   -0.1318    2.5758 C.ar    1  UNL1       -0.0365
     20 C           7.7353    1.0232    1.8405 C.ar    1  UNL1        0.0894
     21 C           8.6601    2.0476    1.6962 C.1     1  UNL1        0.1063
     22 N           9.4041    2.9001    1.5839 N.1     1  UNL1       -0.1903
     23 S           6.1218    0.9350    0.9299 S.2     1  UNL1       -0.0756
     24 C           2.0850   -2.9533    0.2512 C.ar    1  UNL1       -0.0518
     25 C           0.8778   -3.5585   -0.0257 C.ar    1  UNL1       -0.0255
     26 C          -0.2503   -2.7896   -0.3174 C.ar    1  UNL1        0.1289
     27 F          -1.3726   -3.5036   -0.5772 F       1  UNL1       -0.2051
     28 N          -2.3351   -1.1043    0.3695 N.2     1  UNL1       -0.2521
     29 C          -3.1438   -0.5536    1.1213 C.2     1  UNL1        0.1485
     30 N          -3.9174   -1.2552    2.0637 N.pl3   1  UNL1       -0.3380
     31 S          -3.3313    1.2050    0.9858 S.3     1  UNL1       -0.0746
     32 H          -6.3240    1.4418   -1.4820 H       1  UNL1        0.0428
     33 H          -4.8904    0.5500   -0.8898 H       1  UNL1        0.0428
     34 H          -5.6179    1.8391    0.1695 H       1  UNL1        0.0428
     35 H          -4.4246    4.0518   -2.9740 H       1  UNL1        0.0428
     36 H          -5.7623    4.2390   -1.8231 H       1  UNL1        0.0428
     37 H          -5.9043    2.9592   -3.0424 H       1  UNL1        0.0428
     38 H          -0.5240    2.7175   -0.9752 H       1  UNL1        0.0287
     39 H          -0.3696    1.9174    0.6105 H       1  UNL1        0.0287
     40 H          -1.4049    0.8198   -2.1624 H       1  UNL1        0.0346
     41 H          -2.2939   -0.7710   -2.6736 H       1  UNL1        0.0256
     42 H          -1.1724   -2.0908   -2.3683 H       1  UNL1        0.0256
     43 H          -2.8180   -2.1121   -1.6664 H       1  UNL1        0.0256
     44 H           1.1228    0.2048   -0.0605 H       1  UNL1        0.0628
     45 H           3.6723   -0.0101   -0.0360 H       1  UNL1        0.0652
     46 H           6.5380   -1.9160    3.1255 H       1  UNL1        0.0630
     47 H           8.5191   -0.3670    3.2665 H       1  UNL1        0.0636
     48 H           2.9622   -3.5640    0.4706 H       1  UNL1        0.0624
     49 H           0.8257   -4.6411   -0.0117 H       1  UNL1        0.0646
     50 H          -4.5365   -2.0141    1.6999 H       1  UNL1        0.1442
     51 H          -3.9495   -1.1081    3.0835 H       1  UNL1        0.1442
@<TRIPOS>BOND
     1     1     2    1
     2     2     3    1
     3     2     4   am
     4     4     5    2
     5     6     4    1
     6     6     7    1
     7     7     8    1
     8     8     9    1
     9     9    10    1
    10     9    11    1
    11    11    12   ar
    12    12    13   ar
    13    13    14    1
    14    14    15    2
    15    15    16    1
    16    15    17    1
    17    17    18   ar
    18    18    19   ar
    19    19    20   ar
    20    20    21    1
    21    21    22    3
    22    20    23   ar
    23    13    24   ar
    24    24    25   ar
    25    25    26   ar
    26    26    27    1
    27     9    28    1
    28    28    29    2
    29    29    30    1
    30    29    31    1
    31     8     6    1
    32    26    11   ar
    33    31     6    1
    34    23    17   ar
    35     1    32    1
    36     1    33    1
    37     1    34    1
    38     3    35    1
    39     3    36    1
    40     3    37    1
    41     7    38    1
    42     7    39    1
    43     8    40    1
    44    10    41    1
    45    10    42    1
    46    10    43    1
    47    12    44    1
    48    14    45    1
    49    18    46    1
    50    19    47    1
    51    24    48    1
    52    25    49    1
    53    30    50    1
    54    30    51    1
