@<TRIPOS>MOLECULE
*****
 32 35 0 0 0
SMALL
GASTEIGER

@<TRIPOS>ATOM
      1 O           0.4883    3.5514    0.6024 O.2     1  UNL1       -0.2638
      2 C           0.3791    2.3189    0.3720 C.ar    1  UNL1        0.2947
      3 N          -0.8243    1.7389    0.1907 N.ar    1  UNL1       -0.3065
      4 C          -0.9759    0.4263   -0.0568 C.ar    1  UNL1        0.1277
      5 C          -2.3283   -0.0907   -0.2353 C.3     1  UNL1        0.0662
      6 C          -3.3603    0.8223    0.3928 C.3     1  UNL1       -0.0294
      7 C          -4.5959   -0.0828    0.2869 C.3     1  UNL1       -0.0386
      8 C          -4.0181   -1.4696    0.3048 C.3     1  UNL1       -0.0034
      9 N          -2.5824   -1.3243    0.4754 N.3     1  UNL1       -0.3069
     10 N           0.1455   -0.3412   -0.1251 N.ar    1  UNL1       -0.2283
     11 C           1.3648    0.1989    0.0500 C.ar    1  UNL1        0.1241
     12 C           1.5083    1.5495    0.3039 C.ar    1  UNL1        0.2183
     13 O           2.7872    1.8363    0.4369 O.2     1  UNL1       -0.4477
     14 C           3.5057    0.7467    0.2848 C.ar    1  UNL1        0.1381
     15 C           4.8757    0.5721    0.3398 C.ar    1  UNL1       -0.0173
     16 C           5.3925   -0.7003    0.1418 C.ar    1  UNL1       -0.0399
     17 C           4.5588   -1.7774   -0.1062 C.ar    1  UNL1        0.0418
     18 CL          5.2592   -3.3608   -0.3489 Cl      1  UNL1       -0.0835
     19 C           3.1825   -1.5593   -0.1537 C.ar    1  UNL1       -0.0305
     20 C           2.6470   -0.3036    0.0400 C.ar    1  UNL1        0.0478
     21 H          -1.6413    2.4066    0.2603 H       1  UNL1        0.1702
     22 H          -2.5751   -0.1586   -1.3153 H       1  UNL1        0.0541
     23 H          -3.1238    1.0063    1.4509 H       1  UNL1        0.0285
     24 H          -3.5122    1.7547   -0.1874 H       1  UNL1        0.0285
     25 H          -5.0621    0.1682   -0.6910 H       1  UNL1        0.0278
     26 H          -5.2878    0.1048    1.1330 H       1  UNL1        0.0278
     27 H          -4.1650   -1.9519   -0.6984 H       1  UNL1        0.0424
     28 H          -4.4962   -2.0385    1.1142 H       1  UNL1        0.0424
     29 H          -2.1061   -2.1469    0.0478 H       1  UNL1        0.1226
     30 H           5.5678    1.3684    0.5279 H       1  UNL1        0.0655
     31 H           6.4642   -0.8901    0.1753 H       1  UNL1        0.0633
     32 H           2.5281   -2.3742   -0.3429 H       1  UNL1        0.0640
@<TRIPOS>BOND
     1     1     2    2
     2     2     3   ar
     3     3     4   ar
     4     4     5    1
     5     5     6    1
     6     6     7    1
     7     7     8    1
     8     8     9    1
     9     4    10   ar
    10    10    11   ar
    11    11    12   ar
    12    12    13   ar
    13    13    14   ar
    14    14    15   ar
    15    15    16   ar
    16    16    17   ar
    17    17    18    1
    18    17    19   ar
    19    19    20   ar
    20    12     2   ar
    21    20    14   ar
    22     9     5    1
    23    20    11   ar
    24     3    21    1
    25     5    22    1
    26     6    23    1
    27     6    24    1
    28     7    25    1
    29     7    26    1
    30     8    27    1
    31     8    28    1
    32     9    29    1
    33    15    30    1
    34    16    31    1
    35    19    32    1
