
     RDKit          3D

 32 35  0  0  0  0  0  0  0  0999 V2000
    0.4883    3.5514    0.6024 O   0  0  0  0  0  0  0  0  0  0  0  0
    0.3791    2.3189    0.3720 C   0  0  0  0  0  0  0  0  0  0  0  0
   -0.8243    1.7389    0.1907 N   0  0  0  0  0  0  0  0  0  0  0  0
   -0.9759    0.4263   -0.0568 C   0  0  0  0  0  0  0  0  0  0  0  0
   -2.3283   -0.0907   -0.2353 C   0  0  2  0  0  0  0  0  0  0  0  0
   -3.3603    0.8223    0.3928 C   0  0  0  0  0  0  0  0  0  0  0  0
   -4.5959   -0.0828    0.2869 C   0  0  0  0  0  0  0  0  0  0  0  0
   -4.0181   -1.4696    0.3048 C   0  0  0  0  0  0  0  0  0  0  0  0
   -2.5824   -1.3243    0.4754 N   0  0  0  0  0  0  0  0  0  0  0  0
    0.1455   -0.3412   -0.1251 N   0  0  0  0  0  0  0  0  0  0  0  0
    1.3648    0.1989    0.0500 C   0  0  0  0  0  0  0  0  0  0  0  0
    1.5083    1.5495    0.3039 C   0  0  0  0  0  0  0  0  0  0  0  0
    2.7872    1.8363    0.4369 O   0  0  0  0  0  0  0  0  0  0  0  0
    3.5057    0.7467    0.2848 C   0  0  0  0  0  0  0  0  0  0  0  0
    4.8757    0.5721    0.3398 C   0  0  0  0  0  0  0  0  0  0  0  0
    5.3925   -0.7003    0.1418 C   0  0  0  0  0  0  0  0  0  0  0  0
    4.5588   -1.7774   -0.1062 C   0  0  0  0  0  0  0  0  0  0  0  0
    5.2592   -3.3608   -0.3489 Cl  0  0  0  0  0  0  0  0  0  0  0  0
    3.1825   -1.5593   -0.1537 C   0  0  0  0  0  0  0  0  0  0  0  0
    2.6470   -0.3036    0.0400 C   0  0  0  0  0  0  0  0  0  0  0  0
   -1.6413    2.4066    0.2603 H   0  0  0  0  0  0  0  0  0  0  0  0
   -2.5751   -0.1586   -1.3153 H   0  0  0  0  0  0  0  0  0  0  0  0
   -3.1238    1.0063    1.4509 H   0  0  0  0  0  0  0  0  0  0  0  0
   -3.5122    1.7547   -0.1874 H   0  0  0  0  0  0  0  0  0  0  0  0
   -5.0621    0.1682   -0.6910 H   0  0  0  0  0  0  0  0  0  0  0  0
   -5.2878    0.1048    1.1330 H   0  0  0  0  0  0  0  0  0  0  0  0
   -4.1650   -1.9519   -0.6984 H   0  0  0  0  0  0  0  0  0  0  0  0
   -4.4962   -2.0385    1.1142 H   0  0  0  0  0  0  0  0  0  0  0  0
   -2.1061   -2.1469    0.0478 H   0  0  0  0  0  0  0  0  0  0  0  0
    5.5678    1.3684    0.5279 H   0  0  0  0  0  0  0  0  0  0  0  0
    6.4642   -0.8901    0.1753 H   0  0  0  0  0  0  0  0  0  0  0  0
    2.5281   -2.3742   -0.3429 H   0  0  0  0  0  0  0  0  0  0  0  0
  1  2  2  0
  2  3  1  0
  3  4  1  0
  4  5  1  0
  5  6  1  0
  6  7  1  0
  7  8  1  0
  8  9  1  0
  4 10  2  0
 10 11  1  0
 11 12  2  0
 12 13  1  0
 13 14  1  0
 14 15  2  0
 15 16  1  0
 16 17  2  0
 17 18  1  0
 17 19  1  0
 19 20  2  0
 12  2  1  0
 20 14  1  0
  9  5  1  0
 20 11  1  0
  3 21  1  0
  5 22  1  6
  6 23  1  0
  6 24  1  0
  7 25  1  0
  7 26  1  0
  8 27  1  0
  8 28  1  0
  9 29  1  0
 15 30  1  0
 16 31  1  0
 19 32  1  0
M  END
$$$$
