
     RDKit          3D

 78 79  0  0  0  0  0  0  0  0999 V2000
    5.9932   -2.6256    0.5634 C   0  0  0  0  0  0  0  0  0  0  0  0
    5.0537   -1.6758    1.2030 C   0  0  0  0  0  0  0  0  0  0  0  0
    4.6491   -0.5386    0.3426 N   0  0  0  0  0  4  0  0  0  0  0  0
    5.2711   -0.6190   -0.9225 C   0  0  0  0  0  0  0  0  0  0  0  0
    4.5473    0.0605   -2.0226 C   0  0  0  0  0  0  0  0  0  0  0  0
    3.2188   -0.7247    0.2133 C   0  0  0  0  0  0  0  0  0  0  0  0
    2.8416   -1.9777   -0.5549 C   0  0  0  0  0  0  0  0  0  0  0  0
    1.4007   -2.0707   -0.5790 N   0  0  0  0  0  0  0  0  0  0  0  0
    0.4491   -1.1649   -1.1072 C   0  0  0  0  0  0  0  0  0  0  0  0
    0.8708   -0.1118   -1.6448 O   0  0  0  0  0  0  0  0  0  0  0  0
   -0.9878   -1.4044   -1.0516 C   0  0  0  0  0  0  0  0  0  0  0  0
   -1.3797   -2.4697   -0.5120 O   0  0  0  0  0  0  0  0  0  0  0  0
   -1.9056   -0.4731   -1.5840 N   0  0  0  0  0  0  0  0  0  0  0  0
   -3.3642   -0.6247   -1.5695 C   0  0  0  0  0  0  0  0  0  0  0  0
   -3.8716   -0.7125   -0.1553 C   0  0  0  0  0  0  0  0  0  0  0  0
   -5.3024   -0.8564   -0.0457 N   0  0  0  0  0  4  0  0  0  0  0  0
   -5.5152   -1.8739    0.9840 C   0  0  0  0  0  0  0  0  0  0  0  0
   -6.8054   -1.7931    1.7053 C   0  0  0  0  0  0  0  0  0  0  0  0
   -5.7756   -1.3845   -1.3210 C   0  0  0  0  0  0  0  0  0  0  0  0
   -7.2623   -1.5804   -1.3854 C   0  0  0  0  0  0  0  0  0  0  0  0
   -5.9160    0.3938    0.2251 C   0  0  0  0  0  0  0  0  0  0  0  0
   -5.0417    1.5436    0.5182 C   0  0  0  0  0  0  0  0  0  0  0  0
   -4.7619    2.4971   -0.4727 C   0  0  0  0  0  0  0  0  0  0  0  0
   -3.9789    3.6227   -0.3956 C   0  0  0  0  0  0  0  0  0  0  0  0
   -3.3865    3.8450    0.8257 C   0  0  0  0  0  0  0  0  0  0  0  0
   -3.5868    2.9777    1.8767 C   0  0  0  0  0  0  0  0  0  0  0  0
   -4.3873    1.8750    1.7094 C   0  0  0  0  0  0  0  0  0  0  0  0
   -4.6312    0.8007    3.0589 Cl  0  0  0  0  0  0  0  0  0  0  0  0
    4.8880    0.6394    1.1222 C   0  0  0  0  0  0  0  0  0  0  0  0
    5.5769    1.7651    0.5162 C   0  0  0  0  0  0  0  0  0  0  0  0
    6.9730    1.7813    0.6853 C   0  0  0  0  0  0  0  0  0  0  0  0
    7.8434    2.7184    0.1729 C   0  0  0  0  0  0  0  0  0  0  0  0
    7.3259    3.7491   -0.5808 C   0  0  0  0  0  0  0  0  0  0  0  0
    5.9656    3.7943   -0.7853 C   0  0  0  0  0  0  0  0  0  0  0  0
    5.1614    2.8331   -0.2474 C   0  0  0  0  0  0  0  0  0  0  0  0
    3.4325    2.9591   -0.4863 Cl  0  0  0  0  0  0  0  0  0  0  0  0
    6.8327   -2.1069    0.0130 H   0  0  0  0  0  0  0  0  0  0  0  0
    6.5655   -3.2231    1.3402 H   0  0  0  0  0  0  0  0  0  0  0  0
    5.5879   -3.3744   -0.1094 H   0  0  0  0  0  0  0  0  0  0  0  0
    4.1875   -2.2330    1.6010 H   0  0  0  0  0  0  0  0  0  0  0  0
    5.5582   -1.2740    2.1082 H   0  0  0  0  0  0  0  0  0  0  0  0
    6.3169   -0.2239   -0.9390 H   0  0  0  0  0  0  0  0  0  0  0  0
    5.2851   -1.7222   -1.2102 H   0  0  0  0  0  0  0  0  0  0  0  0
    4.5242   -0.5701   -2.9742 H   0  0  0  0  0  0  0  0  0  0  0  0
    5.0885    0.9826   -2.3959 H   0  0  0  0  0  0  0  0  0  0  0  0
    3.5239    0.3565   -1.8712 H   0  0  0  0  0  0  0  0  0  0  0  0
    2.6500    0.1411   -0.1071 H   0  0  0  0  0  0  0  0  0  0  0  0
    2.8731   -0.8919    1.2919 H   0  0  0  0  0  0  0  0  0  0  0  0
    3.2263   -2.8805   -0.0387 H   0  0  0  0  0  0  0  0  0  0  0  0
    3.2883   -2.0002   -1.5583 H   0  0  0  0  0  0  0  0  0  0  0  0
    0.9440   -2.9227   -0.1520 H   0  0  0  0  0  0  0  0  0  0  0  0
   -1.4548    0.3861   -2.0171 H   0  0  0  0  0  0  0  0  0  0  0  0
   -3.7580    0.3030   -2.0276 H   0  0  0  0  0  0  0  0  0  0  0  0
   -3.6562   -1.5554   -2.0977 H   0  0  0  0  0  0  0  0  0  0  0  0
   -3.4460    0.1483    0.3881 H   0  0  0  0  0  0  0  0  0  0  0  0
   -3.3738   -1.6457    0.2633 H   0  0  0  0  0  0  0  0  0  0  0  0
   -5.4734   -2.8669    0.4375 H   0  0  0  0  0  0  0  0  0  0  0  0
   -4.6801   -1.8541    1.7304 H   0  0  0  0  0  0  0  0  0  0  0  0
   -6.7164   -1.2803    2.7102 H   0  0  0  0  0  0  0  0  0  0  0  0
   -7.6790   -1.4547    1.1548 H   0  0  0  0  0  0  0  0  0  0  0  0
   -7.0619   -2.8574    2.0160 H   0  0  0  0  0  0  0  0  0  0  0  0
   -5.4824   -0.6948   -2.1153 H   0  0  0  0  0  0  0  0  0  0  0  0
   -5.3399   -2.4129   -1.4355 H   0  0  0  0  0  0  0  0  0  0  0  0
   -7.8730   -0.7294   -1.0946 H   0  0  0  0  0  0  0  0  0  0  0  0
   -7.5673   -2.5623   -0.9454 H   0  0  0  0  0  0  0  0  0  0  0  0
   -7.4844   -1.7252   -2.4907 H   0  0  0  0  0  0  0  0  0  0  0  0
   -6.7085    0.3022    1.0419 H   0  0  0  0  0  0  0  0  0  0  0  0
   -6.5516    0.7311   -0.6540 H   0  0  0  0  0  0  0  0  0  0  0  0
   -5.2417    2.3077   -1.4464 H   0  0  0  0  0  0  0  0  0  0  0  0
   -3.8674    4.2563   -1.2579 H   0  0  0  0  0  0  0  0  0  0  0  0
   -2.7585    4.7153    0.9476 H   0  0  0  0  0  0  0  0  0  0  0  0
   -3.1272    3.1380    2.8452 H   0  0  0  0  0  0  0  0  0  0  0  0
    5.4502    0.3741    2.0703 H   0  0  0  0  0  0  0  0  0  0  0  0
    3.8963    1.0081    1.5702 H   0  0  0  0  0  0  0  0  0  0  0  0
    7.4692    1.0012    1.2688 H   0  0  0  0  0  0  0  0  0  0  0  0
    8.9087    2.6678    0.3431 H   0  0  0  0  0  0  0  0  0  0  0  0
    8.0055    4.4839   -0.9838 H   0  0  0  0  0  0  0  0  0  0  0  0
    5.5176    4.5839   -1.3704 H   0  0  0  0  0  0  0  0  0  0  0  0
  1  2  1  0
  2  3  1  0
  3  4  1  0
  4  5  1  0
  3  6  1  0
  6  7  1  0
  7  8  1  0
  8  9  1  0
  9 10  2  0
  9 11  1  0
 11 12  2  0
 11 13  1  0
 13 14  1  0
 14 15  1  0
 15 16  1  0
 16 17  1  0
 17 18  1  0
 16 19  1  0
 19 20  1  0
 16 21  1  0
 21 22  1  0
 22 23  2  0
 23 24  1  0
 24 25  2  0
 25 26  1  0
 26 27  2  0
 27 28  1  0
  3 29  1  0
 29 30  1  0
 30 31  2  0
 31 32  1  0
 32 33  2  0
 33 34  1  0
 34 35  2  0
 35 36  1  0
 27 22  1  0
 35 30  1  0
  1 37  1  0
  1 38  1  0
  1 39  1  0
  2 40  1  0
  2 41  1  0
  4 42  1  0
  4 43  1  0
  5 44  1  0
  5 45  1  0
  5 46  1  0
  6 47  1  0
  6 48  1  0
  7 49  1  0
  7 50  1  0
  8 51  1  0
 13 52  1  0
 14 53  1  0
 14 54  1  0
 15 55  1  0
 15 56  1  0
 17 57  1  0
 17 58  1  0
 18 59  1  0
 18 60  1  0
 18 61  1  0
 19 62  1  0
 19 63  1  0
 20 64  1  0
 20 65  1  0
 20 66  1  0
 21 67  1  0
 21 68  1  0
 23 69  1  0
 24 70  1  0
 25 71  1  0
 26 72  1  0
 29 73  1  0
 29 74  1  0
 31 75  1  0
 32 76  1  0
 33 77  1  0
 34 78  1  0
M  CHG  2   3   1  16   1
M  END
$$$$
