@<TRIPOS>MOLECULE
*****
 78 79 0 0 0
SMALL
GASTEIGER

@<TRIPOS>ATOM
      1 C           5.9932   -2.6256    0.5634 C.3     1  UNL1       -0.0244
      2 C           5.0537   -1.6758    1.2030 C.3     1  UNL1       -0.0326
      3 N           4.6491   -0.5386    0.3426 N.4     1  UNL1        0.2473
      4 C           5.2711   -0.6190   -0.9225 C.3     1  UNL1       -0.0326
      5 C           4.5473    0.0605   -2.0226 C.3     1  UNL1       -0.0244
      6 C           3.2188   -0.7247    0.2133 C.3     1  UNL1       -0.0138
      7 C           2.8416   -1.9777   -0.5549 C.3     1  UNL1        0.0522
      8 N           1.4007   -2.0707   -0.5790 N.am    1  UNL1       -0.3025
      9 C           0.4491   -1.1649   -1.1072 C.2     1  UNL1        0.2991
     10 O           0.8708   -0.1118   -1.6448 O.2     1  UNL1       -0.2652
     11 C          -0.9878   -1.4044   -1.0516 C.2     1  UNL1        0.2991
     12 O          -1.3797   -2.4697   -0.5120 O.2     1  UNL1       -0.2652
     13 N          -1.9056   -0.4731   -1.5840 N.am    1  UNL1       -0.3025
     14 C          -3.3642   -0.6247   -1.5695 C.3     1  UNL1        0.0522
     15 C          -3.8716   -0.7125   -0.1553 C.3     1  UNL1       -0.0138
     16 N          -5.3024   -0.8564   -0.0457 N.4     1  UNL1        0.2473
     17 C          -5.5152   -1.8739    0.9840 C.3     1  UNL1       -0.0326
     18 C          -6.8054   -1.7931    1.7053 C.3     1  UNL1       -0.0244
     19 C          -5.7756   -1.3845   -1.3210 C.3     1  UNL1       -0.0326
     20 C          -7.2623   -1.5804   -1.3854 C.3     1  UNL1       -0.0244
     21 C          -5.9160    0.3938    0.2251 C.3     1  UNL1       -0.0027
     22 C          -5.0417    1.5436    0.5182 C.ar    1  UNL1        0.0154
     23 C          -4.7619    2.4971   -0.4727 C.ar    1  UNL1       -0.0521
     24 C          -3.9789    3.6227   -0.3956 C.ar    1  UNL1       -0.0612
     25 C          -3.3865    3.8450    0.8257 C.ar    1  UNL1       -0.0604
     26 C          -3.5868    2.9777    1.8767 C.ar    1  UNL1       -0.0429
     27 C          -4.3873    1.8750    1.7094 C.ar    1  UNL1        0.0492
     28 CL         -4.6312    0.8007    3.0589 Cl      1  UNL1       -0.0831
     29 C           4.8880    0.6394    1.1222 C.3     1  UNL1       -0.0027
     30 C           5.5769    1.7651    0.5162 C.ar    1  UNL1        0.0154
     31 C           6.9730    1.7813    0.6853 C.ar    1  UNL1       -0.0521
     32 C           7.8434    2.7184    0.1729 C.ar    1  UNL1       -0.0612
     33 C           7.3259    3.7491   -0.5808 C.ar    1  UNL1       -0.0604
     34 C           5.9656    3.7943   -0.7853 C.ar    1  UNL1       -0.0429
     35 C           5.1614    2.8331   -0.2474 C.ar    1  UNL1        0.0492
     36 CL          3.4325    2.9591   -0.4863 Cl      1  UNL1       -0.0831
     37 H           6.8327   -2.1069    0.0130 H       1  UNL1        0.0281
     38 H           6.5655   -3.2231    1.3402 H       1  UNL1        0.0281
     39 H           5.5879   -3.3744   -0.1094 H       1  UNL1        0.0281
     40 H           4.1875   -2.2330    1.6010 H       1  UNL1        0.0812
     41 H           5.5582   -1.2740    2.1082 H       1  UNL1        0.0812
     42 H           6.3169   -0.2239   -0.9390 H       1  UNL1        0.0812
     43 H           5.2851   -1.7222   -1.2102 H       1  UNL1        0.0812
     44 H           4.5242   -0.5701   -2.9742 H       1  UNL1        0.0281
     45 H           5.0885    0.9826   -2.3959 H       1  UNL1        0.0281
     46 H           3.5239    0.3565   -1.8712 H       1  UNL1        0.0281
     47 H           2.6500    0.1411   -0.1071 H       1  UNL1        0.0831
     48 H           2.8731   -0.8919    1.2919 H       1  UNL1        0.0831
     49 H           3.2263   -2.8805   -0.0387 H       1  UNL1        0.0515
     50 H           3.2883   -2.0002   -1.5583 H       1  UNL1        0.0515
     51 H           0.9440   -2.9227   -0.1520 H       1  UNL1        0.1494
     52 H          -1.4548    0.3861   -2.0171 H       1  UNL1        0.1494
     53 H          -3.7580    0.3030   -2.0276 H       1  UNL1        0.0515
     54 H          -3.6562   -1.5554   -2.0977 H       1  UNL1        0.0515
     55 H          -3.4460    0.1483    0.3881 H       1  UNL1        0.0831
     56 H          -3.3738   -1.6457    0.2633 H       1  UNL1        0.0831
     57 H          -5.4734   -2.8669    0.4375 H       1  UNL1        0.0812
     58 H          -4.6801   -1.8541    1.7304 H       1  UNL1        0.0812
     59 H          -6.7164   -1.2803    2.7102 H       1  UNL1        0.0281
     60 H          -7.6790   -1.4547    1.1548 H       1  UNL1        0.0281
     61 H          -7.0619   -2.8574    2.0160 H       1  UNL1        0.0281
     62 H          -5.4824   -0.6948   -2.1153 H       1  UNL1        0.0812
     63 H          -5.3399   -2.4129   -1.4355 H       1  UNL1        0.0812
     64 H          -7.8730   -0.7294   -1.0946 H       1  UNL1        0.0281
     65 H          -7.5673   -2.5623   -0.9454 H       1  UNL1        0.0281
     66 H          -7.4844   -1.7252   -2.4907 H       1  UNL1        0.0281
     67 H          -6.7085    0.3022    1.0419 H       1  UNL1        0.0868
     68 H          -6.5516    0.7311   -0.6540 H       1  UNL1        0.0868
     69 H          -5.2417    2.3077   -1.4464 H       1  UNL1        0.0623
     70 H          -3.8674    4.2563   -1.2579 H       1  UNL1        0.0618
     71 H          -2.7585    4.7153    0.9476 H       1  UNL1        0.0618
     72 H          -3.1272    3.1380    2.8452 H       1  UNL1        0.0632
     73 H           5.4502    0.3741    2.0703 H       1  UNL1        0.0868
     74 H           3.8963    1.0081    1.5702 H       1  UNL1        0.0868
     75 H           7.4692    1.0012    1.2688 H       1  UNL1        0.0623
     76 H           8.9087    2.6678    0.3431 H       1  UNL1        0.0618
     77 H           8.0055    4.4839   -0.9838 H       1  UNL1        0.0618
     78 H           5.5176    4.5839   -1.3704 H       1  UNL1        0.0632
@<TRIPOS>UNITY_ATOM_ATTR
3 1
charge 1
16 1
charge 1
@<TRIPOS>BOND
     1     1     2    1
     2     2     3    1
     3     3     4    1
     4     4     5    1
     5     3     6    1
     6     6     7    1
     7     7     8    1
     8     8     9   am
     9     9    10    2
    10     9    11    1
    11    11    12    2
    12    11    13   am
    13    13    14    1
    14    14    15    1
    15    15    16    1
    16    16    17    1
    17    17    18    1
    18    16    19    1
    19    19    20    1
    20    16    21    1
    21    21    22    1
    22    22    23   ar
    23    23    24   ar
    24    24    25   ar
    25    25    26   ar
    26    26    27   ar
    27    27    28    1
    28     3    29    1
    29    29    30    1
    30    30    31   ar
    31    31    32   ar
    32    32    33   ar
    33    33    34   ar
    34    34    35   ar
    35    35    36    1
    36    27    22   ar
    37    35    30   ar
    38     1    37    1
    39     1    38    1
    40     1    39    1
    41     2    40    1
    42     2    41    1
    43     4    42    1
    44     4    43    1
    45     5    44    1
    46     5    45    1
    47     5    46    1
    48     6    47    1
    49     6    48    1
    50     7    49    1
    51     7    50    1
    52     8    51    1
    53    13    52    1
    54    14    53    1
    55    14    54    1
    56    15    55    1
    57    15    56    1
    58    17    57    1
    59    17    58    1
    60    18    59    1
    61    18    60    1
    62    18    61    1
    63    19    62    1
    64    19    63    1
    65    20    64    1
    66    20    65    1
    67    20    66    1
    68    21    67    1
    69    21    68    1
    70    23    69    1
    71    24    70    1
    72    25    71    1
    73    26    72    1
    74    29    73    1
    75    29    74    1
    76    31    75    1
    77    32    76    1
    78    33    77    1
    79    34    78    1
