@<TRIPOS>MOLECULE
*****
 40 42 0 0 0
SMALL
GASTEIGER

@<TRIPOS>ATOM
      1 C          -4.1983   -2.6701    1.8735 C.2     1  UNL1       -0.0938
      2 C          -3.1562   -2.1470    1.2146 C.2     1  UNL1       -0.0067
      3 C          -3.2231   -0.7666    0.7836 C.2     1  UNL1        0.2392
      4 O          -4.2363   -0.0771    1.0251 O.2     1  UNL1       -0.2706
      5 N          -2.1458   -0.1703    0.0824 N.am    1  UNL1       -0.2935
      6 C          -0.9375   -0.8455   -0.2651 C.3     1  UNL1        0.0336
      7 C          -0.1937   -0.3278   -1.4444 C.3     1  UNL1        0.0378
      8 N           1.0160    0.3090   -0.9527 N.pl3   1  UNL1       -0.3241
      9 C           2.0006   -0.4079   -0.2076 C.ar    1  UNL1        0.1315
     10 N           1.9024   -1.7082    0.1011 N.ar    1  UNL1       -0.2202
     11 C           2.8764   -2.3289    0.8135 C.ar    1  UNL1        0.1204
     12 N           3.9661   -1.6585    1.2297 N.ar    1  UNL1       -0.2178
     13 C           4.1242   -0.3538    0.9530 C.ar    1  UNL1        0.1431
     14 N           5.0900    0.5377    1.2389 N.ar    1  UNL1       -0.3457
     15 C           4.7404    1.7335    0.7117 C.ar    1  UNL1        0.0042
     16 C           3.5069    1.5758    0.0727 C.ar    1  UNL1       -0.0318
     17 C           3.1142    0.2776    0.2176 C.ar    1  UNL1        0.0583
     18 C          -0.9083    0.5772   -2.3508 C.3     1  UNL1       -0.0314
     19 C          -2.1483    1.2233   -1.8246 C.3     1  UNL1       -0.0328
     20 C          -2.2367    1.2309   -0.3237 C.3     1  UNL1        0.0236
     21 C          -1.2295    2.1049    0.3499 C.3     1  UNL1       -0.0464
     22 H          -5.0693   -2.0903    2.0840 H       1  UNL1        0.0536
     23 H          -4.1751   -3.6920    2.2048 H       1  UNL1        0.0536
     24 H          -2.3073   -2.7775    1.0337 H       1  UNL1        0.0663
     25 H          -0.2961   -0.8551    0.6667 H       1  UNL1        0.0483
     26 H          -1.1976   -1.9377   -0.4048 H       1  UNL1        0.0483
     27 H           0.1960   -1.2370   -2.0035 H       1  UNL1        0.0513
     28 H           1.1302    1.3209   -1.1717 H       1  UNL1        0.1478
     29 H           2.7859   -3.3928    1.0604 H       1  UNL1        0.1048
     30 H           5.9659    0.4029    1.7616 H       1  UNL1        0.1668
     31 H           5.2467    2.6784    0.7282 H       1  UNL1        0.0807
     32 H           2.9396    2.3312   -0.4522 H       1  UNL1        0.0640
     33 H          -1.2023    0.0173   -3.2751 H       1  UNL1        0.0284
     34 H          -0.2424    1.4035   -2.7265 H       1  UNL1        0.0284
     35 H          -2.2471    2.2750   -2.1663 H       1  UNL1        0.0284
     36 H          -3.0707    0.7022   -2.1937 H       1  UNL1        0.0284
     37 H          -3.2486    1.6113   -0.0639 H       1  UNL1        0.0498
     38 H          -1.7324    2.8810    0.9999 H       1  UNL1        0.0248
     39 H          -0.6641    2.7031   -0.3941 H       1  UNL1        0.0248
     40 H          -0.5350    1.5472    1.0140 H       1  UNL1        0.0248
@<TRIPOS>BOND
     1     1     2    2
     2     2     3    1
     3     3     4    2
     4     3     5   am
     5     5     6    1
     6     6     7    1
     7     7     8    1
     8     8     9    1
     9     9    10   ar
    10    10    11   ar
    11    11    12   ar
    12    12    13   ar
    13    13    14   ar
    14    14    15   ar
    15    15    16   ar
    16    16    17   ar
    17     7    18    1
    18    18    19    1
    19    19    20    1
    20    20    21    1
    21    20     5    1
    22    17     9   ar
    23    17    13   ar
    24     1    22    1
    25     1    23    1
    26     2    24    1
    27     6    25    1
    28     6    26    1
    29     7    27    1
    30     8    28    1
    31    11    29    1
    32    14    30    1
    33    15    31    1
    34    16    32    1
    35    18    33    1
    36    18    34    1
    37    19    35    1
    38    19    36    1
    39    20    37    1
    40    21    38    1
    41    21    39    1
    42    21    40    1
