@<TRIPOS>MOLECULE
*****
 66 69 0 0 0
SMALL
GASTEIGER

@<TRIPOS>ATOM
      1 C          -2.9643   -3.8444    0.9259 C.1     1  UNL1       -0.1179
      2 C          -2.6062   -2.6263    1.1463 C.1     1  UNL1       -0.0900
      3 C          -2.2125   -1.2911    1.4126 C.3     1  UNL1        0.0621
      4 N          -2.5130   -0.5137    0.1761 N.3     1  UNL1       -0.2706
      5 C          -3.9457   -0.4303   -0.0655 C.3     1  UNL1        0.0433
      6 C          -4.8009    0.3433    0.8095 C.ar    1  UNL1        0.0561
      7 C          -5.4884   -0.1180    1.9307 C.ar    1  UNL1       -0.0385
      8 C          -6.4072    0.6440    2.5898 C.ar    1  UNL1       -0.0507
      9 C          -6.6535    1.9473    2.0995 C.ar    1  UNL1        0.0040
     10 C          -7.5882    2.7638    2.6647 C.ar    1  UNL1       -0.0523
     11 C          -7.8839    3.9953    2.2087 C.ar    1  UNL1       -0.0576
     12 C          -7.1914    4.4853    1.0830 C.ar    1  UNL1       -0.0180
     13 C          -6.2829    3.6380    0.5673 C.ar    1  UNL1        0.1427
     14 O          -5.5625    4.0920   -0.5489 O.3     1  UNL1       -0.5046
     15 C          -5.9452    2.3650    0.9894 C.ar    1  UNL1        0.1126
     16 N          -5.0374    1.6536    0.3096 N.ar    1  UNL1       -0.2466
     17 C          -2.0187   -1.3700   -0.8624 C.3     1  UNL1        0.0991
     18 C          -2.1444   -0.6869   -2.2355 C.1     1  UNL1        0.0815
     19 N          -2.2427   -0.2156   -3.2219 N.1     1  UNL1       -0.1949
     20 C          -0.6434   -1.8580   -0.7111 C.3     1  UNL1       -0.0238
     21 C           0.2351   -0.6723   -0.6154 C.3     1  UNL1       -0.0478
     22 C           1.6617   -0.8307   -0.2657 C.3     1  UNL1       -0.0386
     23 C           2.2005    0.6394   -0.2423 C.3     1  UNL1       -0.0373
     24 C           3.5019    0.5647    0.4674 C.3     1  UNL1       -0.0005
     25 N           4.4424   -0.2345   -0.2636 N.3     1  UNL1       -0.2981
     26 C           5.5719    0.5116   -0.6682 C.3     1  UNL1        0.0240
     27 C           6.7483   -0.1358   -1.1848 C.ar    1  UNL1       -0.0334
     28 C           7.0609   -0.2987   -2.4578 C.ar    1  UNL1       -0.0573
     29 C           8.1344   -0.8016   -3.1130 C.ar    1  UNL1       -0.0615
     30 C           9.1899   -1.2786   -2.1742 C.ar    1  UNL1       -0.0617
     31 C           8.8972   -1.1248   -0.9175 C.ar    1  UNL1       -0.0615
     32 C           7.7957   -0.6112   -0.2672 C.ar    1  UNL1       -0.0573
     33 C           3.9975   -1.3064   -1.0233 C.3     1  UNL1       -0.0005
     34 C           2.5160   -1.5418   -1.2033 C.3     1  UNL1       -0.0373
     35 H          -3.2611   -4.8730    0.7214 H       1  UNL1        0.1228
     36 H          -2.9480   -0.8103    2.1738 H       1  UNL1        0.0563
     37 H          -1.2072   -1.1388    1.7210 H       1  UNL1        0.0563
     38 H          -4.2723   -1.5231   -0.0905 H       1  UNL1        0.0492
     39 H          -4.0569   -0.0970   -1.1691 H       1  UNL1        0.0492
     40 H          -5.2441   -1.1338    2.2016 H       1  UNL1        0.0636
     41 H          -6.9575    0.3225    3.4404 H       1  UNL1        0.0625
     42 H          -8.1087    2.3672    3.5624 H       1  UNL1        0.0624
     43 H          -8.6307    4.6017    2.6696 H       1  UNL1        0.0619
     44 H          -7.4871    5.4588    0.7917 H       1  UNL1        0.0655
     45 H          -4.9832    4.9328   -0.3846 H       1  UNL1        0.2922
     46 H          -2.7482   -2.2756   -0.9491 H       1  UNL1        0.0621
     47 H          -0.5212   -2.6607    0.0118 H       1  UNL1        0.0290
     48 H          -0.4330   -2.4298   -1.7233 H       1  UNL1        0.0290
     49 H          -0.2286    0.0542    0.1272 H       1  UNL1        0.0269
     50 H           0.1519   -0.1350   -1.6234 H       1  UNL1        0.0269
     51 H           1.7617   -1.1615    0.8072 H       1  UNL1        0.0302
     52 H           1.4055    1.2108    0.2835 H       1  UNL1        0.0280
     53 H           2.2440    0.9786   -1.2748 H       1  UNL1        0.0280
     54 H           3.9367    1.6170    0.4860 H       1  UNL1        0.0427
     55 H           3.3586    0.2423    1.5179 H       1  UNL1        0.0427
     56 H           5.8328    1.1992    0.2046 H       1  UNL1        0.0476
     57 H           5.1832    1.2473   -1.4603 H       1  UNL1        0.0476
     58 H           6.2381    0.1105   -3.1932 H       1  UNL1        0.0621
     59 H           8.3006   -0.8816   -4.1124 H       1  UNL1        0.0618
     60 H          10.0545   -1.6549   -2.6695 H       1  UNL1        0.0618
     61 H           9.7176   -1.4369   -0.1656 H       1  UNL1        0.0618
     62 H           7.6241   -0.5390    0.7421 H       1  UNL1        0.0621
     63 H           4.4234   -1.2260   -2.0571 H       1  UNL1        0.0427
     64 H           4.4817   -2.2555   -0.6154 H       1  UNL1        0.0427
     65 H           2.2013   -1.3141   -2.2551 H       1  UNL1        0.0280
     66 H           2.3510   -2.6486   -1.1362 H       1  UNL1        0.0280
@<TRIPOS>BOND
     1     1     2    3
     2     2     3    1
     3     3     4    1
     4     4     5    1
     5     5     6    1
     6     6     7   ar
     7     7     8   ar
     8     8     9   ar
     9     9    10   ar
    10    10    11   ar
    11    11    12   ar
    12    12    13   ar
    13    13    14    1
    14    13    15   ar
    15    15    16   ar
    16     4    17    1
    17    17    18    1
    18    18    19    3
    19    17    20    1
    20    20    21    1
    21    21    22    1
    22    22    23    1
    23    23    24    1
    24    24    25    1
    25    25    26    1
    26    26    27    1
    27    27    28   ar
    28    28    29   ar
    29    29    30   ar
    30    30    31   ar
    31    31    32   ar
    32    25    33    1
    33    33    34    1
    34    16     6   ar
    35    34    22    1
    36    15     9   ar
    37    32    27   ar
    38     1    35    1
    39     3    36    1
    40     3    37    1
    41     5    38    1
    42     5    39    1
    43     7    40    1
    44     8    41    1
    45    10    42    1
    46    11    43    1
    47    12    44    1
    48    14    45    1
    49    17    46    1
    50    20    47    1
    51    20    48    1
    52    21    49    1
    53    21    50    1
    54    22    51    1
    55    23    52    1
    56    23    53    1
    57    24    54    1
    58    24    55    1
    59    26    56    1
    60    26    57    1
    61    28    58    1
    62    29    59    1
    63    30    60    1
    64    31    61    1
    65    32    62    1
    66    33    63    1
    67    33    64    1
    68    34    65    1
    69    34    66    1
