
     RDKit          3D

 66 69  0  0  0  0  0  0  0  0999 V2000
   -2.9643   -3.8444    0.9259 C   0  0  0  0  0  0  0  0  0  0  0  0
   -2.6062   -2.6263    1.1463 C   0  0  0  0  0  0  0  0  0  0  0  0
   -2.2125   -1.2911    1.4126 C   0  0  0  0  0  0  0  0  0  0  0  0
   -2.5130   -0.5137    0.1761 N   0  0  0  0  0  0  0  0  0  0  0  0
   -3.9457   -0.4303   -0.0655 C   0  0  0  0  0  0  0  0  0  0  0  0
   -4.8009    0.3433    0.8095 C   0  0  0  0  0  0  0  0  0  0  0  0
   -5.4884   -0.1180    1.9307 C   0  0  0  0  0  0  0  0  0  0  0  0
   -6.4072    0.6440    2.5898 C   0  0  0  0  0  0  0  0  0  0  0  0
   -6.6535    1.9473    2.0995 C   0  0  0  0  0  0  0  0  0  0  0  0
   -7.5882    2.7638    2.6647 C   0  0  0  0  0  0  0  0  0  0  0  0
   -7.8839    3.9953    2.2087 C   0  0  0  0  0  0  0  0  0  0  0  0
   -7.1914    4.4853    1.0830 C   0  0  0  0  0  0  0  0  0  0  0  0
   -6.2829    3.6380    0.5673 C   0  0  0  0  0  0  0  0  0  0  0  0
   -5.5625    4.0920   -0.5489 O   0  0  0  0  0  0  0  0  0  0  0  0
   -5.9452    2.3650    0.9894 C   0  0  0  0  0  0  0  0  0  0  0  0
   -5.0374    1.6536    0.3096 N   0  0  0  0  0  0  0  0  0  0  0  0
   -2.0187   -1.3700   -0.8624 C   0  0  0  0  0  0  0  0  0  0  0  0
   -2.1444   -0.6869   -2.2355 C   0  0  0  0  0  0  0  0  0  0  0  0
   -2.2427   -0.2156   -3.2219 N   0  0  0  0  0  0  0  0  0  0  0  0
   -0.6434   -1.8580   -0.7111 C   0  0  0  0  0  0  0  0  0  0  0  0
    0.2351   -0.6723   -0.6154 C   0  0  0  0  0  0  0  0  0  0  0  0
    1.6617   -0.8307   -0.2657 C   0  0  0  0  0  0  0  0  0  0  0  0
    2.2005    0.6394   -0.2423 C   0  0  0  0  0  0  0  0  0  0  0  0
    3.5019    0.5647    0.4674 C   0  0  0  0  0  0  0  0  0  0  0  0
    4.4424   -0.2345   -0.2636 N   0  0  0  0  0  0  0  0  0  0  0  0
    5.5719    0.5116   -0.6682 C   0  0  0  0  0  0  0  0  0  0  0  0
    6.7483   -0.1358   -1.1848 C   0  0  0  0  0  0  0  0  0  0  0  0
    7.0609   -0.2987   -2.4578 C   0  0  0  0  0  0  0  0  0  0  0  0
    8.1344   -0.8016   -3.1130 C   0  0  0  0  0  0  0  0  0  0  0  0
    9.1899   -1.2786   -2.1742 C   0  0  0  0  0  0  0  0  0  0  0  0
    8.8972   -1.1248   -0.9175 C   0  0  0  0  0  0  0  0  0  0  0  0
    7.7957   -0.6112   -0.2672 C   0  0  0  0  0  0  0  0  0  0  0  0
    3.9975   -1.3064   -1.0233 C   0  0  0  0  0  0  0  0  0  0  0  0
    2.5160   -1.5418   -1.2033 C   0  0  0  0  0  0  0  0  0  0  0  0
   -3.2611   -4.8730    0.7214 H   0  0  0  0  0  0  0  0  0  0  0  0
   -2.9480   -0.8103    2.1738 H   0  0  0  0  0  0  0  0  0  0  0  0
   -1.2072   -1.1388    1.7210 H   0  0  0  0  0  0  0  0  0  0  0  0
   -4.2723   -1.5231   -0.0905 H   0  0  0  0  0  0  0  0  0  0  0  0
   -4.0569   -0.0970   -1.1691 H   0  0  0  0  0  0  0  0  0  0  0  0
   -5.2441   -1.1338    2.2016 H   0  0  0  0  0  0  0  0  0  0  0  0
   -6.9575    0.3225    3.4404 H   0  0  0  0  0  0  0  0  0  0  0  0
   -8.1087    2.3672    3.5624 H   0  0  0  0  0  0  0  0  0  0  0  0
   -8.6307    4.6017    2.6696 H   0  0  0  0  0  0  0  0  0  0  0  0
   -7.4871    5.4588    0.7917 H   0  0  0  0  0  0  0  0  0  0  0  0
   -4.9832    4.9328   -0.3846 H   0  0  0  0  0  0  0  0  0  0  0  0
   -2.7482   -2.2756   -0.9491 H   0  0  0  0  0  0  0  0  0  0  0  0
   -0.5212   -2.6607    0.0118 H   0  0  0  0  0  0  0  0  0  0  0  0
   -0.4330   -2.4298   -1.7233 H   0  0  0  0  0  0  0  0  0  0  0  0
   -0.2286    0.0542    0.1272 H   0  0  0  0  0  0  0  0  0  0  0  0
    0.1519   -0.1350   -1.6234 H   0  0  0  0  0  0  0  0  0  0  0  0
    1.7617   -1.1615    0.8072 H   0  0  0  0  0  0  0  0  0  0  0  0
    1.4055    1.2108    0.2835 H   0  0  0  0  0  0  0  0  0  0  0  0
    2.2440    0.9786   -1.2748 H   0  0  0  0  0  0  0  0  0  0  0  0
    3.9367    1.6170    0.4860 H   0  0  0  0  0  0  0  0  0  0  0  0
    3.3586    0.2423    1.5179 H   0  0  0  0  0  0  0  0  0  0  0  0
    5.8328    1.1992    0.2046 H   0  0  0  0  0  0  0  0  0  0  0  0
    5.1832    1.2473   -1.4603 H   0  0  0  0  0  0  0  0  0  0  0  0
    6.2381    0.1105   -3.1932 H   0  0  0  0  0  0  0  0  0  0  0  0
    8.3006   -0.8816   -4.1124 H   0  0  0  0  0  0  0  0  0  0  0  0
   10.0545   -1.6549   -2.6695 H   0  0  0  0  0  0  0  0  0  0  0  0
    9.7176   -1.4369   -0.1656 H   0  0  0  0  0  0  0  0  0  0  0  0
    7.6241   -0.5390    0.7421 H   0  0  0  0  0  0  0  0  0  0  0  0
    4.4234   -1.2260   -2.0571 H   0  0  0  0  0  0  0  0  0  0  0  0
    4.4817   -2.2555   -0.6154 H   0  0  0  0  0  0  0  0  0  0  0  0
    2.2013   -1.3141   -2.2551 H   0  0  0  0  0  0  0  0  0  0  0  0
    2.3510   -2.6486   -1.1362 H   0  0  0  0  0  0  0  0  0  0  0  0
  1  2  3  0
  2  3  1  0
  3  4  1  0
  4  5  1  0
  5  6  1  0
  6  7  2  0
  7  8  1  0
  8  9  2  0
  9 10  1  0
 10 11  2  0
 11 12  1  0
 12 13  2  0
 13 14  1  0
 13 15  1  0
 15 16  2  0
  4 17  1  0
 17 18  1  0
 18 19  3  0
 17 20  1  0
 20 21  1  0
 21 22  1  0
 22 23  1  0
 23 24  1  0
 24 25  1  0
 25 26  1  0
 26 27  1  0
 27 28  2  0
 28 29  1  0
 29 30  2  0
 30 31  1  0
 31 32  2  0
 25 33  1  0
 33 34  1  0
 16  6  1  0
 34 22  1  0
 15  9  1  0
 32 27  1  0
  1 35  1  0
  3 36  1  0
  3 37  1  0
  5 38  1  0
  5 39  1  0
  7 40  1  0
  8 41  1  0
 10 42  1  0
 11 43  1  0
 12 44  1  0
 14 45  1  0
 17 46  1  0
 20 47  1  0
 20 48  1  0
 21 49  1  0
 21 50  1  0
 22 51  1  0
 23 52  1  0
 23 53  1  0
 24 54  1  0
 24 55  1  0
 26 56  1  0
 26 57  1  0
 28 58  1  0
 29 59  1  0
 30 60  1  0
 31 61  1  0
 32 62  1  0
 33 63  1  0
 33 64  1  0
 34 65  1  0
 34 66  1  0
M  END
$$$$
