@<TRIPOS>MOLECULE
*****
 67 70 0 0 0
SMALL
GASTEIGER

@<TRIPOS>ATOM
      1 C          -0.3181   -0.9526   -2.3826 C.3     1  UNL1       -0.0383
      2 C           0.1174   -0.6009   -0.9526 C.3     1  UNL1        0.0930
      3 C           0.2994   -1.9037   -0.2216 C.3     1  UNL1       -0.0383
      4 C          -0.9345    0.1684   -0.2860 C.2     1  UNL1        0.2331
      5 O          -0.6774    1.3232    0.1302 O.2     1  UNL1       -0.2738
      6 N          -2.2472   -0.3247   -0.0807 N.am    1  UNL1       -0.3104
      7 C          -3.2109    0.4899    0.5775 C.3     1  UNL1        0.0288
      8 C          -4.3565    0.8508   -0.3469 C.3     1  UNL1       -0.0216
      9 C          -5.3522    1.7475    0.3376 C.3     1  UNL1       -0.0485
     10 C          -4.8283    2.2231    1.6694 C.3     1  UNL1       -0.0524
     11 C          -4.3960    1.1325    2.5904 C.3     1  UNL1       -0.0485
     12 C          -3.8147   -0.0660    1.8209 C.3     1  UNL1       -0.0216
     13 C          -4.9315   -1.0280    1.6398 C.3     1  UNL1       -0.0356
     14 C          -5.2107   -1.4586    0.2315 C.3     1  UNL1        0.0569
     15 C          -6.6177   -1.9172    0.1683 C.2     1  UNL1        0.3078
     16 O          -6.8542   -3.0963   -0.1813 O.2     1  UNL1       -0.2507
     17 O          -7.6965   -1.1038    0.4782 O.3     1  UNL1       -0.4804
     18 C          -5.0317   -0.3917   -0.7924 C.3     1  UNL1       -0.0356
     19 N           1.3675    0.0645   -1.0570 N.3     1  UNL1       -0.2864
     20 C           1.9726    0.4782    0.1652 C.3     1  UNL1        0.0157
     21 C           3.2472   -0.3240    0.4662 C.3     1  UNL1        0.0263
     22 N           4.1827    0.0008   -0.5954 N.pl3   1  UNL1       -0.3127
     23 C           5.5808    0.0483   -0.4018 C.ar    1  UNL1        0.1213
     24 C           6.1383   -0.2202    0.8266 C.ar    1  UNL1       -0.0212
     25 C           7.5253   -0.1697    1.0062 C.ar    1  UNL1       -0.0454
     26 C           8.3449    0.1517   -0.0551 C.ar    1  UNL1        0.0730
     27 C           9.8321    0.2163    0.0956 C.3     1  UNL1        0.4188
     28 F          10.3960    0.4937   -1.1271 F       1  UNL1       -0.1658
     29 F          10.2439   -1.0123    0.5926 F       1  UNL1       -0.1658
     30 F          10.2042    1.1627    1.0225 F       1  UNL1       -0.1658
     31 C           7.7444    0.4138   -1.2690 C.ar    1  UNL1        0.0413
     32 N           6.3938    0.3568   -1.4128 N.ar    1  UNL1       -0.2398
     33 C           3.5809    0.2815   -1.9051 C.3     1  UNL1        0.0263
     34 C           2.3042   -0.5705   -1.9423 C.3     1  UNL1        0.0157
     35 H          -0.0624   -0.1021   -3.0580 H       1  UNL1        0.0252
     36 H          -1.4366   -1.0396   -2.3881 H       1  UNL1        0.0252
     37 H           0.1204   -1.9029   -2.7198 H       1  UNL1        0.0252
     38 H          -0.6698   -2.4257   -0.1709 H       1  UNL1        0.0252
     39 H           0.9881   -2.5302   -0.8070 H       1  UNL1        0.0252
     40 H           0.6305   -1.7279    0.8215 H       1  UNL1        0.0252
     41 H          -2.4687   -1.2819   -0.4233 H       1  UNL1        0.1490
     42 H          -2.7627    1.4906    0.8622 H       1  UNL1        0.0504
     43 H          -3.9826    1.3821   -1.2607 H       1  UNL1        0.0319
     44 H          -5.5234    2.6878   -0.2660 H       1  UNL1        0.0269
     45 H          -6.3592    1.2908    0.4200 H       1  UNL1        0.0269
     46 H          -5.6836    2.7786    2.1521 H       1  UNL1        0.0265
     47 H          -4.0273    2.9707    1.4649 H       1  UNL1        0.0265
     48 H          -5.2283    0.8005    3.2512 H       1  UNL1        0.0269
     49 H          -3.6227    1.5496    3.2676 H       1  UNL1        0.0269
     50 H          -3.0404   -0.4898    2.5237 H       1  UNL1        0.0319
     51 H          -5.9066   -0.6785    2.0929 H       1  UNL1        0.0276
     52 H          -4.7105   -1.9700    2.2256 H       1  UNL1        0.0276
     53 H          -4.5597   -2.3351    0.0115 H       1  UNL1        0.0413
     54 H          -8.5529   -1.4732    0.9072 H       1  UNL1        0.2951
     55 H          -4.4409   -0.8221   -1.6529 H       1  UNL1        0.0276
     56 H          -6.0083   -0.0896   -1.2729 H       1  UNL1        0.0276
     57 H           2.3238    1.5325    0.0347 H       1  UNL1        0.0442
     58 H           1.3009    0.4843    1.0423 H       1  UNL1        0.0442
     59 H           3.5853    0.0273    1.4538 H       1  UNL1        0.0477
     60 H           3.0395   -1.4102    0.4371 H       1  UNL1        0.0477
     61 H           5.5446   -0.4777    1.6934 H       1  UNL1        0.0652
     62 H           7.9733   -0.3799    1.9705 H       1  UNL1        0.0625
     63 H           8.3921    0.6653   -2.0976 H       1  UNL1        0.0836
     64 H           3.3597    1.3515   -2.0186 H       1  UNL1        0.0477
     65 H           4.2499   -0.0477   -2.7209 H       1  UNL1        0.0477
     66 H           1.9256   -0.6164   -2.9886 H       1  UNL1        0.0442
     67 H           2.6155   -1.5797   -1.5960 H       1  UNL1        0.0442
@<TRIPOS>BOND
     1     1     2    1
     2     2     3    1
     3     2     4    1
     4     4     5    2
     5     4     6   am
     6     6     7    1
     7     7     8    1
     8     8     9    1
     9     9    10    1
    10    10    11    1
    11    11    12    1
    12    12    13    1
    13    13    14    1
    14    14    15    1
    15    15    16    2
    16    15    17    1
    17    14    18    1
    18     2    19    1
    19    19    20    1
    20    20    21    1
    21    21    22    1
    22    22    23    1
    23    23    24   ar
    24    24    25   ar
    25    25    26   ar
    26    26    27    1
    27    27    28    1
    28    27    29    1
    29    27    30    1
    30    26    31   ar
    31    31    32   ar
    32    22    33    1
    33    33    34    1
    34    12     7    1
    35    34    19    1
    36    18     8    1
    37    32    23   ar
    38     1    35    1
    39     1    36    1
    40     1    37    1
    41     3    38    1
    42     3    39    1
    43     3    40    1
    44     6    41    1
    45     7    42    1
    46     8    43    1
    47     9    44    1
    48     9    45    1
    49    10    46    1
    50    10    47    1
    51    11    48    1
    52    11    49    1
    53    12    50    1
    54    13    51    1
    55    13    52    1
    56    14    53    1
    57    17    54    1
    58    18    55    1
    59    18    56    1
    60    20    57    1
    61    20    58    1
    62    21    59    1
    63    21    60    1
    64    24    61    1
    65    25    62    1
    66    31    63    1
    67    33    64    1
    68    33    65    1
    69    34    66    1
    70    34    67    1
