
     RDKit          3D

 67 70  0  0  0  0  0  0  0  0999 V2000
   -0.3181   -0.9526   -2.3826 C   0  0  0  0  0  0  0  0  0  0  0  0
    0.1174   -0.6009   -0.9526 C   0  0  0  0  0  0  0  0  0  0  0  0
    0.2994   -1.9037   -0.2216 C   0  0  0  0  0  0  0  0  0  0  0  0
   -0.9345    0.1684   -0.2860 C   0  0  0  0  0  0  0  0  0  0  0  0
   -0.6774    1.3232    0.1302 O   0  0  0  0  0  0  0  0  0  0  0  0
   -2.2472   -0.3247   -0.0807 N   0  0  0  0  0  0  0  0  0  0  0  0
   -3.2109    0.4899    0.5775 C   0  0  1  0  0  0  0  0  0  0  0  0
   -4.3565    0.8508   -0.3469 C   0  0  0  0  0  0  0  0  0  0  0  0
   -5.3522    1.7475    0.3376 C   0  0  0  0  0  0  0  0  0  0  0  0
   -4.8283    2.2231    1.6694 C   0  0  0  0  0  0  0  0  0  0  0  0
   -4.3960    1.1325    2.5904 C   0  0  0  0  0  0  0  0  0  0  0  0
   -3.8147   -0.0660    1.8209 C   0  0  0  0  0  0  0  0  0  0  0  0
   -4.9315   -1.0280    1.6398 C   0  0  0  0  0  0  0  0  0  0  0  0
   -5.2107   -1.4586    0.2315 C   0  0  1  0  0  0  0  0  0  0  0  0
   -6.6177   -1.9172    0.1683 C   0  0  0  0  0  0  0  0  0  0  0  0
   -6.8542   -3.0963   -0.1813 O   0  0  0  0  0  0  0  0  0  0  0  0
   -7.6965   -1.1038    0.4782 O   0  0  0  0  0  0  0  0  0  0  0  0
   -5.0317   -0.3917   -0.7924 C   0  0  0  0  0  0  0  0  0  0  0  0
    1.3675    0.0645   -1.0570 N   0  0  0  0  0  0  0  0  0  0  0  0
    1.9726    0.4782    0.1652 C   0  0  0  0  0  0  0  0  0  0  0  0
    3.2472   -0.3240    0.4662 C   0  0  0  0  0  0  0  0  0  0  0  0
    4.1827    0.0008   -0.5954 N   0  0  0  0  0  0  0  0  0  0  0  0
    5.5808    0.0483   -0.4018 C   0  0  0  0  0  0  0  0  0  0  0  0
    6.1383   -0.2202    0.8266 C   0  0  0  0  0  0  0  0  0  0  0  0
    7.5253   -0.1697    1.0062 C   0  0  0  0  0  0  0  0  0  0  0  0
    8.3449    0.1517   -0.0551 C   0  0  0  0  0  0  0  0  0  0  0  0
    9.8321    0.2163    0.0956 C   0  0  0  0  0  0  0  0  0  0  0  0
   10.3960    0.4937   -1.1271 F   0  0  0  0  0  0  0  0  0  0  0  0
   10.2439   -1.0123    0.5926 F   0  0  0  0  0  0  0  0  0  0  0  0
   10.2042    1.1627    1.0225 F   0  0  0  0  0  0  0  0  0  0  0  0
    7.7444    0.4138   -1.2690 C   0  0  0  0  0  0  0  0  0  0  0  0
    6.3938    0.3568   -1.4128 N   0  0  0  0  0  0  0  0  0  0  0  0
    3.5809    0.2815   -1.9051 C   0  0  0  0  0  0  0  0  0  0  0  0
    2.3042   -0.5705   -1.9423 C   0  0  0  0  0  0  0  0  0  0  0  0
   -0.0624   -0.1021   -3.0580 H   0  0  0  0  0  0  0  0  0  0  0  0
   -1.4366   -1.0396   -2.3881 H   0  0  0  0  0  0  0  0  0  0  0  0
    0.1204   -1.9029   -2.7198 H   0  0  0  0  0  0  0  0  0  0  0  0
   -0.6698   -2.4257   -0.1709 H   0  0  0  0  0  0  0  0  0  0  0  0
    0.9881   -2.5302   -0.8070 H   0  0  0  0  0  0  0  0  0  0  0  0
    0.6305   -1.7279    0.8215 H   0  0  0  0  0  0  0  0  0  0  0  0
   -2.4687   -1.2819   -0.4233 H   0  0  0  0  0  0  0  0  0  0  0  0
   -2.7627    1.4906    0.8622 H   0  0  0  0  0  0  0  0  0  0  0  0
   -3.9826    1.3821   -1.2607 H   0  0  0  0  0  0  0  0  0  0  0  0
   -5.5234    2.6878   -0.2660 H   0  0  0  0  0  0  0  0  0  0  0  0
   -6.3592    1.2908    0.4200 H   0  0  0  0  0  0  0  0  0  0  0  0
   -5.6836    2.7786    2.1521 H   0  0  0  0  0  0  0  0  0  0  0  0
   -4.0273    2.9707    1.4649 H   0  0  0  0  0  0  0  0  0  0  0  0
   -5.2283    0.8005    3.2512 H   0  0  0  0  0  0  0  0  0  0  0  0
   -3.6227    1.5496    3.2676 H   0  0  0  0  0  0  0  0  0  0  0  0
   -3.0404   -0.4898    2.5237 H   0  0  0  0  0  0  0  0  0  0  0  0
   -5.9066   -0.6785    2.0929 H   0  0  0  0  0  0  0  0  0  0  0  0
   -4.7105   -1.9700    2.2256 H   0  0  0  0  0  0  0  0  0  0  0  0
   -4.5597   -2.3351    0.0115 H   0  0  0  0  0  0  0  0  0  0  0  0
   -8.5529   -1.4732    0.9072 H   0  0  0  0  0  0  0  0  0  0  0  0
   -4.4409   -0.8221   -1.6529 H   0  0  0  0  0  0  0  0  0  0  0  0
   -6.0083   -0.0896   -1.2729 H   0  0  0  0  0  0  0  0  0  0  0  0
    2.3238    1.5325    0.0347 H   0  0  0  0  0  0  0  0  0  0  0  0
    1.3009    0.4843    1.0423 H   0  0  0  0  0  0  0  0  0  0  0  0
    3.5853    0.0273    1.4538 H   0  0  0  0  0  0  0  0  0  0  0  0
    3.0395   -1.4102    0.4371 H   0  0  0  0  0  0  0  0  0  0  0  0
    5.5446   -0.4777    1.6934 H   0  0  0  0  0  0  0  0  0  0  0  0
    7.9733   -0.3799    1.9705 H   0  0  0  0  0  0  0  0  0  0  0  0
    8.3921    0.6653   -2.0976 H   0  0  0  0  0  0  0  0  0  0  0  0
    3.3597    1.3515   -2.0186 H   0  0  0  0  0  0  0  0  0  0  0  0
    4.2499   -0.0477   -2.7209 H   0  0  0  0  0  0  0  0  0  0  0  0
    1.9256   -0.6164   -2.9886 H   0  0  0  0  0  0  0  0  0  0  0  0
    2.6155   -1.5797   -1.5960 H   0  0  0  0  0  0  0  0  0  0  0  0
  1  2  1  0
  2  3  1  0
  2  4  1  0
  4  5  2  0
  4  6  1  0
  6  7  1  0
  7  8  1  0
  8  9  1  0
  9 10  1  0
 10 11  1  0
 11 12  1  0
 12 13  1  0
 13 14  1  0
 14 15  1  0
 15 16  2  0
 15 17  1  0
 14 18  1  0
  2 19  1  0
 19 20  1  0
 20 21  1  0
 21 22  1  0
 22 23  1  0
 23 24  2  0
 24 25  1  0
 25 26  2  0
 26 27  1  0
 27 28  1  0
 27 29  1  0
 27 30  1  0
 26 31  1  0
 31 32  2  0
 22 33  1  0
 33 34  1  0
 12  7  1  0
 34 19  1  0
 18  8  1  0
 32 23  1  0
  1 35  1  0
  1 36  1  0
  1 37  1  0
  3 38  1  0
  3 39  1  0
  3 40  1  0
  6 41  1  0
  7 42  1  1
  8 43  1  0
  9 44  1  0
  9 45  1  0
 10 46  1  0
 10 47  1  0
 11 48  1  0
 11 49  1  0
 12 50  1  0
 13 51  1  0
 13 52  1  0
 14 53  1  6
 17 54  1  0
 18 55  1  0
 18 56  1  0
 20 57  1  0
 20 58  1  0
 21 59  1  0
 21 60  1  0
 24 61  1  0
 25 62  1  0
 31 63  1  0
 33 64  1  0
 33 65  1  0
 34 66  1  0
 34 67  1  0
M  END
$$$$
