
     RDKit          3D

 72 75  0  0  0  0  0  0  0  0999 V2000
    8.7652   -1.9709   -2.0979 C   0  0  0  0  0  0  0  0  0  0  0  0
    8.7109   -1.1519   -0.8288 C   0  0  0  0  0  0  0  0  0  0  0  0
    9.6386    0.0258   -1.0144 C   0  0  0  0  0  0  0  0  0  0  0  0
    7.3492   -0.6805   -0.5792 N   0  0  0  0  0  0  0  0  0  0  0  0
    7.1131    0.6134   -0.3877 C   0  0  0  0  0  0  0  0  0  0  0  0
    5.8282    1.0880   -0.1485 C   0  0  0  0  0  0  0  0  0  0  0  0
    4.7649    0.2224   -0.1043 C   0  0  0  0  0  0  0  0  0  0  0  0
    3.4265    0.6955    0.1386 C   0  0  0  0  0  0  0  0  0  0  0  0
    3.0496    1.9589   -0.3103 C   0  0  0  0  0  0  0  0  0  0  0  0
    1.7856    2.3903   -0.0678 C   0  0  0  0  0  0  0  0  0  0  0  0
    0.8054    1.6579    0.6106 C   0  0  0  0  0  0  0  0  0  0  0  0
   -0.5275    2.2264    0.8189 C   0  0  2  0  0  0  0  0  0  0  0  0
   -0.6393    3.0030    2.1279 C   0  0  0  0  0  0  0  0  0  0  0  0
   -1.6461    1.3674    0.5987 N   0  0  0  0  0  0  0  0  0  0  0  0
   -1.9898    0.2192    1.4452 C   0  0  0  0  0  0  0  0  0  0  0  0
   -3.4921    0.3081    1.6490 C   0  0  0  0  0  0  0  0  0  0  0  0
   -4.2098   -0.0407    0.3228 C   0  0  2  0  0  0  0  0  0  0  0  0
   -5.5884    0.4192    0.5610 C   0  0  0  0  0  0  0  0  0  0  0  0
   -6.6514    0.3051   -0.4287 C   0  0  0  0  0  0  0  0  0  0  0  0
   -7.9028    0.9190    0.2796 C   0  0  0  0  0  0  0  0  0  0  0  0
   -6.5305    1.1313   -1.6666 C   0  0  0  0  0  0  0  0  0  0  0  0
   -7.0933   -1.0033   -0.6895 O   0  0  0  0  0  0  0  0  0  0  0  0
   -4.0727   -1.4910    0.0325 C   0  0  0  0  0  0  0  0  0  0  0  0
   -3.6059   -2.3497    1.0027 C   0  0  0  0  0  0  0  0  0  0  0  0
   -3.4745   -3.6889    0.6783 C   0  0  0  0  0  0  0  0  0  0  0  0
   -3.8024   -4.1530   -0.5834 C   0  0  0  0  0  0  0  0  0  0  0  0
   -4.2664   -3.2585   -1.5275 C   0  0  0  0  0  0  0  0  0  0  0  0
   -4.4023   -1.9237   -1.2210 C   0  0  0  0  0  0  0  0  0  0  0  0
   -3.5199    0.6188   -0.7419 O   0  0  0  0  0  0  0  0  0  0  0  0
   -2.5588    1.5891   -0.4706 C   0  0  0  0  0  0  0  0  0  0  0  0
   -2.4735    2.6535   -1.1410 O   0  0  0  0  0  0  0  0  0  0  0  0
    1.1964    0.4181    1.0434 C   0  0  0  0  0  0  0  0  0  0  0  0
    2.4898   -0.0659    0.8145 C   0  0  0  0  0  0  0  0  0  0  0  0
    5.0152   -1.1172   -0.3036 C   0  0  0  0  0  0  0  0  0  0  0  0
    6.3110   -1.5434   -0.5385 C   0  0  0  0  0  0  0  0  0  0  0  0
    6.5631   -2.7567   -0.7228 O   0  0  0  0  0  0  0  0  0  0  0  0
    8.6824   -3.0504   -1.8750 H   0  0  0  0  0  0  0  0  0  0  0  0
    7.9845   -1.5981   -2.7861 H   0  0  0  0  0  0  0  0  0  0  0  0
    9.7509   -1.8033   -2.5887 H   0  0  0  0  0  0  0  0  0  0  0  0
    9.0845   -1.7355    0.0374 H   0  0  0  0  0  0  0  0  0  0  0  0
    9.7819    0.5533   -0.0372 H   0  0  0  0  0  0  0  0  0  0  0  0
    9.2927    0.7136   -1.8054 H   0  0  0  0  0  0  0  0  0  0  0  0
   10.6044   -0.3929   -1.3780 H   0  0  0  0  0  0  0  0  0  0  0  0
    7.9433    1.3281   -0.4174 H   0  0  0  0  0  0  0  0  0  0  0  0
    5.7333    2.1550   -0.0041 H   0  0  0  0  0  0  0  0  0  0  0  0
    3.8065    2.5308   -0.8361 H   0  0  0  0  0  0  0  0  0  0  0  0
    1.4999    3.3713   -0.4189 H   0  0  0  0  0  0  0  0  0  0  0  0
   -0.6360    3.0410    0.0170 H   0  0  0  0  0  0  0  0  0  0  0  0
    0.1149    3.8089    2.1411 H   0  0  0  0  0  0  0  0  0  0  0  0
   -1.6243    3.4730    2.1783 H   0  0  0  0  0  0  0  0  0  0  0  0
   -0.4576    2.3607    3.0112 H   0  0  0  0  0  0  0  0  0  0  0  0
   -1.5467    0.2622    2.4426 H   0  0  0  0  0  0  0  0  0  0  0  0
   -1.6849   -0.6781    0.9157 H   0  0  0  0  0  0  0  0  0  0  0  0
   -3.8910   -0.2018    2.5107 H   0  0  0  0  0  0  0  0  0  0  0  0
   -3.6635    1.4080    1.8630 H   0  0  0  0  0  0  0  0  0  0  0  0
   -5.9404   -0.0666    1.5055 H   0  0  0  0  0  0  0  0  0  0  0  0
   -5.5121    1.5135    0.8638 H   0  0  0  0  0  0  0  0  0  0  0  0
   -8.1774    0.2481    1.1091 H   0  0  0  0  0  0  0  0  0  0  0  0
   -8.6996    1.0985   -0.4453 H   0  0  0  0  0  0  0  0  0  0  0  0
   -7.5283    1.8813    0.7238 H   0  0  0  0  0  0  0  0  0  0  0  0
   -5.9737    0.7109   -2.4947 H   0  0  0  0  0  0  0  0  0  0  0  0
   -6.2070    2.1471   -1.3642 H   0  0  0  0  0  0  0  0  0  0  0  0
   -7.5795    1.2784   -2.0662 H   0  0  0  0  0  0  0  0  0  0  0  0
   -7.6114   -1.3740    0.0471 H   0  0  0  0  0  0  0  0  0  0  0  0
   -3.3343   -2.0099    2.0209 H   0  0  0  0  0  0  0  0  0  0  0  0
   -3.1138   -4.3877    1.4105 H   0  0  0  0  0  0  0  0  0  0  0  0
   -3.7197   -5.1798   -0.8901 H   0  0  0  0  0  0  0  0  0  0  0  0
   -4.5304   -3.6106   -2.5336 H   0  0  0  0  0  0  0  0  0  0  0  0
   -4.7639   -1.2390   -2.0103 H   0  0  0  0  0  0  0  0  0  0  0  0
    0.5554   -0.2601    1.5792 H   0  0  0  0  0  0  0  0  0  0  0  0
    2.7549   -1.0530    1.1757 H   0  0  0  0  0  0  0  0  0  0  0  0
    4.2406   -1.8777   -0.2874 H   0  0  0  0  0  0  0  0  0  0  0  0
  1  2  1  0
  2  3  1  0
  2  4  1  0
  4  5  1  0
  5  6  2  0
  6  7  1  0
  7  8  1  0
  8  9  2  0
  9 10  1  0
 10 11  2  0
 11 12  1  0
 12 13  1  0
 12 14  1  0
 14 15  1  0
 15 16  1  0
 16 17  1  0
 17 18  1  1
 18 19  1  0
 19 20  1  0
 19 21  1  0
 19 22  1  0
 17 23  1  0
 23 24  2  0
 24 25  1  0
 25 26  2  0
 26 27  1  0
 27 28  2  0
 17 29  1  0
 29 30  1  0
 30 31  2  0
 11 32  1  0
 32 33  2  0
  7 34  2  0
 34 35  1  0
 35 36  2  0
 35  4  1  0
 33  8  1  0
 30 14  1  0
 28 23  1  0
  1 37  1  0
  1 38  1  0
  1 39  1  0
  2 40  1  0
  3 41  1  0
  3 42  1  0
  3 43  1  0
  5 44  1  0
  6 45  1  0
  9 46  1  0
 10 47  1  0
 12 48  1  6
 13 49  1  0
 13 50  1  0
 13 51  1  0
 15 52  1  0
 15 53  1  0
 16 54  1  0
 16 55  1  0
 18 56  1  0
 18 57  1  0
 20 58  1  0
 20 59  1  0
 20 60  1  0
 21 61  1  0
 21 62  1  0
 21 63  1  0
 22 64  1  0
 24 65  1  0
 25 66  1  0
 26 67  1  0
 27 68  1  0
 28 69  1  0
 32 70  1  0
 33 71  1  0
 34 72  1  0
M  END
$$$$
