@<TRIPOS>MOLECULE
*****
 72 75 0 0 0
SMALL
GASTEIGER

@<TRIPOS>ATOM
      1 C           8.7652   -1.9709   -2.0979 C.3     1  UNL1       -0.0444
      2 C           8.7109   -1.1519   -0.8288 C.3     1  UNL1        0.0317
      3 C           9.6386    0.0258   -1.0144 C.3     1  UNL1       -0.0444
      4 N           7.3492   -0.6805   -0.5792 N.ar    1  UNL1       -0.3127
      5 C           7.1131    0.6134   -0.3877 C.ar    1  UNL1        0.0088
      6 C           5.8282    1.0880   -0.1485 C.ar    1  UNL1       -0.0376
      7 C           4.7649    0.2224   -0.1043 C.ar    1  UNL1       -0.0114
      8 C           3.4265    0.6955    0.1386 C.ar    1  UNL1       -0.0177
      9 C           3.0496    1.9589   -0.3103 C.ar    1  UNL1       -0.0537
     10 C           1.7856    2.3903   -0.0678 C.ar    1  UNL1       -0.0562
     11 C           0.8054    1.6579    0.6106 C.ar    1  UNL1       -0.0271
     12 C          -0.5275    2.2264    0.8189 C.3     1  UNL1        0.0515
     13 C          -0.6393    3.0030    2.1279 C.3     1  UNL1       -0.0421
     14 N          -1.6461    1.3674    0.5987 N.am    1  UNL1       -0.2605
     15 C          -1.9898    0.2192    1.4452 C.3     1  UNL1        0.0224
     16 C          -3.4921    0.3081    1.6490 C.3     1  UNL1        0.0076
     17 C          -4.2098   -0.0407    0.3228 C.3     1  UNL1        0.1440
     18 C          -5.5884    0.4192    0.5610 C.3     1  UNL1        0.0199
     19 C          -6.6514    0.3051   -0.4287 C.3     1  UNL1        0.0645
     20 C          -7.9028    0.9190    0.2796 C.3     1  UNL1       -0.0362
     21 C          -6.5305    1.1313   -1.6666 C.3     1  UNL1       -0.0362
     22 O          -7.0933   -1.0033   -0.6895 O.3     1  UNL1       -0.3890
     23 C          -4.0727   -1.4910    0.0325 C.ar    1  UNL1       -0.0040
     24 C          -3.6059   -2.3497    1.0027 C.ar    1  UNL1       -0.0548
     25 C          -3.4745   -3.6889    0.6783 C.ar    1  UNL1       -0.0614
     26 C          -3.8024   -4.1530   -0.5834 C.ar    1  UNL1       -0.0617
     27 C          -4.2664   -3.2585   -1.5275 C.ar    1  UNL1       -0.0614
     28 C          -4.4023   -1.9237   -1.2210 C.ar    1  UNL1       -0.0548
     29 O          -3.5199    0.6188   -0.7419 O.3     1  UNL1       -0.4387
     30 C          -2.5588    1.5891   -0.4706 C.2     1  UNL1        0.4042
     31 O          -2.4735    2.6535   -1.1410 O.2     1  UNL1       -0.2262
     32 C           1.1964    0.4181    1.0434 C.ar    1  UNL1       -0.0562
     33 C           2.4898   -0.0659    0.8145 C.ar    1  UNL1       -0.0537
     34 C           5.0152   -1.1172   -0.3036 C.ar    1  UNL1        0.0107
     35 C           6.3110   -1.5434   -0.5385 C.ar    1  UNL1        0.2521
     36 O           6.5631   -2.7567   -0.7228 O.2     1  UNL1       -0.2677
     37 H           8.6824   -3.0504   -1.8750 H       1  UNL1        0.0249
     38 H           7.9845   -1.5981   -2.7861 H       1  UNL1        0.0249
     39 H           9.7509   -1.8033   -2.5887 H       1  UNL1        0.0249
     40 H           9.0845   -1.7355    0.0374 H       1  UNL1        0.0523
     41 H           9.7819    0.5533   -0.0372 H       1  UNL1        0.0249
     42 H           9.2927    0.7136   -1.8054 H       1  UNL1        0.0249
     43 H          10.6044   -0.3929   -1.3780 H       1  UNL1        0.0249
     44 H           7.9433    1.3281   -0.4174 H       1  UNL1        0.0810
     45 H           5.7333    2.1550   -0.0041 H       1  UNL1        0.0638
     46 H           3.8065    2.5308   -0.8361 H       1  UNL1        0.0624
     47 H           1.4999    3.3713   -0.4189 H       1  UNL1        0.0621
     48 H          -0.6360    3.0410    0.0170 H       1  UNL1        0.0549
     49 H           0.1149    3.8089    2.1411 H       1  UNL1        0.0251
     50 H          -1.6243    3.4730    2.1783 H       1  UNL1        0.0251
     51 H          -0.4576    2.3607    3.0112 H       1  UNL1        0.0251
     52 H          -1.5467    0.2622    2.4426 H       1  UNL1        0.0467
     53 H          -1.6849   -0.6781    0.9157 H       1  UNL1        0.0467
     54 H          -3.8910   -0.2018    2.5107 H       1  UNL1        0.0322
     55 H          -3.6635    1.4080    1.8630 H       1  UNL1        0.0322
     56 H          -5.9404   -0.0666    1.5055 H       1  UNL1        0.0335
     57 H          -5.5121    1.5135    0.8638 H       1  UNL1        0.0335
     58 H          -8.1774    0.2481    1.1091 H       1  UNL1        0.0257
     59 H          -8.6996    1.0985   -0.4453 H       1  UNL1        0.0257
     60 H          -7.5283    1.8813    0.7238 H       1  UNL1        0.0257
     61 H          -5.9737    0.7109   -2.4947 H       1  UNL1        0.0257
     62 H          -6.2070    2.1471   -1.3642 H       1  UNL1        0.0257
     63 H          -7.5795    1.2784   -2.0662 H       1  UNL1        0.0257
     64 H          -7.6114   -1.3740    0.0471 H       1  UNL1        0.2101
     65 H          -3.3343   -2.0099    2.0209 H       1  UNL1        0.0622
     66 H          -3.1138   -4.3877    1.4105 H       1  UNL1        0.0618
     67 H          -3.7197   -5.1798   -0.8901 H       1  UNL1        0.0618
     68 H          -4.5304   -3.6106   -2.5336 H       1  UNL1        0.0618
     69 H          -4.7639   -1.2390   -2.0103 H       1  UNL1        0.0622
     70 H           0.5554   -0.2601    1.5792 H       1  UNL1        0.0621
     71 H           2.7549   -1.0530    1.1757 H       1  UNL1        0.0624
     72 H           4.2406   -1.8777   -0.2874 H       1  UNL1        0.0678
@<TRIPOS>BOND
     1     1     2    1
     2     2     3    1
     3     2     4    1
     4     4     5   ar
     5     5     6   ar
     6     6     7   ar
     7     7     8    1
     8     8     9   ar
     9     9    10   ar
    10    10    11   ar
    11    11    12    1
    12    12    13    1
    13    12    14    1
    14    14    15    1
    15    15    16    1
    16    16    17    1
    17    17    18    1
    18    18    19    1
    19    19    20    1
    20    19    21    1
    21    19    22    1
    22    17    23    1
    23    23    24   ar
    24    24    25   ar
    25    25    26   ar
    26    26    27   ar
    27    27    28   ar
    28    17    29    1
    29    29    30    1
    30    30    31    2
    31    11    32   ar
    32    32    33   ar
    33     7    34   ar
    34    34    35   ar
    35    35    36    2
    36    35     4   ar
    37    33     8   ar
    38    30    14   am
    39    28    23   ar
    40     1    37    1
    41     1    38    1
    42     1    39    1
    43     2    40    1
    44     3    41    1
    45     3    42    1
    46     3    43    1
    47     5    44    1
    48     6    45    1
    49     9    46    1
    50    10    47    1
    51    12    48    1
    52    13    49    1
    53    13    50    1
    54    13    51    1
    55    15    52    1
    56    15    53    1
    57    16    54    1
    58    16    55    1
    59    18    56    1
    60    18    57    1
    61    20    58    1
    62    20    59    1
    63    20    60    1
    64    21    61    1
    65    21    62    1
    66    21    63    1
    67    22    64    1
    68    24    65    1
    69    25    66    1
    70    26    67    1
    71    27    68    1
    72    28    69    1
    73    32    70    1
    74    33    71    1
    75    34    72    1
