
     RDKit          3D

 45 49  0  0  0  0  0  0  0  0999 V2000
   -4.3418   -0.2733    3.0358 N   0  0  0  0  0  0  0  0  0  0  0  0
   -4.9254    0.3155    2.1443 C   0  0  0  0  0  0  0  0  0  0  0  0
   -5.7056    1.0925    0.9993 C   0  0  0  0  0  0  0  0  0  0  0  0
   -6.3653    2.0559    1.4173 C   0  0  0  0  0  0  0  0  0  0  0  0
   -7.5444    2.3815    0.6571 C   0  0  0  0  0  0  0  0  0  0  0  0
   -8.2760    3.4659    1.1320 F   0  0  0  0  0  0  0  0  0  0  0  0
   -7.7981    1.6313   -0.4060 C   0  0  0  0  0  0  0  0  0  0  0  0
   -6.9682    0.5223   -0.8728 C   0  0  0  0  0  0  0  0  0  0  0  0
   -5.8445    0.2290   -0.1386 C   0  0  0  0  0  0  0  0  0  0  0  0
   -4.7296   -0.5325   -0.5578 C   0  0  0  0  0  0  0  0  0  0  0  0
   -3.6146   -0.0484   -0.8257 C   0  0  0  0  0  0  0  0  0  0  0  0
   -2.3130   -0.4402   -1.0366 C   0  0  0  0  0  0  0  0  0  0  0  0
   -2.2044   -1.8550   -0.8918 C   0  0  0  0  0  0  0  0  0  0  0  0
   -0.7330   -2.2776   -0.7644 C   0  0  0  0  0  0  0  0  0  0  0  0
    0.1392   -0.7881   -1.0959 S   0  0  0  0  0  0  0  0  0  0  0  0
    1.8248   -0.5579   -0.6886 C   0  0  0  0  0  0  0  0  0  0  0  0
    1.6488   -0.2199    0.9223 N   0  0  0  0  0  0  0  0  0  0  0  0
    2.7545   -0.0339    1.3742 N   0  0  0  0  0  0  0  0  0  0  0  0
    3.7075   -0.1791    0.3555 C   0  0  0  0  0  0  0  0  0  0  0  0
    5.1498   -0.0464    0.2334 C   0  0  0  0  0  0  0  0  0  0  0  0
    5.7682   -0.0097   -0.8945 C   0  0  0  0  0  0  0  0  0  0  0  0
    7.1140    0.1524   -1.0739 C   0  0  0  0  0  0  0  0  0  0  0  0
    7.9358    0.3144    0.0167 C   0  0  0  0  0  0  0  0  0  0  0  0
    7.3431    0.2738    1.3461 C   0  0  0  0  0  0  0  0  0  0  0  0
    5.9514    0.0753    1.4861 C   0  0  0  0  0  0  0  0  0  0  0  0
    8.4084    0.4746    2.1235 O   0  0  0  0  0  0  0  0  0  0  0  0
    9.4185    1.2380    1.4247 C   0  0  0  0  0  0  0  0  0  0  0  0
    9.2638    0.5644    0.1285 O   0  0  0  0  0  0  0  0  0  0  0  0
    2.9192   -0.4457   -0.5907 O   0  0  0  0  0  0  0  0  0  0  0  0
   -3.3552   -2.5335   -0.6262 C   0  0  0  0  0  0  0  0  0  0  0  0
   -4.6811   -2.0956   -0.4562 C   0  0  0  0  0  0  0  0  0  0  0  0
   -6.2116    2.7186    2.2988 H   0  0  0  0  0  0  0  0  0  0  0  0
   -8.7435    1.8110   -0.9976 H   0  0  0  0  0  0  0  0  0  0  0  0
   -7.3456   -0.0329   -1.7528 H   0  0  0  0  0  0  0  0  0  0  0  0
   -3.6574    1.1703   -1.0770 H   0  0  0  0  0  0  0  0  0  0  0  0
   -1.5015    0.1522   -1.2858 H   0  0  0  0  0  0  0  0  0  0  0  0
   -0.5513   -3.2388   -1.2266 H   0  0  0  0  0  0  0  0  0  0  0  0
   -0.6163   -2.4801    0.3765 H   0  0  0  0  0  0  0  0  0  0  0  0
    5.1572   -0.0984   -1.8259 H   0  0  0  0  0  0  0  0  0  0  0  0
    7.5512    0.2175   -2.0649 H   0  0  0  0  0  0  0  0  0  0  0  0
    5.4304    0.0646    2.3520 H   0  0  0  0  0  0  0  0  0  0  0  0
    8.9072    2.2355    1.2914 H   0  0  0  0  0  0  0  0  0  0  0  0
   10.3941    1.2029    1.8148 H   0  0  0  0  0  0  0  0  0  0  0  0
   -3.2146   -3.6593   -0.4728 H   0  0  0  0  0  0  0  0  0  0  0  0
   -5.5449   -2.5130   -0.2672 H   0  0  0  0  0  0  0  0  0  0  0  0
  1  2  3  0
  2  3  1  0
  3  4  2  0
  4  5  1  0
  5  6  1  0
  5  7  2  0
  7  8  1  0
  8  9  2  0
  9 10  1  0
 10 11  2  0
 11 12  1  0
 12 13  2  0
 13 14  1  0
 14 15  1  0
 15 16  1  0
 16 17  2  0
 17 18  1  0
 18 19  2  0
 19 20  1  0
 20 21  2  0
 21 22  1  0
 22 23  2  0
 23 24  1  0
 24 25  2  0
 24 26  1  0
 26 27  1  0
 27 28  1  0
 19 29  1  0
 13 30  1  0
 30 31  2  0
  9  3  1  0
 31 10  1  0
 29 16  1  0
 25 20  1  0
 28 23  1  0
  4 32  1  0
  7 33  1  0
  8 34  1  0
 11 35  1  0
 12 36  1  0
 14 37  1  0
 14 38  1  0
 21 39  1  0
 22 40  1  0
 25 41  1  0
 27 42  1  0
 27 43  1  0
 30 44  1  0
 31 45  1  0
M  END
$$$$
