@<TRIPOS>MOLECULE
*****
 45 49 0 0 0
SMALL
GASTEIGER

@<TRIPOS>ATOM
      1 N          -4.3418   -0.2733    3.0358 N.1     1  UNL1       -0.1908
      2 C          -4.9254    0.3155    2.1443 C.1     1  UNL1        0.0999
      3 C          -5.7056    1.0925    0.9993 C.ar    1  UNL1        0.0622
      4 C          -6.3653    2.0559    1.4173 C.ar    1  UNL1       -0.0085
      5 C          -7.5444    2.3815    0.6571 C.ar    1  UNL1        0.1247
      6 F          -8.2760    3.4659    1.1320 F       1  UNL1       -0.2054
      7 C          -7.7981    1.6313   -0.4060 C.ar    1  UNL1       -0.0258
      8 C          -6.9682    0.5223   -0.8728 C.ar    1  UNL1       -0.0501
      9 C          -5.8445    0.2290   -0.1386 C.ar    1  UNL1       -0.0003
     10 C          -4.7296   -0.5325   -0.5578 C.ar    1  UNL1       -0.0166
     11 C          -3.6146   -0.0484   -0.8257 C.ar    1  UNL1       -0.0537
     12 C          -2.3130   -0.4402   -1.0366 C.ar    1  UNL1       -0.0572
     13 C          -2.2044   -1.8550   -0.8918 C.ar    1  UNL1       -0.0370
     14 C          -0.7330   -2.2776   -0.7644 C.3     1  UNL1        0.0278
     15 S           0.1392   -0.7881   -1.0959 S.3     1  UNL1       -0.0609
     16 C           1.8248   -0.5579   -0.6886 C.ar    1  UNL1        0.2779
     17 N           1.6488   -0.2199    0.9223 N.ar    1  UNL1       -0.1006
     18 N           2.7545   -0.0339    1.3742 N.ar    1  UNL1       -0.1065
     19 C           3.7075   -0.1791    0.3555 C.ar    1  UNL1        0.2493
     20 C           5.1498   -0.0464    0.2334 C.ar    1  UNL1        0.0422
     21 C           5.7682   -0.0097   -0.8945 C.ar    1  UNL1       -0.0458
     22 C           7.1140    0.1524   -1.0739 C.ar    1  UNL1       -0.0154
     23 C           7.9358    0.3144    0.0167 C.ar    1  UNL1        0.1663
     24 C           7.3431    0.2738    1.3461 C.ar    1  UNL1        0.1670
     25 C           5.9514    0.0753    1.4861 C.ar    1  UNL1       -0.0039
     26 O           8.4084    0.4746    2.1235 O.3     1  UNL1       -0.4526
     27 C           9.4185    1.2380    1.4247 C.3     1  UNL1        0.2332
     28 O           9.2638    0.5644    0.1285 O.3     1  UNL1       -0.4526
     29 O           2.9192   -0.4457   -0.5907 O.2     1  UNL1       -0.4110
     30 C          -3.3552   -2.5335   -0.6262 C.ar    1  UNL1       -0.0572
     31 C          -4.6811   -2.0956   -0.4562 C.ar    1  UNL1       -0.0537
     32 H          -6.2116    2.7186    2.2988 H       1  UNL1        0.0659
     33 H          -8.7435    1.8110   -0.9976 H       1  UNL1        0.0646
     34 H          -7.3456   -0.0329   -1.7528 H       1  UNL1        0.0625
     35 H          -3.6574    1.1703   -1.0770 H       1  UNL1        0.0624
     36 H          -1.5015    0.1522   -1.2858 H       1  UNL1        0.0621
     37 H          -0.5513   -3.2388   -1.2266 H       1  UNL1        0.0430
     38 H          -0.6163   -2.4801    0.3765 H       1  UNL1        0.0430
     39 H           5.1572   -0.0984   -1.8259 H       1  UNL1        0.0626
     40 H           7.5512    0.2175   -2.0649 H       1  UNL1        0.0655
     41 H           5.4304    0.0646    2.3520 H       1  UNL1        0.0663
     42 H           8.9072    2.2355    1.2914 H       1  UNL1        0.1166
     43 H          10.3941    1.2029    1.8148 H       1  UNL1        0.1166
     44 H          -3.2146   -3.6593   -0.4728 H       1  UNL1        0.0621
     45 H          -5.5449   -2.5130   -0.2672 H       1  UNL1        0.0624
@<TRIPOS>BOND
     1     1     2    3
     2     2     3    1
     3     3     4   ar
     4     4     5   ar
     5     5     6    1
     6     5     7   ar
     7     7     8   ar
     8     8     9   ar
     9     9    10    1
    10    10    11   ar
    11    11    12   ar
    12    12    13   ar
    13    13    14    1
    14    14    15    1
    15    15    16    1
    16    16    17   ar
    17    17    18   ar
    18    18    19   ar
    19    19    20    1
    20    20    21   ar
    21    21    22   ar
    22    22    23   ar
    23    23    24   ar
    24    24    25   ar
    25    24    26    1
    26    26    27    1
    27    27    28    1
    28    19    29   ar
    29    13    30   ar
    30    30    31   ar
    31     9     3   ar
    32    31    10   ar
    33    29    16   ar
    34    25    20   ar
    35    28    23    1
    36     4    32    1
    37     7    33    1
    38     8    34    1
    39    11    35    1
    40    12    36    1
    41    14    37    1
    42    14    38    1
    43    21    39    1
    44    22    40    1
    45    25    41    1
    46    27    42    1
    47    27    43    1
    48    30    44    1
    49    31    45    1
