
     RDKit          3D

 57 60  0  0  0  0  0  0  0  0999 V2000
   -4.8795    1.9046    0.8504 C   0  0  0  0  0  0  0  0  0  0  0  0
   -4.1146    0.6060    0.9406 C   0  0  0  0  0  0  0  0  0  0  0  0
   -3.8061    0.3519    2.4164 C   0  0  0  0  0  0  0  0  0  0  0  0
   -4.9413   -0.5767    0.4834 C   0  0  0  0  0  0  0  0  0  0  0  0
   -4.7656   -0.7931   -0.9940 C   0  0  0  0  0  0  0  0  0  0  0  0
   -3.3409   -1.0969   -1.3832 C   0  0  0  0  0  0  0  0  0  0  0  0
   -3.2645   -1.0135   -2.8929 C   0  0  0  0  0  0  0  0  0  0  0  0
   -2.9561   -2.5104   -1.0015 C   0  0  0  0  0  0  0  0  0  0  0  0
   -2.3889   -0.0902   -0.8417 C   0  0  0  0  0  0  0  0  0  0  0  0
   -2.8050    0.6735    0.2413 C   0  0  0  0  0  0  0  0  0  0  0  0
   -1.9476    1.6273    0.7806 C   0  0  0  0  0  0  0  0  0  0  0  0
   -0.6803    1.8195    0.2429 C   0  0  0  0  0  0  0  0  0  0  0  0
   -0.2645    1.0569   -0.8386 C   0  0  0  0  0  0  0  0  0  0  0  0
   -1.1457    0.1216   -1.3436 C   0  0  0  0  0  0  0  0  0  0  0  0
    1.0739    1.2414   -1.4267 C   0  0  1  0  0  0  0  0  0  0  0  0
    1.3757    2.6001   -1.5896 O   0  0  0  0  0  0  0  0  0  0  0  0
    2.1544    0.6706   -0.5762 C   0  0  0  0  0  0  0  0  0  0  0  0
    3.4511    1.0413   -0.9137 C   0  0  0  0  0  0  0  0  0  0  0  0
    4.5468    0.5783   -0.2003 C   0  0  0  0  0  0  0  0  0  0  0  0
    4.3738   -0.2796    0.8845 C   0  0  0  0  0  0  0  0  0  0  0  0
    3.0797   -0.6228    1.1869 C   0  0  0  0  0  0  0  0  0  0  0  0
    1.9669   -0.1781    0.4952 C   0  0  0  0  0  0  0  0  0  0  0  0
    5.4276   -0.7739    1.6337 C   0  0  0  0  0  0  0  0  0  0  0  0
    6.6884   -0.3634    1.2412 C   0  0  0  0  0  0  0  0  0  0  0  0
    6.9257    0.4831    0.1780 C   0  0  0  0  0  0  0  0  0  0  0  0
    5.8323    0.9494   -0.5393 C   0  0  0  0  0  0  0  0  0  0  0  0
    7.8163   -0.8727    2.0176 C   0  0  0  0  0  0  0  0  0  0  0  0
    9.1297   -0.4994    1.6787 O   0  0  0  0  0  0  0  0  0  0  0  0
    7.6818   -1.6347    2.9832 O   0  0  0  0  0  0  0  0  0  0  0  0
   -4.9081    2.3052   -0.1812 H   0  0  0  0  0  0  0  0  0  0  0  0
   -4.3790    2.6357    1.5361 H   0  0  0  0  0  0  0  0  0  0  0  0
   -5.9128    1.6957    1.2098 H   0  0  0  0  0  0  0  0  0  0  0  0
   -3.4533    1.2964    2.8623 H   0  0  0  0  0  0  0  0  0  0  0  0
   -4.7306   -0.0534    2.8628 H   0  0  0  0  0  0  0  0  0  0  0  0
   -3.0212   -0.4485    2.4166 H   0  0  0  0  0  0  0  0  0  0  0  0
   -5.9984   -0.3181    0.6479 H   0  0  0  0  0  0  0  0  0  0  0  0
   -4.7044   -1.4998    1.0314 H   0  0  0  0  0  0  0  0  0  0  0  0
   -5.1809    0.0463   -1.5753 H   0  0  0  0  0  0  0  0  0  0  0  0
   -5.3609   -1.7115   -1.2722 H   0  0  0  0  0  0  0  0  0  0  0  0
   -2.9958    0.0262   -3.1675 H   0  0  0  0  0  0  0  0  0  0  0  0
   -4.2150   -1.3220   -3.3732 H   0  0  0  0  0  0  0  0  0  0  0  0
   -2.4126   -1.6622   -3.2024 H   0  0  0  0  0  0  0  0  0  0  0  0
   -3.6361   -3.1744   -1.5535 H   0  0  0  0  0  0  0  0  0  0  0  0
   -1.9169   -2.6587   -1.4042 H   0  0  0  0  0  0  0  0  0  0  0  0
   -2.9958   -2.7001    0.0808 H   0  0  0  0  0  0  0  0  0  0  0  0
   -2.1544    2.2817    1.6202 H   0  0  0  0  0  0  0  0  0  0  0  0
    0.0376    2.5505    0.6204 H   0  0  0  0  0  0  0  0  0  0  0  0
   -0.8739   -0.5100   -2.1965 H   0  0  0  0  0  0  0  0  0  0  0  0
    1.1382    0.7719   -2.4209 H   0  0  0  0  0  0  0  0  0  0  0  0
    0.8147    2.9125   -2.3525 H   0  0  0  0  0  0  0  0  0  0  0  0
    3.6864    1.7068   -1.7443 H   0  0  0  0  0  0  0  0  0  0  0  0
    2.8515   -1.2800    2.0076 H   0  0  0  0  0  0  0  0  0  0  0  0
    0.9526   -0.4399    0.7228 H   0  0  0  0  0  0  0  0  0  0  0  0
    5.2654   -1.4388    2.4714 H   0  0  0  0  0  0  0  0  0  0  0  0
    7.9279    0.7830   -0.0999 H   0  0  0  0  0  0  0  0  0  0  0  0
    6.0105    1.6209   -1.3839 H   0  0  0  0  0  0  0  0  0  0  0  0
    9.9413   -0.8975    2.1241 H   0  0  0  0  0  0  0  0  0  0  0  0
  1  2  1  0
  2  3  1  0
  2  4  1  0
  4  5  1  0
  5  6  1  0
  6  7  1  0
  6  8  1  0
  6  9  1  0
  9 10  2  0
 10 11  1  0
 11 12  2  0
 12 13  1  0
 13 14  2  0
 13 15  1  0
 15 16  1  0
 15 17  1  0
 17 18  2  0
 18 19  1  0
 19 20  2  0
 20 21  1  0
 21 22  2  0
 20 23  1  0
 23 24  2  0
 24 25  1  0
 25 26  2  0
 24 27  1  0
 27 28  1  0
 27 29  2  0
 10  2  1  0
 22 17  1  0
 14  9  1  0
 26 19  1  0
  1 30  1  0
  1 31  1  0
  1 32  1  0
  3 33  1  0
  3 34  1  0
  3 35  1  0
  4 36  1  0
  4 37  1  0
  5 38  1  0
  5 39  1  0
  7 40  1  0
  7 41  1  0
  7 42  1  0
  8 43  1  0
  8 44  1  0
  8 45  1  0
 11 46  1  0
 12 47  1  0
 14 48  1  0
 15 49  1  6
 16 50  1  0
 18 51  1  0
 21 52  1  0
 22 53  1  0
 23 54  1  0
 25 55  1  0
 26 56  1  0
 28 57  1  0
M  END
$$$$
