
     RDKit          3D

 52 56  0  0  0  0  0  0  0  0999 V2000
   -1.7372   -1.7542    0.0996 C   0  0  2  0  0  0  0  0  0  0  0  0
   -2.9343   -2.2981   -0.6577 C   0  0  0  0  0  0  0  0  0  0  0  0
   -4.0403   -1.2913   -0.8252 C   0  0  0  0  0  0  0  0  0  0  0  0
   -4.0647   -0.2952    0.2890 C   0  0  2  0  0  0  0  0  0  0  0  0
   -5.1259    0.5934    0.0645 O   0  0  0  0  0  0  0  0  0  0  0  0
   -2.7860    0.4717    0.4223 C   0  0  2  0  0  0  0  0  0  0  0  0
   -2.9657    1.7946   -0.2120 C   0  0  0  0  0  0  0  0  0  0  0  0
   -2.2103    2.1105   -1.1818 O   0  0  0  0  0  0  0  0  0  0  0  0
   -3.9140    2.6901    0.2060 O   0  0  0  0  0  0  0  0  0  0  0  0
   -4.1228    3.9737   -0.3741 C   0  0  0  0  0  0  0  0  0  0  0  0
   -1.6496   -0.2803   -0.2059 C   0  0  1  0  0  0  0  0  0  0  0  0
   -0.3496    0.2007    0.4281 C   0  0  0  0  0  0  0  0  0  0  0  0
    0.7112   -0.4568   -0.4599 C   0  0  2  0  0  0  0  0  0  0  0  0
    0.6697   -1.8501   -0.4496 N   0  0  0  0  0  0  0  0  0  0  0  0
    1.8718   -2.5575   -0.2183 C   0  0  0  0  0  0  0  0  0  0  0  0
    3.0676   -1.9085   -0.8777 C   0  0  0  0  0  0  0  0  0  0  0  0
    3.2052   -0.5706   -0.2550 C   0  0  0  0  0  0  0  0  0  0  0  0
    2.0197    0.1220   -0.0620 C   0  0  0  0  0  0  0  0  0  0  0  0
    2.3539    1.3128    0.5141 N   0  0  0  0  0  0  0  0  0  0  0  0
    3.6954    1.3760    0.6809 C   0  0  0  0  0  0  0  0  0  0  0  0
    4.4771    2.3850    1.2202 C   0  0  0  0  0  0  0  0  0  0  0  0
    5.8566    2.1636    1.2615 C   0  0  0  0  0  0  0  0  0  0  0  0
    6.3983    0.9879    0.7825 C   0  0  0  0  0  0  0  0  0  0  0  0
    5.6053   -0.0177    0.2435 C   0  0  0  0  0  0  0  0  0  0  0  0
    4.2474    0.2054    0.2052 C   0  0  0  0  0  0  0  0  0  0  0  0
   -0.5315   -2.5313   -0.2225 C   0  0  0  0  0  0  0  0  0  0  0  0
   -1.9877   -1.8263    1.1811 H   0  0  0  0  0  0  0  0  0  0  0  0
   -3.3298   -3.1452   -0.0611 H   0  0  0  0  0  0  0  0  0  0  0  0
   -2.5754   -2.6736   -1.6546 H   0  0  0  0  0  0  0  0  0  0  0  0
   -3.8825   -0.8099   -1.8205 H   0  0  0  0  0  0  0  0  0  0  0  0
   -5.0322   -1.7914   -0.8546 H   0  0  0  0  0  0  0  0  0  0  0  0
   -4.2763   -0.8281    1.2245 H   0  0  0  0  0  0  0  0  0  0  0  0
   -5.3901    0.9366    0.9660 H   0  0  0  0  0  0  0  0  0  0  0  0
   -2.5709    0.6232    1.4859 H   0  0  0  0  0  0  0  0  0  0  0  0
   -3.4212    4.1467   -1.2228 H   0  0  0  0  0  0  0  0  0  0  0  0
   -4.0125    4.7584    0.4030 H   0  0  0  0  0  0  0  0  0  0  0  0
   -5.1493    4.0768   -0.7809 H   0  0  0  0  0  0  0  0  0  0  0  0
   -1.5375   -0.1297   -1.2928 H   0  0  0  0  0  0  0  0  0  0  0  0
   -0.2191    1.2907    0.3715 H   0  0  0  0  0  0  0  0  0  0  0  0
   -0.2234   -0.2156    1.4318 H   0  0  0  0  0  0  0  0  0  0  0  0
    0.4284   -0.1079   -1.4965 H   0  0  0  0  0  0  0  0  0  0  0  0
    1.7630   -3.5559   -0.7357 H   0  0  0  0  0  0  0  0  0  0  0  0
    2.1317   -2.7881    0.8167 H   0  0  0  0  0  0  0  0  0  0  0  0
    3.9571   -2.5323   -0.6550 H   0  0  0  0  0  0  0  0  0  0  0  0
    2.9415   -1.7739   -1.9617 H   0  0  0  0  0  0  0  0  0  0  0  0
    1.6756    2.0632    0.7856 H   0  0  0  0  0  0  0  0  0  0  0  0
    4.0555    3.3072    1.5963 H   0  0  0  0  0  0  0  0  0  0  0  0
    6.5047    2.9462    1.6841 H   0  0  0  0  0  0  0  0  0  0  0  0
    7.4895    0.8525    0.8332 H   0  0  0  0  0  0  0  0  0  0  0  0
    6.0018   -0.9360   -0.1334 H   0  0  0  0  0  0  0  0  0  0  0  0
   -0.7274   -3.1757   -1.1217 H   0  0  0  0  0  0  0  0  0  0  0  0
   -0.3605   -3.2877    0.5961 H   0  0  0  0  0  0  0  0  0  0  0  0
  1  2  1  0
  2  3  1  0
  3  4  1  0
  4  5  1  0
  4  6  1  0
  6  7  1  0
  7  8  2  0
  7  9  1  0
  9 10  1  0
  6 11  1  0
 11 12  1  0
 12 13  1  0
 13 14  1  0
 14 15  1  0
 15 16  1  0
 16 17  1  0
 17 18  2  0
 18 19  1  0
 19 20  1  0
 20 21  2  0
 21 22  1  0
 22 23  2  0
 23 24  1  0
 24 25  2  0
 14 26  1  0
 11  1  1  0
 18 13  1  0
 25 20  1  0
 26  1  1  0
 25 17  1  0
  1 27  1  1
  2 28  1  0
  2 29  1  0
  3 30  1  0
  3 31  1  0
  4 32  1  1
  5 33  1  0
  6 34  1  1
 10 35  1  0
 10 36  1  0
 10 37  1  0
 11 38  1  6
 12 39  1  0
 12 40  1  0
 13 41  1  6
 15 42  1  0
 15 43  1  0
 16 44  1  0
 16 45  1  0
 19 46  1  0
 21 47  1  0
 22 48  1  0
 23 49  1  0
 24 50  1  0
 26 51  1  0
 26 52  1  0
M  END
$$$$
