@<TRIPOS>MOLECULE
*****
 52 56 0 0 0
SMALL
GASTEIGER

@<TRIPOS>ATOM
      1 C          -1.7372   -1.7542    0.0996 C.3     1  UNL1       -0.0244
      2 C          -2.9343   -2.2981   -0.6577 C.3     1  UNL1       -0.0464
      3 C          -4.0403   -1.2913   -0.8252 C.3     1  UNL1       -0.0258
      4 C          -4.0647   -0.2952    0.2890 C.3     1  UNL1        0.0684
      5 O          -5.1259    0.5934    0.0645 O.3     1  UNL1       -0.3910
      6 C          -2.7860    0.4717    0.4223 C.3     1  UNL1        0.0854
      7 C          -2.9657    1.7946   -0.2120 C.2     1  UNL1        0.3127
      8 O          -2.2103    2.1105   -1.1818 O.2     1  UNL1       -0.2504
      9 O          -3.9140    2.6901    0.2060 O.3     1  UNL1       -0.4677
     10 C          -4.1228    3.9737   -0.3741 C.3     1  UNL1        0.0817
     11 C          -1.6496   -0.2803   -0.2059 C.3     1  UNL1       -0.0200
     12 C          -0.3496    0.2007    0.4281 C.3     1  UNL1       -0.0279
     13 C           0.7112   -0.4568   -0.4599 C.3     1  UNL1        0.0512
     14 N           0.6697   -1.8501   -0.4496 N.3     1  UNL1       -0.2934
     15 C           1.8718   -2.5575   -0.2183 C.3     1  UNL1        0.0036
     16 C           3.0676   -1.9085   -0.8777 C.3     1  UNL1       -0.0125
     17 C           3.2052   -0.5706   -0.2550 C.ar    1  UNL1       -0.0164
     18 C           2.0197    0.1220   -0.0620 C.ar    1  UNL1        0.0376
     19 N           2.3539    1.3128    0.5141 N.ar    1  UNL1       -0.3564
     20 C           3.6954    1.3760    0.6809 C.ar    1  UNL1        0.0470
     21 C           4.4771    2.3850    1.2202 C.ar    1  UNL1       -0.0378
     22 C           5.8566    2.1636    1.2615 C.ar    1  UNL1       -0.0598
     23 C           6.3983    0.9879    0.7825 C.ar    1  UNL1       -0.0611
     24 C           5.6053   -0.0177    0.2435 C.ar    1  UNL1       -0.0523
     25 C           4.2474    0.2054    0.2052 C.ar    1  UNL1        0.0032
     26 C          -0.5315   -2.5313   -0.2225 C.3     1  UNL1        0.0026
     27 H          -1.9877   -1.8263    1.1811 H       1  UNL1        0.0316
     28 H          -3.3298   -3.1452   -0.0611 H       1  UNL1        0.0269
     29 H          -2.5754   -2.6736   -1.6546 H       1  UNL1        0.0269
     30 H          -3.8825   -0.8099   -1.8205 H       1  UNL1        0.0290
     31 H          -5.0322   -1.7914   -0.8546 H       1  UNL1        0.0290
     32 H          -4.2763   -0.8281    1.2245 H       1  UNL1        0.0601
     33 H          -5.3901    0.9366    0.9660 H       1  UNL1        0.2098
     34 H          -2.5709    0.6232    1.4859 H       1  UNL1        0.0442
     35 H          -3.4212    4.1467   -1.2228 H       1  UNL1        0.0661
     36 H          -4.0125    4.7584    0.4030 H       1  UNL1        0.0661
     37 H          -5.1493    4.0768   -0.7809 H       1  UNL1        0.0661
     38 H          -1.5375   -0.1297   -1.2928 H       1  UNL1        0.0313
     39 H          -0.2191    1.2907    0.3715 H       1  UNL1        0.0287
     40 H          -0.2234   -0.2156    1.4318 H       1  UNL1        0.0287
     41 H           0.4284   -0.1079   -1.4965 H       1  UNL1        0.0527
     42 H           1.7630   -3.5559   -0.7357 H       1  UNL1        0.0430
     43 H           2.1317   -2.7881    0.8167 H       1  UNL1        0.0430
     44 H           3.9571   -2.5323   -0.6550 H       1  UNL1        0.0326
     45 H           2.9415   -1.7739   -1.9617 H       1  UNL1        0.0326
     46 H           1.6756    2.0632    0.7856 H       1  UNL1        0.1656
     47 H           4.0555    3.3072    1.5963 H       1  UNL1        0.0638
     48 H           6.5047    2.9462    1.6841 H       1  UNL1        0.0618
     49 H           7.4895    0.8525    0.8332 H       1  UNL1        0.0618
     50 H           6.0018   -0.9360   -0.1334 H       1  UNL1        0.0624
     51 H          -0.7274   -3.1757   -1.1217 H       1  UNL1        0.0429
     52 H          -0.3605   -3.2877    0.5961 H       1  UNL1        0.0429
@<TRIPOS>BOND
     1     1     2    1
     2     2     3    1
     3     3     4    1
     4     4     5    1
     5     4     6    1
     6     6     7    1
     7     7     8    2
     8     7     9    1
     9     9    10    1
    10     6    11    1
    11    11    12    1
    12    12    13    1
    13    13    14    1
    14    14    15    1
    15    15    16    1
    16    16    17    1
    17    17    18   ar
    18    18    19   ar
    19    19    20   ar
    20    20    21   ar
    21    21    22   ar
    22    22    23   ar
    23    23    24   ar
    24    24    25   ar
    25    14    26    1
    26    11     1    1
    27    18    13    1
    28    25    20   ar
    29    26     1    1
    30    25    17   ar
    31     1    27    1
    32     2    28    1
    33     2    29    1
    34     3    30    1
    35     3    31    1
    36     4    32    1
    37     5    33    1
    38     6    34    1
    39    10    35    1
    40    10    36    1
    41    10    37    1
    42    11    38    1
    43    12    39    1
    44    12    40    1
    45    13    41    1
    46    15    42    1
    47    15    43    1
    48    16    44    1
    49    16    45    1
    50    19    46    1
    51    21    47    1
    52    22    48    1
    53    23    49    1
    54    24    50    1
    55    26    51    1
    56    26    52    1
