@<TRIPOS>MOLECULE
*****
 44 46 0 0 0
SMALL
GASTEIGER

@<TRIPOS>ATOM
      1 C          -3.8755    4.7093    0.5229 C.3     1  UNL1        0.0788
      2 O          -3.7829    3.3562    0.1496 O.3     1  UNL1       -0.4951
      3 C          -2.5880    2.6787    0.0275 C.ar    1  UNL1        0.1208
      4 C          -1.4164    3.3418    0.2782 C.ar    1  UNL1       -0.0180
      5 C          -0.2231    2.6363    0.1471 C.ar    1  UNL1       -0.0337
      6 C          -0.2167    1.3100   -0.2235 C.ar    1  UNL1        0.0574
      7 C          -1.4116    0.6390   -0.4759 C.ar    1  UNL1        0.0072
      8 C          -2.5916    1.3498   -0.3438 C.ar    1  UNL1       -0.0105
      9 C          -1.1174   -0.6472   -0.8411 C.ar    1  UNL1       -0.0181
     10 C          -2.0026   -1.7661   -1.1396 C.3     1  UNL1       -0.0154
     11 C          -2.4179   -2.6904   -0.0920 C.3     1  UNL1        0.0488
     12 C          -3.1544   -2.2621    1.0798 C.2     1  UNL1        0.3050
     13 O          -3.5011   -1.1058    1.2992 O.2     1  UNL1       -0.2510
     14 O          -3.5319   -3.1949    2.0805 O.3     1  UNL1       -0.4806
     15 C           0.2917   -0.7133   -0.7993 C.ar    1  UNL1        0.0279
     16 C           0.9849   -1.9652   -1.2248 C.3     1  UNL1       -0.0235
     17 N           0.8301    0.4576   -0.4263 N.ar    1  UNL1       -0.2801
     18 C           2.1749    0.7675   -0.1761 C.2     1  UNL1        0.2631
     19 O           2.4590    2.0346   -0.0696 O.2     1  UNL1       -0.2667
     20 C           3.3053   -0.1214   -0.0144 C.ar    1  UNL1        0.0399
     21 C           4.5628    0.1941   -0.5475 C.ar    1  UNL1       -0.0480
     22 C           5.6719   -0.5865   -0.3241 C.ar    1  UNL1       -0.0427
     23 C           5.5889   -1.7255    0.4436 C.ar    1  UNL1        0.0410
     24 CL          6.9768   -2.7514    0.7533 Cl      1  UNL1       -0.0835
     25 C           4.3635   -2.0604    0.9821 C.ar    1  UNL1       -0.0427
     26 C           3.2507   -1.2548    0.7439 C.ar    1  UNL1       -0.0480
     27 H          -4.8495    5.0777    0.0841 H       1  UNL1        0.0660
     28 H          -3.0920    5.3592    0.0896 H       1  UNL1        0.0660
     29 H          -3.9936    4.8326    1.6208 H       1  UNL1        0.0660
     30 H          -1.3788    4.3824    0.5732 H       1  UNL1        0.0655
     31 H           0.6729    3.1979    0.3562 H       1  UNL1        0.0640
     32 H          -3.5208    0.8271   -0.5554 H       1  UNL1        0.0661
     33 H          -2.9663   -1.3000   -1.5554 H       1  UNL1        0.0319
     34 H          -1.6585   -2.3819   -2.0216 H       1  UNL1        0.0319
     35 H          -3.1233   -3.4412   -0.6149 H       1  UNL1        0.0381
     36 H          -1.5864   -3.4060    0.2183 H       1  UNL1        0.0381
     37 H          -4.3824   -3.0100    2.6354 H       1  UNL1        0.2951
     38 H           1.0457   -2.6647   -0.3817 H       1  UNL1        0.0292
     39 H           1.9743   -1.8057   -1.6464 H       1  UNL1        0.0292
     40 H           0.3284   -2.5289   -1.9744 H       1  UNL1        0.0292
     41 H           4.6324    1.0838   -1.1481 H       1  UNL1        0.0626
     42 H           6.6528   -0.3517   -0.7320 H       1  UNL1        0.0632
     43 H           4.2964   -2.9492    1.5812 H       1  UNL1        0.0632
     44 H           2.3195   -1.5513    1.2192 H       1  UNL1        0.0626
@<TRIPOS>BOND
     1     1     2    1
     2     2     3    1
     3     3     4   ar
     4     4     5   ar
     5     5     6   ar
     6     6     7   ar
     7     7     8   ar
     8     7     9   ar
     9     9    10    1
    10    10    11    1
    11    11    12    1
    12    12    13    2
    13    12    14    1
    14     9    15   ar
    15    15    16    1
    16    15    17   ar
    17    17    18   am
    18    18    19    2
    19    18    20    1
    20    20    21   ar
    21    21    22   ar
    22    22    23   ar
    23    23    24    1
    24    23    25   ar
    25    25    26   ar
    26     8     3   ar
    27    26    20   ar
    28    17     6   ar
    29     1    27    1
    30     1    28    1
    31     1    29    1
    32     4    30    1
    33     5    31    1
    34     8    32    1
    35    10    33    1
    36    10    34    1
    37    11    35    1
    38    11    36    1
    39    14    37    1
    40    16    38    1
    41    16    39    1
    42    16    40    1
    43    21    41    1
    44    22    42    1
    45    25    43    1
    46    26    44    1
