
     RDKit          3D

 44 46  0  0  0  0  0  0  0  0999 V2000
   -3.8755    4.7093    0.5229 C   0  0  0  0  0  0  0  0  0  0  0  0
   -3.7829    3.3562    0.1496 O   0  0  0  0  0  0  0  0  0  0  0  0
   -2.5880    2.6787    0.0275 C   0  0  0  0  0  0  0  0  0  0  0  0
   -1.4164    3.3418    0.2782 C   0  0  0  0  0  0  0  0  0  0  0  0
   -0.2231    2.6363    0.1471 C   0  0  0  0  0  0  0  0  0  0  0  0
   -0.2167    1.3100   -0.2235 C   0  0  0  0  0  0  0  0  0  0  0  0
   -1.4116    0.6390   -0.4759 C   0  0  0  0  0  0  0  0  0  0  0  0
   -2.5916    1.3498   -0.3438 C   0  0  0  0  0  0  0  0  0  0  0  0
   -1.1174   -0.6472   -0.8411 C   0  0  0  0  0  0  0  0  0  0  0  0
   -2.0026   -1.7661   -1.1396 C   0  0  0  0  0  0  0  0  0  0  0  0
   -2.4179   -2.6904   -0.0920 C   0  0  0  0  0  0  0  0  0  0  0  0
   -3.1544   -2.2621    1.0798 C   0  0  0  0  0  0  0  0  0  0  0  0
   -3.5011   -1.1058    1.2992 O   0  0  0  0  0  0  0  0  0  0  0  0
   -3.5319   -3.1949    2.0805 O   0  0  0  0  0  0  0  0  0  0  0  0
    0.2917   -0.7133   -0.7993 C   0  0  0  0  0  0  0  0  0  0  0  0
    0.9849   -1.9652   -1.2248 C   0  0  0  0  0  0  0  0  0  0  0  0
    0.8301    0.4576   -0.4263 N   0  0  0  0  0  0  0  0  0  0  0  0
    2.1749    0.7675   -0.1761 C   0  0  0  0  0  0  0  0  0  0  0  0
    2.4590    2.0346   -0.0696 O   0  0  0  0  0  0  0  0  0  0  0  0
    3.3053   -0.1214   -0.0144 C   0  0  0  0  0  0  0  0  0  0  0  0
    4.5628    0.1941   -0.5475 C   0  0  0  0  0  0  0  0  0  0  0  0
    5.6719   -0.5865   -0.3241 C   0  0  0  0  0  0  0  0  0  0  0  0
    5.5889   -1.7255    0.4436 C   0  0  0  0  0  0  0  0  0  0  0  0
    6.9768   -2.7514    0.7533 Cl  0  0  0  0  0  0  0  0  0  0  0  0
    4.3635   -2.0604    0.9821 C   0  0  0  0  0  0  0  0  0  0  0  0
    3.2507   -1.2548    0.7439 C   0  0  0  0  0  0  0  0  0  0  0  0
   -4.8495    5.0777    0.0841 H   0  0  0  0  0  0  0  0  0  0  0  0
   -3.0920    5.3592    0.0896 H   0  0  0  0  0  0  0  0  0  0  0  0
   -3.9936    4.8326    1.6208 H   0  0  0  0  0  0  0  0  0  0  0  0
   -1.3788    4.3824    0.5732 H   0  0  0  0  0  0  0  0  0  0  0  0
    0.6729    3.1979    0.3562 H   0  0  0  0  0  0  0  0  0  0  0  0
   -3.5208    0.8271   -0.5554 H   0  0  0  0  0  0  0  0  0  0  0  0
   -2.9663   -1.3000   -1.5554 H   0  0  0  0  0  0  0  0  0  0  0  0
   -1.6585   -2.3819   -2.0216 H   0  0  0  0  0  0  0  0  0  0  0  0
   -3.1233   -3.4412   -0.6149 H   0  0  0  0  0  0  0  0  0  0  0  0
   -1.5864   -3.4060    0.2183 H   0  0  0  0  0  0  0  0  0  0  0  0
   -4.3824   -3.0100    2.6354 H   0  0  0  0  0  0  0  0  0  0  0  0
    1.0457   -2.6647   -0.3817 H   0  0  0  0  0  0  0  0  0  0  0  0
    1.9743   -1.8057   -1.6464 H   0  0  0  0  0  0  0  0  0  0  0  0
    0.3284   -2.5289   -1.9744 H   0  0  0  0  0  0  0  0  0  0  0  0
    4.6324    1.0838   -1.1481 H   0  0  0  0  0  0  0  0  0  0  0  0
    6.6528   -0.3517   -0.7320 H   0  0  0  0  0  0  0  0  0  0  0  0
    4.2964   -2.9492    1.5812 H   0  0  0  0  0  0  0  0  0  0  0  0
    2.3195   -1.5513    1.2192 H   0  0  0  0  0  0  0  0  0  0  0  0
  1  2  1  0
  2  3  1  0
  3  4  2  0
  4  5  1  0
  5  6  2  0
  6  7  1  0
  7  8  2  0
  7  9  1  0
  9 10  1  0
 10 11  1  0
 11 12  1  0
 12 13  2  0
 12 14  1  0
  9 15  2  0
 15 16  1  0
 15 17  1  0
 17 18  1  0
 18 19  2  0
 18 20  1  0
 20 21  2  0
 21 22  1  0
 22 23  2  0
 23 24  1  0
 23 25  1  0
 25 26  2  0
  8  3  1  0
 26 20  1  0
 17  6  1  0
  1 27  1  0
  1 28  1  0
  1 29  1  0
  4 30  1  0
  5 31  1  0
  8 32  1  0
 10 33  1  0
 10 34  1  0
 11 35  1  0
 11 36  1  0
 14 37  1  0
 16 38  1  0
 16 39  1  0
 16 40  1  0
 21 41  1  0
 22 42  1  0
 25 43  1  0
 26 44  1  0
M  END
$$$$
