@<TRIPOS>MOLECULE
*****
 177 184 0 0 0
SMALL
GASTEIGER

@<TRIPOS>ATOM
      1 C          -0.2635   -2.5313    5.4445 C.3     1  UNL1       -0.0626
      2 C           0.0715   -2.0199    4.0534 C.3     1  UNL1       -0.0446
      3 C           0.6547   -3.1772    3.2595 C.3     1  UNL1       -0.0626
      4 C          -1.1337   -1.5379    3.3287 C.3     1  UNL1       -0.0236
      5 C          -1.8564   -0.3500    4.0864 C.3     1  UNL1        0.0996
      6 N          -3.0390   -0.1063    3.2691 N.am    1  UNL1       -0.3025
      7 C          -4.0410   -1.1102    3.4664 C.2     1  UNL1        0.2343
      8 O          -4.0522   -2.0730    4.2584 O.2     1  UNL1       -0.2738
      9 C          -5.2713   -1.1320    2.6859 C.3     1  UNL1        0.1034
     10 C          -6.5124   -0.8829    3.5129 C.3     1  UNL1        0.0013
     11 C          -7.7743   -0.9750    2.7438 C.ar    1  UNL1       -0.0201
     12 C          -7.9909   -2.4351    2.5057 C.ar    1  UNL1        0.0060
     13 N          -9.1054   -2.4070    1.6799 N.ar    1  UNL1       -0.3604
     14 C          -9.6194   -1.2433    1.3546 C.ar    1  UNL1        0.0467
     15 C         -10.5493   -0.5419    0.6880 C.ar    1  UNL1       -0.0378
     16 C         -10.6392    0.8575    0.6866 C.ar    1  UNL1       -0.0598
     17 C          -9.7352    1.6912    1.4008 C.ar    1  UNL1       -0.0611
     18 C          -8.7470    0.9019    2.1015 C.ar    1  UNL1       -0.0523
     19 C          -8.7752   -0.4355    2.0230 C.ar    1  UNL1        0.0029
     20 N          -5.1795   -0.4879    1.4445 N.am    1  UNL1       -0.3022
     21 C          -5.2621    0.1489    0.2441 C.2     1  UNL1        0.2343
     22 O          -6.4649    0.3903    0.0241 O.2     1  UNL1       -0.2738
     23 C          -4.4627    0.6815   -0.9422 C.3     1  UNL1        0.1034
     24 C          -5.0183   -0.1358   -2.1091 C.3     1  UNL1       -0.0007
     25 C          -4.7868   -1.6004   -1.9055 C.ar    1  UNL1       -0.0449
     26 C          -5.7062   -2.4605   -1.2963 C.ar    1  UNL1       -0.0551
     27 C          -5.3882   -3.8157   -1.1195 C.ar    1  UNL1       -0.0199
     28 C          -4.2130   -4.3915   -1.5130 C.ar    1  UNL1        0.1169
     29 O          -3.9375   -5.7210   -1.3308 O.3     1  UNL1       -0.5068
     30 C          -3.2944   -3.5465   -2.1185 C.ar    1  UNL1       -0.0199
     31 C          -3.5965   -2.2385   -2.2857 C.ar    1  UNL1       -0.0551
     32 N          -3.0789    0.4985   -0.7615 N.am    1  UNL1       -0.3021
     33 C          -1.7468    0.3434   -0.5466 C.2     1  UNL1        0.2362
     34 O          -1.7105    0.9181    0.6660 O.2     1  UNL1       -0.2737
     35 CA         -0.3801   -0.0482   -0.8062 C.3     1  UNL1        0.1226
     36 C           0.5638    1.0678   -0.4362 C.3     1  UNL1        0.0711
     37 O           0.4262    2.2084   -1.2034 O.3     1  UNL1       -0.3927
     38 N          -0.2484   -0.4914   -2.1268 N.am    1  UNL1       -0.3006
     39 C          -0.0200   -1.1705   -3.3032 C.2     1  UNL1        0.2343
     40 O           0.4618   -2.3447   -2.9105 O.2     1  UNL1       -0.2738
     41 CA         -0.0413   -1.2241   -4.8210 C.3     1  UNL1        0.1034
     42 CB         -1.4502   -1.0505   -5.2158 C.3     1  UNL1        0.0013
     43 CG         -1.6606   -1.0226   -6.6976 C.ar    1  UNL1       -0.0201
     44 CD1        -1.9960   -1.7807   -7.8088 C.ar    1  UNL1        0.0060
     45 NE1        -1.9497   -1.0862   -9.0038 N.ar    1  UNL1       -0.3604
     46 CE2        -1.5725    0.1417   -8.6260 C.ar    1  UNL1        0.0467
     47 CD2        -1.3787    0.2512   -7.2556 C.ar    1  UNL1        0.0029
     48 CE3        -0.9707    1.5722   -6.8414 C.ar    1  UNL1       -0.0523
     49 CZ3        -0.7813    2.6245   -7.6520 C.ar    1  UNL1       -0.0611
     50 CH2        -1.0237    2.3034   -8.9543 C.ar    1  UNL1       -0.0598
     51 CZ2        -1.4059    1.1855   -9.6044 C.ar    1  UNL1       -0.0378
     52 N           0.3887   -2.6252   -5.0538 N.am    1  UNL1       -0.3022
     53 C           1.7451   -2.7522   -4.7030 C.2     1  UNL1        0.2343
     54 O           2.6503   -1.9638   -4.2768 O.2     1  UNL1       -0.2738
     55 CA          2.8715   -3.6460   -4.5786 C.3     1  UNL1        0.1048
     56 CB          2.4992   -4.8145   -3.5966 C.3     1  UNL1        0.0180
     57 CG          3.6908   -5.6872   -3.5164 C.ar    1  UNL1        0.0610
     58 CD2         3.5692   -6.8119   -2.6851 C.ar    1  UNL1        0.0243
     59 NE2         4.7352   -7.5810   -2.6393 N.ar    1  UNL1       -0.3506
     60 CE1         5.5368   -6.8382   -3.4886 C.ar    1  UNL1        0.0936
     61 ND1         4.9260   -5.7914   -3.9651 N.ar    1  UNL1       -0.2408
     62 N           3.9993   -2.9971   -3.9404 N.am    1  UNL1       -0.3021
     63 C           4.5105   -3.2422   -2.5961 C.2     1  UNL1        0.2340
     64 O           4.2834   -3.9240   -1.5943 O.2     1  UNL1       -0.2738
     65 CA          5.6976   -2.4334   -2.2726 C.3     1  UNL1        0.0998
     66 C           5.3414   -1.3105   -1.2663 C.3     1  UNL1       -0.0177
     67 C           6.5871   -0.4297   -1.3201 C.3     1  UNL1        0.0261
     68 C           7.1805   -0.8758   -2.6316 C.2     1  UNL1        0.2137
     69 O           8.3766   -0.4235   -2.7627 O.2     1  UNL1       -0.2758
     70 N           6.2521   -1.6945   -3.4038 N.am    1  UNL1       -0.3040
     71 C          -0.9180    0.7565    4.0155 C.2     1  UNL1        0.2340
     72 O           0.3003    0.8654    4.3438 O.2     1  UNL1       -0.2738
     73 N          -1.1347    2.1030    3.5259 N.am    1  UNL1       -0.3025
     74 C           0.0257    3.0188    3.4802 C.3     1  UNL1        0.0997
     75 C          -0.5960    4.3783    3.0937 C.3     1  UNL1       -0.0231
     76 C           0.3828    5.4648    2.9706 C.3     1  UNL1       -0.0201
     77 C           1.4103    5.4933    1.9292 C.3     1  UNL1        0.0647
     78 N           1.0553    5.7686    0.5720 N.pl3   1  UNL1       -0.2761
     79 C           0.4506    5.4917   -0.6629 C.cat   1  UNL1        0.3762
     80 N           1.0011    5.7605   -1.9207 N.pl3   1  UNL1       -0.2893
     81 N          -0.6466    4.9747   -0.2475 N.pl3   1  UNL1       -0.1298
     82 C           0.5961    3.2507    4.8722 C.2     1  UNL1        0.2365
     83 O          -0.3614    3.4852    5.6967 O.2     1  UNL1       -0.2735
     84 N           2.0213    3.1773    5.0818 N.am    1  UNL1       -0.2884
     85 C           2.9442    2.7212    4.0194 C.3     1  UNL1        0.0156
     86 C           3.9741    1.8786    4.8081 C.3     1  UNL1       -0.0350
     87 C           3.4265    1.9104    6.2545 C.3     1  UNL1       -0.0243
     88 C           2.9679    3.4264    6.1805 C.3     1  UNL1        0.1023
     89 C           4.1858    4.0989    5.7879 C.2     1  UNL1        0.2340
     90 O           4.7886    3.8776    6.9763 O.2     1  UNL1       -0.2738
     91 N           5.2510    4.7636    5.2500 N.am    1  UNL1       -0.3052
     92 C           6.5670    5.3404    5.0844 C.3     1  UNL1        0.0879
     93 C           6.9144    6.1510    6.3168 C.2     1  UNL1        0.2277
     94 N           8.1201    6.6810    6.8187 N.am    1  UNL1       -0.3280
     95 O           7.9832    5.9367    5.5853 O.2     1  UNL1       -0.2743
     96 H           0.1731   -1.8396    6.1806 H       1  UNL1        0.0232
     97 H          -1.3850   -2.6314    5.5159 H       1  UNL1        0.0232
     98 H           0.2323   -3.5290    5.5701 H       1  UNL1        0.0232
     99 H           0.8940   -1.2789    4.1567 H       1  UNL1        0.0296
    100 H           1.4984   -2.8273    2.5990 H       1  UNL1        0.0232
    101 H          -0.1024   -3.6632    2.6268 H       1  UNL1        0.0232
    102 H           1.0850   -3.9122    3.9700 H       1  UNL1        0.0232
    103 H          -0.7780   -1.1135    2.3525 H       1  UNL1        0.0290
    104 H          -1.8597   -2.3495    3.2033 H       1  UNL1        0.0290
    105 H          -2.1053   -0.7731    5.0257 H       1  UNL1        0.0594
    106 H          -3.3260    0.6418    2.5993 H       1  UNL1        0.1495
    107 H          -5.5021   -2.2224    2.3871 H       1  UNL1        0.0598
    108 H          -6.5133    0.1518    3.9225 H       1  UNL1        0.0337
    109 H          -6.4840   -1.5557    4.3531 H       1  UNL1        0.0337
    110 H          -7.5512   -3.3853    2.8090 H       1  UNL1        0.0810
    111 H          -9.5807   -3.2870    1.2863 H       1  UNL1        0.1653
    112 H         -11.2371   -1.1873    0.1292 H       1  UNL1        0.0638
    113 H         -11.4768    1.2191    0.0807 H       1  UNL1        0.0618
    114 H          -9.9976    2.6968    1.2507 H       1  UNL1        0.0618
    115 H          -8.1434    1.6849    2.5919 H       1  UNL1        0.0624
    116 H          -4.0996   -0.6016    1.2772 H       1  UNL1        0.1495
    117 H          -4.7341    1.7255   -1.0428 H       1  UNL1        0.0598
    118 H          -4.6212    0.2228   -3.0720 H       1  UNL1        0.0336
    119 H          -6.1091    0.0875   -2.0707 H       1  UNL1        0.0336
    120 H          -6.6357   -2.0980   -0.9448 H       1  UNL1        0.0621
    121 H          -6.1147   -4.4582   -0.6468 H       1  UNL1        0.0654
    122 H          -3.5642   -6.3596   -2.0240 H       1  UNL1        0.2921
    123 H          -2.3710   -4.0197   -2.4268 H       1  UNL1        0.0654
    124 H          -2.7937   -1.7331   -2.7773 H       1  UNL1        0.0621
    125 H          -2.8122    0.1169   -1.7306 H       1  UNL1        0.1495
    126 HA         -0.0759   -0.9101   -0.1277 H       1  UNL1        0.0618
    127 H1          1.6201    0.7370   -0.3398 H       1  UNL1        0.0580
    128 H2          0.2491    1.3555    0.6053 H       1  UNL1        0.0580
    129 H           1.2588    2.7591   -1.1353 H       1  UNL1        0.2095
    130 H          -0.6118    0.3926   -2.6340 H       1  UNL1        0.1496
    131 HA          0.6946   -0.4873   -5.1349 H       1  UNL1        0.0598
    132 HB1        -1.9303   -0.1966   -4.7530 H       1  UNL1        0.0337
    133 HB2        -1.9949   -2.0018   -4.8875 H       1  UNL1        0.0337
    134 HD1        -2.2301   -2.7942   -7.5378 H       1  UNL1        0.0810
    135 HE1        -2.2063   -1.6518   -9.8328 H       1  UNL1        0.1653
    136 HE3        -0.8212    1.6572   -5.7713 H       1  UNL1        0.0624
    137 HZ3        -0.4747    3.5770   -7.2934 H       1  UNL1        0.0618
    138 HH2        -0.8394    3.1723   -9.6171 H       1  UNL1        0.0618
    139 HZ2        -1.5748    1.0246  -10.6511 H       1  UNL1        0.0638
    140 H           0.1568   -3.5918   -5.3451 H       1  UNL1        0.1495
    141 HA          3.2004   -4.1727   -5.4761 H       1  UNL1        0.0598
    142 HB1         2.2747   -4.4562   -2.5978 H       1  UNL1        0.0351
    143 HB2         1.7252   -5.4104   -4.0851 H       1  UNL1        0.0351
    144 HD2         2.6621   -7.0998   -2.1068 H       1  UNL1        0.0825
    145 HE2         4.7546   -8.4287   -2.0316 H       1  UNL1        0.1662
    146 HE1         6.5495   -7.2465   -3.6063 H       1  UNL1        0.1027
    147 H           4.4642   -2.2803   -4.5636 H       1  UNL1        0.1495
    148 HA          6.4712   -3.0577   -1.7996 H       1  UNL1        0.0595
    149 H           5.1031   -1.7018   -0.2855 H       1  UNL1        0.0292
    150 H           4.4986   -0.6904   -1.6455 H       1  UNL1        0.0292
    151 H           7.2353   -0.7040   -0.4523 H       1  UNL1        0.0359
    152 H           6.3883    0.6289   -1.3799 H       1  UNL1        0.0359
    153 H           6.4410   -1.3460   -4.4050 H       1  UNL1        0.1494
    154 H          -2.1329    2.3275    3.2203 H       1  UNL1        0.1495
    155 H           0.7591    2.7025    2.8058 H       1  UNL1        0.0594
    156 H          -1.4414    4.6141    3.7879 H       1  UNL1        0.0289
    157 H          -1.0954    4.1598    2.1292 H       1  UNL1        0.0289
    158 H           0.9113    5.5291    3.9747 H       1  UNL1        0.0296
    159 H          -0.2133    6.4284    2.8668 H       1  UNL1        0.0296
    160 H           1.8113    4.3957    1.8981 H       1  UNL1        0.0655
    161 H           2.3254    6.0502    2.2080 H       1  UNL1        0.0655
    162 H           1.4990    6.7442    0.4085 H       1  UNL1        0.2579
    163 H           1.5814    5.2553   -2.6481 H       1  UNL1        0.2546
    164 H           1.1317    6.4307   -2.6863 H       1  UNL1        0.2546
    165 H          -1.4195    4.6208   -0.8110 H       1  UNL1        0.3062
    166 H           3.3560    3.5599    3.5040 H       1  UNL1        0.0465
    167 H           2.4708    1.9703    3.3494 H       1  UNL1        0.0465
    168 H           4.9158    2.4009    4.8134 H       1  UNL1        0.0281
    169 H           3.9772    0.8338    4.4515 H       1  UNL1        0.0281
    170 H           2.5675    1.2706    6.3984 H       1  UNL1        0.0288
    171 H           4.2066    1.8770    6.9824 H       1  UNL1        0.0288
    172 H           2.4685    3.7285    7.0787 H       1  UNL1        0.0597
    173 H           4.7378    4.9560    4.3243 H       1  UNL1        0.1492
    174 H           7.1878    4.5958    4.6642 H       1  UNL1        0.0558
    175 H           6.4079    6.2266    4.3141 H       1  UNL1        0.0558
    176 H           9.0450    7.1886    6.9979 H       1  UNL1        0.1450
    177 H           8.1758    6.2455    7.8121 H       1  UNL1        0.1450
@<TRIPOS>BOND
     1     1     2    1
     2     2     3    1
     3     2     4    1
     4     4     5    1
     5     5     6    1
     6     6     7   am
     7     7     8    2
     8     7     9    1
     9     9    10    1
    10    10    11    1
    11    11    12   ar
    12    12    13   ar
    13    13    14   ar
    14    14    15   ar
    15    15    16   ar
    16    16    17   ar
    17    17    18   ar
    18    18    19   ar
    19     9    20    1
    20    20    21   am
    21    21    22    2
    22    21    23    1
    23    23    24    1
    24    24    25    1
    25    25    26   ar
    26    26    27   ar
    27    27    28   ar
    28    28    29    1
    29    28    30   ar
    30    30    31   ar
    31    23    32    1
    32    32    33   am
    33    33    34    2
    34    33    35    1
    35    35    36    1
    36    36    37    1
    37    35    38    1
    38    38    39   am
    39    39    40    2
    40    39    41    1
    41    41    42    1
    42    42    43    1
    43    43    44   ar
    44    44    45   ar
    45    45    46   ar
    46    46    47   ar
    47    47    48   ar
    48    48    49   ar
    49    49    50   ar
    50    50    51   ar
    51    41    52    1
    52    52    53   am
    53    53    54    2
    54    53    55    1
    55    55    56    1
    56    56    57    1
    57    57    58   ar
    58    58    59   ar
    59    59    60   ar
    60    60    61   ar
    61    55    62    1
    62    62    63   am
    63    63    64    2
    64    63    65    1
    65    65    66    1
    66    66    67    1
    67    67    68    1
    68    68    69    2
    69    68    70   am
    70     5    71    1
    71    71    72    2
    72    71    73   am
    73    73    74    1
    74    74    75    1
    75    75    76    1
    76    76    77    1
    77    77    78    1
    78    78    79    1
    79    79    80    1
    80    79    81    2
    81    74    82    1
    82    82    83    2
    83    82    84   am
    84    84    85    1
    85    85    86    1
    86    86    87    1
    87    87    88    1
    88    88    89    1
    89    89    90    2
    90    89    91   am
    91    91    92    1
    92    92    93    1
    93    93    94   am
    94    93    95    2
    95    19    11   ar
    96    31    25   ar
    97    47    43   ar
    98    61    57   ar
    99    70    65    1
   100    88    84    1
   101    19    14   ar
   102    51    46   ar
   103     1    96    1
   104     1    97    1
   105     1    98    1
   106     2    99    1
   107     3   100    1
   108     3   101    1
   109     3   102    1
   110     4   103    1
   111     4   104    1
   112     5   105    1
   113     6   106    1
   114     9   107    1
   115    10   108    1
   116    10   109    1
   117    12   110    1
   118    13   111    1
   119    15   112    1
   120    16   113    1
   121    17   114    1
   122    18   115    1
   123    20   116    1
   124    23   117    1
   125    24   118    1
   126    24   119    1
   127    26   120    1
   128    27   121    1
   129    29   122    1
   130    30   123    1
   131    31   124    1
   132    32   125    1
   133    35   126    1
   134    36   127    1
   135    36   128    1
   136    37   129    1
   137    38   130    1
   138    41   131    1
   139    42   132    1
   140    42   133    1
   141    44   134    1
   142    45   135    1
   143    48   136    1
   144    49   137    1
   145    50   138    1
   146    51   139    1
   147    52   140    1
   148    55   141    1
   149    56   142    1
   150    56   143    1
   151    58   144    1
   152    59   145    1
   153    60   146    1
   154    62   147    1
   155    65   148    1
   156    66   149    1
   157    66   150    1
   158    67   151    1
   159    67   152    1
   160    70   153    1
   161    73   154    1
   162    74   155    1
   163    75   156    1
   164    75   157    1
   165    76   158    1
   166    76   159    1
   167    77   160    1
   168    77   161    1
   169    78   162    1
   170    80   163    1
   171    80   164    1
   172    81   165    1
   173    85   166    1
   174    85   167    1
   175    86   168    1
   176    86   169    1
   177    87   170    1
   178    87   171    1
   179    88   172    1
   180    91   173    1
   181    92   174    1
   182    92   175    1
   183    94   176    1
   184    94   177    1
