@<TRIPOS>MOLECULE
*****
 36 38 0 0 0
SMALL
GASTEIGER

@<TRIPOS>ATOM
      1 O           4.6135    2.5227   -0.5470 O.2     1  UNL1       -0.2451
      2 C           4.7371    1.5294   -1.3042 C.2     1  UNL1        0.3383
      3 O           5.6616    1.5987   -2.3318 O.3     1  UNL1       -0.4771
      4 C           3.9399    0.3154   -1.1318 C.ar    1  UNL1        0.0787
      5 C           4.0845   -0.7688   -1.9694 C.ar    1  UNL1        0.0416
      6 N           3.3528   -1.8846   -1.8121 N.ar    1  UNL1       -0.2605
      7 C           2.4538   -1.9903   -0.8368 C.ar    1  UNL1        0.0539
      8 C           2.2719   -0.9338    0.0269 C.ar    1  UNL1        0.1243
      9 S           1.0723   -1.0941    1.3177 S.O2    1  UNL1        0.0626
     10 O           1.5870   -0.3061    2.4878 O.2     1  UNL1       -0.1528
     11 O           1.0150   -2.5286    1.7046 O.2     1  UNL1       -0.1528
     12 N          -0.4308   -0.5531    0.7408 N.3     1  UNL1       -0.1719
     13 C          -0.4679    0.8135    0.3461 C.3     1  UNL1        0.0248
     14 C          -1.6574    1.5962    0.7908 C.3     1  UNL1       -0.0129
     15 C          -2.8741    0.8019    0.4854 C.ar    1  UNL1       -0.0416
     16 C          -4.0051    1.3128   -0.1020 C.ar    1  UNL1       -0.0582
     17 C          -5.0840    0.4666   -0.3379 C.ar    1  UNL1       -0.0615
     18 C          -4.9903   -0.8605    0.0233 C.ar    1  UNL1       -0.0614
     19 C          -3.8593   -1.4082    0.6196 C.ar    1  UNL1       -0.0570
     20 C          -2.8073   -0.5458    0.8406 C.ar    1  UNL1       -0.0285
     21 C          -1.5558   -1.0366    1.4720 C.3     1  UNL1        0.0458
     22 C           3.0105    0.2112   -0.1203 C.ar    1  UNL1       -0.0184
     23 H           6.4137    2.2788   -2.2328 H       1  UNL1        0.2954
     24 H           4.8289   -0.6743   -2.7727 H       1  UNL1        0.0838
     25 H           1.8466   -2.8985   -0.6954 H       1  UNL1        0.0849
     26 H           0.4901    1.2851    0.6470 H       1  UNL1        0.0447
     27 H          -0.4765    0.8284   -0.7846 H       1  UNL1        0.0447
     28 H          -1.6613    2.5503    0.1891 H       1  UNL1        0.0326
     29 H          -1.6171    1.9176    1.8472 H       1  UNL1        0.0326
     30 H          -4.0114    2.3601   -0.3593 H       1  UNL1        0.0620
     31 H          -5.9691    0.8863   -0.8024 H       1  UNL1        0.0618
     32 H          -5.8458   -1.4905   -0.1739 H       1  UNL1        0.0618
     33 H          -3.8271   -2.4633    0.8894 H       1  UNL1        0.0621
     34 H          -1.5546   -0.7352    2.5428 H       1  UNL1        0.0493
     35 H          -1.5581   -2.1520    1.4250 H       1  UNL1        0.0493
     36 H           2.8740    1.0496    0.5566 H       1  UNL1        0.0646
@<TRIPOS>BOND
     1     1     2    2
     2     2     3    1
     3     2     4    1
     4     4     5   ar
     5     5     6   ar
     6     6     7   ar
     7     7     8   ar
     8     8     9    1
     9     9    10    2
    10     9    11    2
    11     9    12    1
    12    12    13    1
    13    13    14    1
    14    14    15    1
    15    15    16   ar
    16    16    17   ar
    17    17    18   ar
    18    18    19   ar
    19    19    20   ar
    20    20    21    1
    21     8    22   ar
    22    22     4   ar
    23    21    12    1
    24    20    15   ar
    25     3    23    1
    26     5    24    1
    27     7    25    1
    28    13    26    1
    29    13    27    1
    30    14    28    1
    31    14    29    1
    32    16    30    1
    33    17    31    1
    34    18    32    1
    35    19    33    1
    36    21    34    1
    37    21    35    1
    38    22    36    1
