@<TRIPOS>MOLECULE
*****
 50 52 0 0 0
SMALL
GASTEIGER

@<TRIPOS>ATOM
      1 C           0.9318   -4.1283    1.6095 C.3     1  UNL1        0.0789
      2 O           0.6212   -2.8363    1.1285 O.3     1  UNL1       -0.4917
      3 C           1.6030   -1.8356    1.0405 C.ar    1  UNL1        0.1591
      4 C           2.9054   -2.0925    1.4265 C.ar    1  UNL1        0.0717
      5 N           3.8518   -1.1540    1.3518 N.ar    1  UNL1       -0.2511
      6 C           3.6369    0.1181    0.8999 C.ar    1  UNL1        0.0758
      7 C           4.7466    1.0574    0.8635 C.ar    1  UNL1        0.0369
      8 C           6.0109    0.6201    1.2981 C.ar    1  UNL1       -0.0314
      9 C           7.1151    1.4372    1.2990 C.ar    1  UNL1        0.0418
     10 CL          8.6735    0.8368    1.8540 Cl      1  UNL1       -0.0835
     11 C           7.0430    2.7431    0.8696 C.ar    1  UNL1       -0.0406
     12 C           5.8169    3.1846    0.4427 C.ar    1  UNL1       -0.0244
     13 C           4.6824    2.3508    0.4400 C.ar    1  UNL1        0.1326
     14 F           3.5157    2.8705    0.0022 F       1  UNL1       -0.2048
     15 C           2.3614    0.3940    0.5141 C.ar    1  UNL1       -0.0108
     16 C           1.3457   -0.5756    0.5822 C.ar    1  UNL1        0.0772
     17 N          -0.0088   -0.2310    0.1887 N.pl3   1  UNL1       -0.3109
     18 C          -0.5742   -0.9041   -0.9193 C.ar    1  UNL1        0.0466
     19 C           0.2572   -1.7992   -1.6124 C.ar    1  UNL1       -0.0217
     20 C          -0.2616   -2.4814   -2.6804 C.ar    1  UNL1        0.0293
     21 N          -1.5330   -2.2847   -3.0389 N.ar    1  UNL1       -0.2624
     22 C          -2.3402   -1.4330   -2.3877 C.ar    1  UNL1        0.0415
     23 C          -1.8754   -0.7006   -1.2836 C.ar    1  UNL1        0.0758
     24 C          -2.7597    0.2017   -0.5921 C.2     1  UNL1        0.2474
     25 O          -2.4254    0.8665    0.4132 O.2     1  UNL1       -0.2701
     26 N          -4.1226    0.4208   -1.0019 N.am    1  UNL1       -0.3088
     27 C          -4.9795    1.3592   -0.2507 C.3     1  UNL1        0.0377
     28 C          -6.3243    1.3765   -0.9056 C.3     1  UNL1        0.0679
     29 C          -7.2478    2.3856   -0.3090 C.3     1  UNL1       -0.0375
     30 O          -6.9349    0.1330   -0.9171 O.3     1  UNL1       -0.3905
     31 H           1.4483   -3.9691    2.5983 H       1  UNL1        0.0660
     32 H           0.0000   -4.6855    1.7937 H       1  UNL1        0.0660
     33 H           1.6419   -4.6656    0.9584 H       1  UNL1        0.0660
     34 H           3.1071   -3.0993    1.7914 H       1  UNL1        0.0868
     35 H           6.0838   -0.4098    1.6405 H       1  UNL1        0.0639
     36 H           7.9261    3.3658    0.8800 H       1  UNL1        0.0633
     37 H           5.7133    4.1906    0.1007 H       1  UNL1        0.0647
     38 H           2.0956    1.3616    0.1464 H       1  UNL1        0.0659
     39 H          -0.4635    0.4929    0.7495 H       1  UNL1        0.1523
     40 H           1.2885   -1.9568   -1.3416 H       1  UNL1        0.0651
     41 H           0.3113   -3.1878   -3.2655 H       1  UNL1        0.0830
     42 H          -3.3483   -1.3086   -2.7096 H       1  UNL1        0.0838
     43 H          -4.4743   -0.0865   -1.8193 H       1  UNL1        0.1491
     44 H          -4.5627    2.3801   -0.2858 H       1  UNL1        0.0487
     45 H          -5.0035    1.0238    0.7952 H       1  UNL1        0.0487
     46 H          -6.1549    1.6846   -1.9785 H       1  UNL1        0.0606
     47 H          -6.7198    3.3310   -0.0135 H       1  UNL1        0.0255
     48 H          -8.0795    2.6664   -0.9627 H       1  UNL1        0.0255
     49 H          -7.6802    1.9233    0.6230 H       1  UNL1        0.0255
     50 H          -6.8600   -0.2755   -0.0257 H       1  UNL1        0.2098
@<TRIPOS>BOND
     1     1     2    1
     2     2     3    1
     3     3     4   ar
     4     4     5   ar
     5     5     6   ar
     6     6     7    1
     7     7     8   ar
     8     8     9   ar
     9     9    10    1
    10     9    11   ar
    11    11    12   ar
    12    12    13   ar
    13    13    14    1
    14     6    15   ar
    15    15    16   ar
    16    16    17    1
    17    17    18    1
    18    18    19   ar
    19    19    20   ar
    20    20    21   ar
    21    21    22   ar
    22    22    23   ar
    23    23    24    1
    24    24    25    2
    25    24    26   am
    26    26    27    1
    27    27    28    1
    28    28    29    1
    29    28    30    1
    30    16     3   ar
    31    23    18   ar
    32    13     7   ar
    33     1    31    1
    34     1    32    1
    35     1    33    1
    36     4    34    1
    37     8    35    1
    38    11    36    1
    39    12    37    1
    40    15    38    1
    41    17    39    1
    42    19    40    1
    43    20    41    1
    44    22    42    1
    45    26    43    1
    46    27    44    1
    47    27    45    1
    48    28    46    1
    49    29    47    1
    50    29    48    1
    51    29    49    1
    52    30    50    1
