@<TRIPOS>MOLECULE
*****
 48 51 0 0 0
SMALL
GASTEIGER

@<TRIPOS>ATOM
      1 F          -6.4996   -2.9538   -0.2645 F       1  UNL1       -0.1659
      2 C          -5.4748   -2.0404    0.0484 C.3     1  UNL1        0.4180
      3 F          -4.4947   -2.2749   -0.9077 F       1  UNL1       -0.1659
      4 F          -5.0475   -2.3562    1.3012 F       1  UNL1       -0.1659
      5 C          -5.9359   -0.6567   -0.1439 C.ar    1  UNL1        0.0625
      6 C          -7.2597   -0.4991   -0.5912 C.ar    1  UNL1       -0.0495
      7 C          -7.7476    0.7610   -0.8239 C.ar    1  UNL1       -0.0612
      8 C          -6.9346    1.8812   -0.6179 C.ar    1  UNL1       -0.0612
      9 C          -5.6459    1.6787   -0.1791 C.ar    1  UNL1       -0.0535
     10 C          -5.1217    0.4033    0.0672 C.ar    1  UNL1       -0.0062
     11 C          -3.7716    0.2740    0.5578 C.ar    1  UNL1       -0.0153
     12 C          -3.4087   -0.1051    1.8302 C.ar    1  UNL1       -0.0519
     13 C          -2.0705   -0.2355    2.2154 C.ar    1  UNL1       -0.0337
     14 C          -1.0629    0.0184    1.3123 C.ar    1  UNL1        0.0895
     15 N           0.2758   -0.0116    1.3580 N.ar    1  UNL1       -0.2284
     16 C           0.8062    0.3355    0.1602 C.ar    1  UNL1        0.1318
     17 C           2.2235    0.4075   -0.1428 C.2     1  UNL1       -0.0230
     18 C           3.1165    0.1296    0.7614 C.2     1  UNL1       -0.0775
     19 C           4.5816    0.1760    0.5430 C.3     1  UNL1       -0.0225
     20 C           5.1312   -1.2092    0.8588 C.3     1  UNL1       -0.0468
     21 C           6.5608   -1.3307    0.3659 C.3     1  UNL1       -0.0525
     22 C           7.1811    0.0398    0.2092 C.3     1  UNL1       -0.0530
     23 C           6.4694    0.8827   -0.8195 C.3     1  UNL1       -0.0525
     24 C           4.9662    0.5797   -0.8405 C.3     1  UNL1       -0.0468
     25 N          -0.2463    0.5876   -0.6496 N.ar    1  UNL1       -0.3383
     26 C          -1.3963    0.4009    0.0306 C.ar    1  UNL1        0.0670
     27 C          -2.7323    0.5244   -0.3327 C.ar    1  UNL1       -0.0285
     28 H          -7.8923   -1.3574   -0.7522 H       1  UNL1        0.0623
     29 H          -8.7513    0.9709   -1.1682 H       1  UNL1        0.0618
     30 H          -7.3123    2.8759   -0.7997 H       1  UNL1        0.0618
     31 H          -5.0186    2.5376   -0.0198 H       1  UNL1        0.0624
     32 H          -4.1855   -0.2893    2.5735 H       1  UNL1        0.0624
     33 H          -1.7908   -0.5333    3.2124 H       1  UNL1        0.0640
     34 H           2.5391    0.6950   -1.1298 H       1  UNL1        0.0651
     35 H           2.7941   -0.1593    1.7535 H       1  UNL1        0.0576
     36 H           5.0420    0.9037    1.2600 H       1  UNL1        0.0343
     37 H           4.4622   -1.9327    0.3482 H       1  UNL1        0.0271
     38 H           5.0901   -1.3184    1.9667 H       1  UNL1        0.0271
     39 H           6.5590   -1.9238   -0.5488 H       1  UNL1        0.0265
     40 H           7.1269   -1.8619    1.1399 H       1  UNL1        0.0265
     41 H           7.0699    0.5525    1.2011 H       1  UNL1        0.0265
     42 H           8.2451   -0.1107   -0.0674 H       1  UNL1        0.0265
     43 H           6.6228    1.9450   -0.5548 H       1  UNL1        0.0265
     44 H           6.8898    0.6726   -1.8033 H       1  UNL1        0.0265
     45 H           4.7717   -0.2718   -1.5240 H       1  UNL1        0.0271
     46 H           4.4234    1.4896   -1.1384 H       1  UNL1        0.0271
     47 H          -0.1529    0.8842   -1.6579 H       1  UNL1        0.1674
     48 H          -2.9944    0.8245   -1.3380 H       1  UNL1        0.0645
@<TRIPOS>BOND
     1     1     2    1
     2     2     3    1
     3     2     4    1
     4     2     5    1
     5     5     6   ar
     6     6     7   ar
     7     7     8   ar
     8     8     9   ar
     9     9    10   ar
    10    10    11    1
    11    11    12   ar
    12    12    13   ar
    13    13    14   ar
    14    14    15   ar
    15    15    16   ar
    16    16    17    1
    17    17    18    2
    18    18    19    1
    19    19    20    1
    20    20    21    1
    21    21    22    1
    22    22    23    1
    23    23    24    1
    24    16    25   ar
    25    25    26   ar
    26    26    27   ar
    27    10     5   ar
    28    27    11   ar
    29    26    14   ar
    30    24    19    1
    31     6    28    1
    32     7    29    1
    33     8    30    1
    34     9    31    1
    35    12    32    1
    36    13    33    1
    37    17    34    1
    38    18    35    1
    39    19    36    1
    40    20    37    1
    41    20    38    1
    42    21    39    1
    43    21    40    1
    44    22    41    1
    45    22    42    1
    46    23    43    1
    47    23    44    1
    48    24    45    1
    49    24    46    1
    50    25    47    1
    51    27    48    1
