
     RDKit          3D

 48 51  0  0  0  0  0  0  0  0999 V2000
   -6.4996   -2.9538   -0.2645 F   0  0  0  0  0  0  0  0  0  0  0  0
   -5.4748   -2.0404    0.0484 C   0  0  0  0  0  0  0  0  0  0  0  0
   -4.4947   -2.2749   -0.9077 F   0  0  0  0  0  0  0  0  0  0  0  0
   -5.0475   -2.3562    1.3012 F   0  0  0  0  0  0  0  0  0  0  0  0
   -5.9359   -0.6567   -0.1439 C   0  0  0  0  0  0  0  0  0  0  0  0
   -7.2597   -0.4991   -0.5912 C   0  0  0  0  0  0  0  0  0  0  0  0
   -7.7476    0.7610   -0.8239 C   0  0  0  0  0  0  0  0  0  0  0  0
   -6.9346    1.8812   -0.6179 C   0  0  0  0  0  0  0  0  0  0  0  0
   -5.6459    1.6787   -0.1791 C   0  0  0  0  0  0  0  0  0  0  0  0
   -5.1217    0.4033    0.0672 C   0  0  0  0  0  0  0  0  0  0  0  0
   -3.7716    0.2740    0.5578 C   0  0  0  0  0  0  0  0  0  0  0  0
   -3.4087   -0.1051    1.8302 C   0  0  0  0  0  0  0  0  0  0  0  0
   -2.0705   -0.2355    2.2154 C   0  0  0  0  0  0  0  0  0  0  0  0
   -1.0629    0.0184    1.3123 C   0  0  0  0  0  0  0  0  0  0  0  0
    0.2758   -0.0116    1.3580 N   0  0  0  0  0  0  0  0  0  0  0  0
    0.8062    0.3355    0.1602 C   0  0  0  0  0  0  0  0  0  0  0  0
    2.2235    0.4075   -0.1428 C   0  0  0  0  0  0  0  0  0  0  0  0
    3.1165    0.1296    0.7614 C   0  0  0  0  0  0  0  0  0  0  0  0
    4.5816    0.1760    0.5430 C   0  0  0  0  0  0  0  0  0  0  0  0
    5.1312   -1.2092    0.8588 C   0  0  0  0  0  0  0  0  0  0  0  0
    6.5608   -1.3307    0.3659 C   0  0  0  0  0  0  0  0  0  0  0  0
    7.1811    0.0398    0.2092 C   0  0  0  0  0  0  0  0  0  0  0  0
    6.4694    0.8827   -0.8195 C   0  0  0  0  0  0  0  0  0  0  0  0
    4.9662    0.5797   -0.8405 C   0  0  0  0  0  0  0  0  0  0  0  0
   -0.2463    0.5876   -0.6496 N   0  0  0  0  0  0  0  0  0  0  0  0
   -1.3963    0.4009    0.0306 C   0  0  0  0  0  0  0  0  0  0  0  0
   -2.7323    0.5244   -0.3327 C   0  0  0  0  0  0  0  0  0  0  0  0
   -7.8923   -1.3574   -0.7522 H   0  0  0  0  0  0  0  0  0  0  0  0
   -8.7513    0.9709   -1.1682 H   0  0  0  0  0  0  0  0  0  0  0  0
   -7.3123    2.8759   -0.7997 H   0  0  0  0  0  0  0  0  0  0  0  0
   -5.0186    2.5376   -0.0198 H   0  0  0  0  0  0  0  0  0  0  0  0
   -4.1855   -0.2893    2.5735 H   0  0  0  0  0  0  0  0  0  0  0  0
   -1.7908   -0.5333    3.2124 H   0  0  0  0  0  0  0  0  0  0  0  0
    2.5391    0.6950   -1.1298 H   0  0  0  0  0  0  0  0  0  0  0  0
    2.7941   -0.1593    1.7535 H   0  0  0  0  0  0  0  0  0  0  0  0
    5.0420    0.9037    1.2600 H   0  0  0  0  0  0  0  0  0  0  0  0
    4.4622   -1.9327    0.3482 H   0  0  0  0  0  0  0  0  0  0  0  0
    5.0901   -1.3184    1.9667 H   0  0  0  0  0  0  0  0  0  0  0  0
    6.5590   -1.9238   -0.5488 H   0  0  0  0  0  0  0  0  0  0  0  0
    7.1269   -1.8619    1.1399 H   0  0  0  0  0  0  0  0  0  0  0  0
    7.0699    0.5525    1.2011 H   0  0  0  0  0  0  0  0  0  0  0  0
    8.2451   -0.1107   -0.0674 H   0  0  0  0  0  0  0  0  0  0  0  0
    6.6228    1.9450   -0.5548 H   0  0  0  0  0  0  0  0  0  0  0  0
    6.8898    0.6726   -1.8033 H   0  0  0  0  0  0  0  0  0  0  0  0
    4.7717   -0.2718   -1.5240 H   0  0  0  0  0  0  0  0  0  0  0  0
    4.4234    1.4896   -1.1384 H   0  0  0  0  0  0  0  0  0  0  0  0
   -0.1529    0.8842   -1.6579 H   0  0  0  0  0  0  0  0  0  0  0  0
   -2.9944    0.8245   -1.3380 H   0  0  0  0  0  0  0  0  0  0  0  0
  1  2  1  0
  2  3  1  0
  2  4  1  0
  2  5  1  0
  5  6  2  0
  6  7  1  0
  7  8  2  0
  8  9  1  0
  9 10  2  0
 10 11  1  0
 11 12  2  0
 12 13  1  0
 13 14  2  0
 14 15  1  0
 15 16  2  0
 16 17  1  0
 17 18  2  3
 18 19  1  0
 19 20  1  0
 20 21  1  0
 21 22  1  0
 22 23  1  0
 23 24  1  0
 16 25  1  0
 25 26  1  0
 26 27  2  0
 10  5  1  0
 27 11  1  0
 26 14  1  0
 24 19  1  0
  6 28  1  0
  7 29  1  0
  8 30  1  0
  9 31  1  0
 12 32  1  0
 13 33  1  0
 17 34  1  0
 18 35  1  0
 19 36  1  0
 20 37  1  0
 20 38  1  0
 21 39  1  0
 21 40  1  0
 22 41  1  0
 22 42  1  0
 23 43  1  0
 23 44  1  0
 24 45  1  0
 24 46  1  0
 25 47  1  0
 27 48  1  0
M  END
$$$$
