
     RDKit          3D

 59 62  0  0  0  0  0  0  0  0999 V2000
   -1.4621   -0.5669    4.0030 C   0  0  0  0  0  0  0  0  0  0  0  0
   -1.7364   -0.4827    2.5346 C   0  0  0  0  0  0  0  0  0  0  0  0
   -0.6677   -0.5033    1.7181 N   0  0  0  0  0  0  0  0  0  0  0  0
   -0.7984   -0.4334    0.3831 C   0  0  0  0  0  0  0  0  0  0  0  0
    0.2994   -0.4500   -0.5077 N   0  0  0  0  0  0  0  0  0  0  0  0
    1.6025   -0.5371    0.0284 C   0  0  0  0  0  0  0  0  0  0  0  0
    2.2155   -0.6123    1.1079 N   0  0  0  0  0  0  0  0  0  0  0  0
    3.4750   -0.6818    1.3056 C   0  0  0  0  0  0  0  0  0  0  0  0
    4.2770   -0.6715    0.1313 C   0  0  0  0  0  0  0  0  0  0  0  0
    5.7097   -0.7364    0.0159 C   0  0  0  0  0  0  0  0  0  0  0  0
    6.3758   -0.8124    1.0618 O   0  0  0  0  0  0  0  0  0  0  0  0
    6.4069   -0.7191   -1.2116 N   0  0  0  0  0  0  0  0  0  0  0  0
    7.8209   -0.7837   -1.3031 C   0  0  0  0  0  0  0  0  0  0  0  0
    8.5493    0.3840   -1.3007 C   0  0  0  0  0  0  0  0  0  0  0  0
    7.8453    1.6641   -1.2046 C   0  0  0  0  0  0  0  0  0  0  0  0
    9.9286    0.3441   -1.3885 C   0  0  0  0  0  0  0  0  0  0  0  0
   10.6158   -0.8435   -1.4802 C   0  0  0  0  0  0  0  0  0  0  0  0
    9.8933   -2.0176   -1.4832 C   0  0  0  0  0  0  0  0  0  0  0  0
    8.5196   -1.9657   -1.3952 C   0  0  0  0  0  0  0  0  0  0  0  0
    7.6120   -3.4607   -1.4002 Cl  0  0  0  0  0  0  0  0  0  0  0  0
    3.0794   -0.5600   -1.1371 S   0  0  0  0  0  0  0  0  0  0  0  0
   -2.0837   -0.3396   -0.1073 C   0  0  0  0  0  0  0  0  0  0  0  0
   -3.1888   -0.3170    0.7098 C   0  0  0  0  0  0  0  0  0  0  0  0
   -4.5195   -0.2200    0.2425 N   0  0  0  0  0  0  0  0  0  0  0  0
   -4.8796   -0.1262   -1.1481 C   0  0  0  0  0  0  0  0  0  0  0  0
   -5.8054    1.0485   -1.4090 C   0  0  0  0  0  0  0  0  0  0  0  0
   -6.8720    1.1045   -0.4225 N   0  0  0  0  0  0  0  0  0  0  0  0
   -7.9511    0.2238   -0.7330 C   0  0  0  0  0  0  0  0  0  0  0  0
   -9.0371    0.2919    0.2920 C   0  0  0  0  0  0  0  0  0  0  0  0
   -9.5807    1.5738    0.4119 O   0  0  0  0  0  0  0  0  0  0  0  0
   -6.3881    1.0668    0.9168 C   0  0  0  0  0  0  0  0  0  0  0  0
   -5.6003   -0.2131    1.2071 C   0  0  0  0  0  0  0  0  0  0  0  0
   -2.9783   -0.3913    2.0464 N   0  0  0  0  0  0  0  0  0  0  0  0
   -0.6052   -1.2592    4.1315 H   0  0  0  0  0  0  0  0  0  0  0  0
   -2.3622   -0.9659    4.5380 H   0  0  0  0  0  0  0  0  0  0  0  0
   -1.1762    0.4411    4.3647 H   0  0  0  0  0  0  0  0  0  0  0  0
    0.1319   -0.3982   -1.5352 H   0  0  0  0  0  0  0  0  0  0  0  0
    3.9791   -0.7472    2.2774 H   0  0  0  0  0  0  0  0  0  0  0  0
    5.8114   -0.6539   -2.0892 H   0  0  0  0  0  0  0  0  0  0  0  0
    6.9516    1.7381   -1.8410 H   0  0  0  0  0  0  0  0  0  0  0  0
    8.5447    2.4824   -1.5432 H   0  0  0  0  0  0  0  0  0  0  0  0
    7.5844    1.9307   -0.1589 H   0  0  0  0  0  0  0  0  0  0  0  0
   10.4741    1.2902   -1.3838 H   0  0  0  0  0  0  0  0  0  0  0  0
   11.6995   -0.8180   -1.5470 H   0  0  0  0  0  0  0  0  0  0  0  0
   10.4322   -2.9587   -1.5552 H   0  0  0  0  0  0  0  0  0  0  0  0
   -2.1921   -0.2839   -1.1765 H   0  0  0  0  0  0  0  0  0  0  0  0
   -4.0495   -0.0489   -1.8427 H   0  0  0  0  0  0  0  0  0  0  0  0
   -5.4640   -1.0533   -1.4347 H   0  0  0  0  0  0  0  0  0  0  0  0
   -5.2940    2.0092   -1.4629 H   0  0  0  0  0  0  0  0  0  0  0  0
   -6.2915    0.8612   -2.3885 H   0  0  0  0  0  0  0  0  0  0  0  0
   -8.3946    0.4829   -1.7175 H   0  0  0  0  0  0  0  0  0  0  0  0
   -7.5590   -0.8214   -0.7219 H   0  0  0  0  0  0  0  0  0  0  0  0
   -9.8821   -0.3674   -0.0715 H   0  0  0  0  0  0  0  0  0  0  0  0
   -8.7200   -0.0419    1.2957 H   0  0  0  0  0  0  0  0  0  0  0  0
   -9.9707    1.8015   -0.4803 H   0  0  0  0  0  0  0  0  0  0  0  0
   -7.1956    1.2288    1.6210 H   0  0  0  0  0  0  0  0  0  0  0  0
   -5.6340    1.8868    1.0126 H   0  0  0  0  0  0  0  0  0  0  0  0
   -6.2204   -1.1078    0.9796 H   0  0  0  0  0  0  0  0  0  0  0  0
   -5.2744   -0.1628    2.2452 H   0  0  0  0  0  0  0  0  0  0  0  0
  1  2  1  0
  2  3  2  0
  3  4  1  0
  4  5  1  0
  5  6  1  0
  6  7  2  0
  7  8  1  0
  8  9  2  0
  9 10  1  0
 10 11  2  0
 10 12  1  0
 12 13  1  0
 13 14  2  0
 14 15  1  0
 14 16  1  0
 16 17  2  0
 17 18  1  0
 18 19  2  0
 19 20  1  0
  9 21  1  0
  4 22  2  0
 22 23  1  0
 23 24  1  0
 24 25  1  0
 25 26  1  0
 26 27  1  0
 27 28  1  0
 28 29  1  0
 29 30  1  0
 27 31  1  0
 31 32  1  0
 23 33  2  0
 33  2  1  0
 21  6  1  0
 32 24  1  0
 19 13  1  0
  1 34  1  0
  1 35  1  0
  1 36  1  0
  5 37  1  0
  8 38  1  0
 12 39  1  0
 15 40  1  0
 15 41  1  0
 15 42  1  0
 16 43  1  0
 17 44  1  0
 18 45  1  0
 22 46  1  0
 25 47  1  0
 25 48  1  0
 26 49  1  0
 26 50  1  0
 28 51  1  0
 28 52  1  0
 29 53  1  0
 29 54  1  0
 30 55  1  0
 31 56  1  0
 31 57  1  0
 32 58  1  0
 32 59  1  0
M  END
$$$$
