@<TRIPOS>MOLECULE
*****
 59 62 0 0 0
SMALL
GASTEIGER

@<TRIPOS>ATOM
      1 C          -1.4621   -0.5669    4.0030 C.3     1  UNL1       -0.0045
      2 C          -1.7364   -0.4827    2.5346 C.ar    1  UNL1        0.1301
      3 N          -0.6677   -0.5033    1.7181 N.ar    1  UNL1       -0.2174
      4 C          -0.7984   -0.4334    0.3831 C.ar    1  UNL1        0.1296
      5 N           0.2994   -0.4500   -0.5077 N.pl3   1  UNL1       -0.2785
      6 C           1.6025   -0.5371    0.0284 C.ar    1  UNL1        0.1641
      7 N           2.2155   -0.6123    1.1079 N.ar    1  UNL1       -0.2322
      8 C           3.4750   -0.6818    1.3056 C.ar    1  UNL1        0.0491
      9 C           4.2770   -0.6715    0.1313 C.ar    1  UNL1        0.0953
     10 C           5.7097   -0.7364    0.0159 C.2     1  UNL1        0.2565
     11 O           6.3758   -0.8124    1.0618 O.2     1  UNL1       -0.2692
     12 N           6.4069   -0.7191   -1.2116 N.am    1  UNL1       -0.2796
     13 C           7.8209   -0.7837   -1.3031 C.ar    1  UNL1        0.0551
     14 C           8.5493    0.3840   -1.3007 C.ar    1  UNL1       -0.0278
     15 C           7.8453    1.6641   -1.2046 C.3     1  UNL1       -0.0379
     16 C           9.9286    0.3441   -1.3885 C.ar    1  UNL1       -0.0570
     17 C          10.6158   -0.8435   -1.4802 C.ar    1  UNL1       -0.0600
     18 C           9.8933   -2.0176   -1.4832 C.ar    1  UNL1       -0.0416
     19 C           8.5196   -1.9657   -1.3952 C.ar    1  UNL1        0.0624
     20 CL          7.6120   -3.4607   -1.4002 Cl      1  UNL1       -0.0816
     21 S           3.0794   -0.5600   -1.1371 S.2     1  UNL1       -0.0475
     22 C          -2.0837   -0.3396   -0.1073 C.ar    1  UNL1        0.0185
     23 C          -3.1888   -0.3170    0.7098 C.ar    1  UNL1        0.1266
     24 N          -4.5195   -0.2200    0.2425 N.pl3   1  UNL1       -0.3126
     25 C          -4.8796   -0.1262   -1.1481 C.3     1  UNL1        0.0263
     26 C          -5.8054    1.0485   -1.4090 C.3     1  UNL1        0.0148
     27 N          -6.8720    1.1045   -0.4225 N.3     1  UNL1       -0.2972
     28 C          -7.9511    0.2238   -0.7330 C.3     1  UNL1        0.0222
     29 C          -9.0371    0.2919    0.2920 C.3     1  UNL1        0.0569
     30 O          -9.5807    1.5738    0.4119 O.3     1  UNL1       -0.3937
     31 C          -6.3881    1.0668    0.9168 C.3     1  UNL1        0.0148
     32 C          -5.6003   -0.2131    1.2071 C.3     1  UNL1        0.0263
     33 N          -2.9783   -0.3913    2.0464 N.ar    1  UNL1       -0.2175
     34 H          -0.6052   -1.2592    4.1315 H       1  UNL1        0.0308
     35 H          -2.3622   -0.9659    4.5380 H       1  UNL1        0.0308
     36 H          -1.1762    0.4411    4.3647 H       1  UNL1        0.0308
     37 H           0.1319   -0.3982   -1.5352 H       1  UNL1        0.1555
     38 H           3.9791   -0.7472    2.2774 H       1  UNL1        0.0843
     39 H           5.8114   -0.6539   -2.0892 H       1  UNL1        0.1552
     40 H           6.9516    1.7381   -1.8410 H       1  UNL1        0.0278
     41 H           8.5447    2.4824   -1.5432 H       1  UNL1        0.0278
     42 H           7.5844    1.9307   -0.1589 H       1  UNL1        0.0278
     43 H          10.4741    1.2902   -1.3838 H       1  UNL1        0.0621
     44 H          11.6995   -0.8180   -1.5470 H       1  UNL1        0.0618
     45 H          10.4322   -2.9587   -1.5552 H       1  UNL1        0.0633
     46 H          -2.1921   -0.2839   -1.1765 H       1  UNL1        0.0686
     47 H          -4.0495   -0.0489   -1.8427 H       1  UNL1        0.0477
     48 H          -5.4640   -1.0533   -1.4347 H       1  UNL1        0.0477
     49 H          -5.2940    2.0092   -1.4629 H       1  UNL1        0.0442
     50 H          -6.2915    0.8612   -2.3885 H       1  UNL1        0.0442
     51 H          -8.3946    0.4829   -1.7175 H       1  UNL1        0.0449
     52 H          -7.5590   -0.8214   -0.7219 H       1  UNL1        0.0449
     53 H          -9.8821   -0.3674   -0.0715 H       1  UNL1        0.0570
     54 H          -8.7200   -0.0419    1.2957 H       1  UNL1        0.0570
     55 H          -9.9707    1.8015   -0.4803 H       1  UNL1        0.2095
     56 H          -7.1956    1.2288    1.6210 H       1  UNL1        0.0442
     57 H          -5.6340    1.8868    1.0126 H       1  UNL1        0.0442
     58 H          -6.2204   -1.1078    0.9796 H       1  UNL1        0.0477
     59 H          -5.2744   -0.1628    2.2452 H       1  UNL1        0.0477
@<TRIPOS>BOND
     1     1     2    1
     2     2     3   ar
     3     3     4   ar
     4     4     5    1
     5     5     6    1
     6     6     7   ar
     7     7     8   ar
     8     8     9   ar
     9     9    10    1
    10    10    11    2
    11    10    12   am
    12    12    13    1
    13    13    14   ar
    14    14    15    1
    15    14    16   ar
    16    16    17   ar
    17    17    18   ar
    18    18    19   ar
    19    19    20    1
    20     9    21   ar
    21     4    22   ar
    22    22    23   ar
    23    23    24    1
    24    24    25    1
    25    25    26    1
    26    26    27    1
    27    27    28    1
    28    28    29    1
    29    29    30    1
    30    27    31    1
    31    31    32    1
    32    23    33   ar
    33    33     2   ar
    34    21     6   ar
    35    32    24    1
    36    19    13   ar
    37     1    34    1
    38     1    35    1
    39     1    36    1
    40     5    37    1
    41     8    38    1
    42    12    39    1
    43    15    40    1
    44    15    41    1
    45    15    42    1
    46    16    43    1
    47    17    44    1
    48    18    45    1
    49    22    46    1
    50    25    47    1
    51    25    48    1
    52    26    49    1
    53    26    50    1
    54    28    51    1
    55    28    52    1
    56    29    53    1
    57    29    54    1
    58    30    55    1
    59    31    56    1
    60    31    57    1
    61    32    58    1
    62    32    59    1
