@<TRIPOS>MOLECULE
*****
 28 29 0 0 0
SMALL
GASTEIGER

@<TRIPOS>ATOM
      1 O           3.4254    1.2082    0.2563 O.3     1  UNL1       -0.4806
      2 C           3.0079    0.2506    1.2008 C.2     1  UNL1        0.3047
      3 O           3.2394    0.7895    2.3016 O.2     1  UNL1       -0.2510
      4 C           2.4204   -1.1155    0.9775 C.3     1  UNL1        0.0451
      5 C           2.1368   -1.3547   -0.4842 C.3     1  UNL1       -0.0389
      6 C           1.1283   -0.3780   -1.0161 C.3     1  UNL1       -0.0252
      7 C          -0.1922   -0.4565   -0.3495 C.ar    1  UNL1       -0.0223
      8 C          -0.5398   -1.5842    0.3593 C.ar    1  UNL1        0.0059
      9 N          -1.7752   -1.4407    0.8693 N.ar    1  UNL1       -0.3604
     10 C          -2.2798   -0.2332    0.5216 C.ar    1  UNL1        0.0467
     11 C          -1.2905    0.3725   -0.2352 C.ar    1  UNL1        0.0028
     12 C          -1.4210    1.6322   -0.7864 C.ar    1  UNL1       -0.0523
     13 C          -2.6201    2.2988   -0.5496 C.ar    1  UNL1       -0.0611
     14 C          -3.6264    1.7310    0.1961 C.ar    1  UNL1       -0.0598
     15 C          -3.4645    0.4547    0.7406 C.ar    1  UNL1       -0.0378
     16 H           4.4327    1.4395    0.2382 H       1  UNL1        0.2951
     17 H           1.5354   -1.1430    1.6270 H       1  UNL1        0.0378
     18 H           3.1681   -1.8620    1.3175 H       1  UNL1        0.0378
     19 H           3.0854   -1.1709   -1.0331 H       1  UNL1        0.0274
     20 H           1.8724   -2.4002   -0.7019 H       1  UNL1        0.0274
     21 H           1.4750    0.6646   -0.8809 H       1  UNL1        0.0314
     22 H           0.9861   -0.5721   -2.1023 H       1  UNL1        0.0314
     23 H          -0.0672   -2.5373    0.5906 H       1  UNL1        0.0810
     24 H          -2.3795   -2.0856    1.4640 H       1  UNL1        0.1653
     25 H          -0.6379    2.0924   -1.3783 H       1  UNL1        0.0624
     26 H          -2.8190    3.2890   -0.9382 H       1  UNL1        0.0618
     27 H          -4.5829    2.1789    0.4265 H       1  UNL1        0.0618
     28 H          -4.2173   -0.0681    1.3464 H       1  UNL1        0.0638
@<TRIPOS>BOND
     1     1     2    1
     2     2     3    2
     3     2     4    1
     4     4     5    1
     5     5     6    1
     6     6     7    1
     7     7     8   ar
     8     8     9   ar
     9     9    10   ar
    10    10    11   ar
    11    11    12   ar
    12    12    13   ar
    13    13    14   ar
    14    14    15   ar
    15    11     7   ar
    16    15    10   ar
    17     1    16    1
    18     4    17    1
    19     4    18    1
    20     5    19    1
    21     5    20    1
    22     6    21    1
    23     6    22    1
    24     8    23    1
    25     9    24    1
    26    12    25    1
    27    13    26    1
    28    14    27    1
    29    15    28    1
