
     RDKit          3D

 65 67  0  0  0  0  0  0  0  0999 V2000
    3.8236    2.3903    3.4924 C   0  0  0  0  0  0  0  0  0  0  0  0
    4.1503    0.9141    3.3117 C   0  0  0  0  0  0  0  0  0  0  0  0
    4.3614    0.6097    1.8235 C   0  0  0  0  0  0  0  0  0  0  0  0
    4.6803   -0.8391    1.6892 C   0  0  0  0  0  0  0  0  0  0  0  0
    4.9422   -1.3218    0.3030 C   0  0  0  0  0  0  0  0  0  0  0  0
    3.7229   -1.0767   -0.5234 N   0  0  0  0  0  0  0  0  0  0  0  0
    3.6965    0.1793   -1.2170 C   0  0  0  0  0  0  0  0  0  0  0  0
    2.7356   -2.0560   -0.5696 C   0  0  0  0  0  0  0  0  0  0  0  0
    2.9791   -3.1012    0.1681 O   0  0  0  0  0  0  0  0  0  0  0  0
    1.5576   -2.0842   -1.2696 N   0  0  0  0  0  0  0  0  0  0  0  0
    0.6573   -3.2899   -1.0988 C   0  0  0  0  0  0  0  0  0  0  0  0
   -0.4519   -2.7782   -0.2428 C   0  0  0  0  0  0  0  0  0  0  0  0
   -1.0114   -1.5099   -0.7470 N   0  0  0  0  0  0  0  0  0  0  0  0
   -2.0716   -0.9633   -0.0045 C   0  0  0  0  0  0  0  0  0  0  0  0
   -2.3872   -1.7244    1.0331 O   0  0  0  0  0  0  0  0  0  0  0  0
   -2.8247    0.1833   -0.1505 N   0  0  0  0  0  0  0  0  0  0  0  0
   -3.8910    0.4111    0.8094 C   0  0  0  0  0  0  0  0  0  0  0  0
   -5.1470   -0.0789    0.5410 C   0  0  0  0  0  0  0  0  0  0  0  0
   -6.2043    0.1177    1.4400 C   0  0  0  0  0  0  0  0  0  0  0  0
   -5.9620    0.8212    2.6165 C   0  0  0  0  0  0  0  0  0  0  0  0
   -4.7077    1.3172    2.8969 C   0  0  0  0  0  0  0  0  0  0  0  0
   -3.6991    1.0980    1.9808 C   0  0  0  0  0  0  0  0  0  0  0  0
   -2.6815    1.1938   -1.1086 C   0  0  0  0  0  0  0  0  0  0  0  0
   -1.9103    2.3221   -0.7863 C   0  0  0  0  0  0  0  0  0  0  0  0
   -1.7388    3.3697   -1.6651 C   0  0  0  0  0  0  0  0  0  0  0  0
   -2.3486    3.2953   -2.8950 C   0  0  0  0  0  0  0  0  0  0  0  0
   -3.1137    2.2045   -3.2487 C   0  0  0  0  0  0  0  0  0  0  0  0
   -3.2616    1.1827   -2.3499 C   0  0  0  0  0  0  0  0  0  0  0  0
   -0.5094   -0.8998   -1.9271 C   0  0  2  0  0  0  0  0  0  0  0  0
   -1.2495   -1.3791   -3.1528 C   0  0  0  0  0  0  0  0  0  0  0  0
   -0.9764   -0.9783   -4.2905 O   0  0  0  0  0  0  0  0  0  0  0  0
   -2.2572   -2.2935   -2.9624 O   0  0  0  0  0  0  0  0  0  0  0  0
    0.9665   -1.1593   -2.2017 C   0  0  0  0  0  0  0  0  0  0  0  0
    3.8729    2.5936    4.5899 H   0  0  0  0  0  0  0  0  0  0  0  0
    4.5929    3.0010    2.9741 H   0  0  0  0  0  0  0  0  0  0  0  0
    2.8071    2.5842    3.1346 H   0  0  0  0  0  0  0  0  0  0  0  0
    5.0739    0.6855    3.8463 H   0  0  0  0  0  0  0  0  0  0  0  0
    3.2987    0.3492    3.7091 H   0  0  0  0  0  0  0  0  0  0  0  0
    5.1093    1.2865    1.3880 H   0  0  0  0  0  0  0  0  0  0  0  0
    3.3541    0.7932    1.3478 H   0  0  0  0  0  0  0  0  0  0  0  0
    5.5814   -1.0318    2.3288 H   0  0  0  0  0  0  0  0  0  0  0  0
    3.8633   -1.4319    2.1746 H   0  0  0  0  0  0  0  0  0  0  0  0
    5.0957   -2.4206    0.2765 H   0  0  0  0  0  0  0  0  0  0  0  0
    5.7805   -0.7900   -0.1617 H   0  0  0  0  0  0  0  0  0  0  0  0
    2.8447    0.7974   -0.9241 H   0  0  0  0  0  0  0  0  0  0  0  0
    3.7751    0.0817   -2.3210 H   0  0  0  0  0  0  0  0  0  0  0  0
    4.6070    0.7946   -0.9184 H   0  0  0  0  0  0  0  0  0  0  0  0
    1.2050   -4.0754   -0.5731 H   0  0  0  0  0  0  0  0  0  0  0  0
    0.3274   -3.5452   -2.1021 H   0  0  0  0  0  0  0  0  0  0  0  0
   -0.0257   -2.5220    0.7542 H   0  0  0  0  0  0  0  0  0  0  0  0
   -1.2345   -3.5253   -0.0891 H   0  0  0  0  0  0  0  0  0  0  0  0
   -5.3532   -0.6215   -0.3572 H   0  0  0  0  0  0  0  0  0  0  0  0
   -7.2013   -0.2546    1.2579 H   0  0  0  0  0  0  0  0  0  0  0  0
   -6.7769    0.9881    3.3379 H   0  0  0  0  0  0  0  0  0  0  0  0
   -4.5781    1.8548    3.8237 H   0  0  0  0  0  0  0  0  0  0  0  0
   -2.7221    1.4854    2.2005 H   0  0  0  0  0  0  0  0  0  0  0  0
   -1.4399    2.3556    0.1915 H   0  0  0  0  0  0  0  0  0  0  0  0
   -1.1264    4.2306   -1.3668 H   0  0  0  0  0  0  0  0  0  0  0  0
   -2.2150    4.1167   -3.5858 H   0  0  0  0  0  0  0  0  0  0  0  0
   -3.5941    2.1695   -4.2465 H   0  0  0  0  0  0  0  0  0  0  0  0
   -3.8597    0.3318   -2.6293 H   0  0  0  0  0  0  0  0  0  0  0  0
   -0.6158    0.1895   -1.9354 H   0  0  0  0  0  0  0  0  0  0  0  0
   -2.8643   -2.6159   -3.7148 H   0  0  0  0  0  0  0  0  0  0  0  0
    1.4978   -0.2260   -2.3835 H   0  0  0  0  0  0  0  0  0  0  0  0
    1.0518   -1.7050   -3.2064 H   0  0  0  0  0  0  0  0  0  0  0  0
  1  2  1  0
  2  3  1  0
  3  4  1  0
  4  5  1  0
  5  6  1  0
  6  7  1  0
  6  8  1  0
  8  9  2  0
  8 10  1  0
 10 11  1  0
 11 12  1  0
 12 13  1  0
 13 14  1  0
 14 15  2  0
 14 16  1  0
 16 17  1  0
 17 18  2  0
 18 19  1  0
 19 20  2  0
 20 21  1  0
 21 22  2  0
 16 23  1  0
 23 24  2  0
 24 25  1  0
 25 26  2  0
 26 27  1  0
 27 28  2  0
 13 29  1  0
 29 30  1  0
 30 31  2  0
 30 32  1  0
 29 33  1  0
 33 10  1  0
 22 17  1  0
 28 23  1  0
  1 34  1  0
  1 35  1  0
  1 36  1  0
  2 37  1  0
  2 38  1  0
  3 39  1  0
  3 40  1  0
  4 41  1  0
  4 42  1  0
  5 43  1  0
  5 44  1  0
  7 45  1  0
  7 46  1  0
  7 47  1  0
 11 48  1  0
 11 49  1  0
 12 50  1  0
 12 51  1  0
 18 52  1  0
 19 53  1  0
 20 54  1  0
 21 55  1  0
 22 56  1  0
 24 57  1  0
 25 58  1  0
 26 59  1  0
 27 60  1  0
 28 61  1  0
 29 62  1  1
 32 63  1  0
 33 64  1  0
 33 65  1  0
M  END
$$$$
