@<TRIPOS>MOLECULE
*****
 65 67 0 0 0
SMALL
GASTEIGER

@<TRIPOS>ATOM
      1 C           3.8236    2.3903    3.4924 C.3     1  UNL1       -0.0653
      2 C           4.1503    0.9141    3.3117 C.3     1  UNL1       -0.0559
      3 C           4.3614    0.6097    1.8235 C.3     1  UNL1       -0.0519
      4 C           4.6803   -0.8391    1.6892 C.3     1  UNL1       -0.0371
      5 C           4.9422   -1.3218    0.3030 C.3     1  UNL1        0.0158
      6 N           3.7229   -1.0767   -0.5234 N.am    1  UNL1       -0.2885
      7 C           3.6965    0.1793   -1.2170 C.3     1  UNL1        0.0046
      8 C           2.7356   -2.0560   -0.5696 C.2     1  UNL1        0.3046
      9 O           2.9791   -3.1012    0.1681 O.2     1  UNL1       -0.2524
     10 N           1.5576   -2.0842   -1.2696 N.am    1  UNL1       -0.2817
     11 C           0.6573   -3.2899   -1.0988 C.3     1  UNL1        0.0321
     12 C          -0.4519   -2.7782   -0.2428 C.3     1  UNL1        0.0329
     13 N          -1.0114   -1.5099   -0.7470 N.am    1  UNL1       -0.2684
     14 C          -2.0716   -0.9633   -0.0045 C.2     1  UNL1        0.3143
     15 O          -2.3872   -1.7244    1.0331 O.2     1  UNL1       -0.2517
     16 N          -2.8247    0.1833   -0.1505 N.am    1  UNL1       -0.2243
     17 C          -3.8910    0.4111    0.8094 C.ar    1  UNL1        0.0428
     18 C          -5.1470   -0.0789    0.5410 C.ar    1  UNL1       -0.0399
     19 C          -6.2043    0.1177    1.4400 C.ar    1  UNL1       -0.0600
     20 C          -5.9620    0.8212    2.6165 C.ar    1  UNL1       -0.0616
     21 C          -4.7077    1.3172    2.8969 C.ar    1  UNL1       -0.0600
     22 C          -3.6991    1.0980    1.9808 C.ar    1  UNL1       -0.0399
     23 C          -2.6815    1.1938   -1.1086 C.ar    1  UNL1        0.0428
     24 C          -1.9103    2.3221   -0.7863 C.ar    1  UNL1       -0.0399
     25 C          -1.7388    3.3697   -1.6651 C.ar    1  UNL1       -0.0600
     26 C          -2.3486    3.2953   -2.8950 C.ar    1  UNL1       -0.0616
     27 C          -3.1137    2.2045   -3.2487 C.ar    1  UNL1       -0.0600
     28 C          -3.2616    1.1827   -2.3499 C.ar    1  UNL1       -0.0399
     29 C          -0.5094   -0.8998   -1.9271 C.3     1  UNL1        0.1399
     30 C          -1.2495   -1.3791   -3.1528 C.2     1  UNL1        0.3271
     31 O          -0.9764   -0.9783   -4.2905 O.2     1  UNL1       -0.2488
     32 O          -2.2572   -2.2935   -2.9624 O.3     1  UNL1       -0.4793
     33 C           0.9665   -1.1593   -2.2017 C.3     1  UNL1        0.0452
     34 H           3.8729    2.5936    4.5899 H       1  UNL1        0.0230
     35 H           4.5929    3.0010    2.9741 H       1  UNL1        0.0230
     36 H           2.8071    2.5842    3.1346 H       1  UNL1        0.0230
     37 H           5.0739    0.6855    3.8463 H       1  UNL1        0.0263
     38 H           3.2987    0.3492    3.7091 H       1  UNL1        0.0263
     39 H           5.1093    1.2865    1.3880 H       1  UNL1        0.0266
     40 H           3.3541    0.7932    1.3478 H       1  UNL1        0.0266
     41 H           5.5814   -1.0318    2.3288 H       1  UNL1        0.0280
     42 H           3.8633   -1.4319    2.1746 H       1  UNL1        0.0280
     43 H           5.0957   -2.4206    0.2765 H       1  UNL1        0.0465
     44 H           5.7805   -0.7900   -0.1617 H       1  UNL1        0.0465
     45 H           2.8447    0.7974   -0.9241 H       1  UNL1        0.0429
     46 H           3.7751    0.0817   -2.3210 H       1  UNL1        0.0429
     47 H           4.6070    0.7946   -0.9184 H       1  UNL1        0.0429
     48 H           1.2050   -4.0754   -0.5731 H       1  UNL1        0.0480
     49 H           0.3274   -3.5452   -2.1021 H       1  UNL1        0.0480
     50 H          -0.0257   -2.5220    0.7542 H       1  UNL1        0.0481
     51 H          -1.2345   -3.5253   -0.0891 H       1  UNL1        0.0481
     52 H          -5.3532   -0.6215   -0.3572 H       1  UNL1        0.0636
     53 H          -7.2013   -0.2546    1.2579 H       1  UNL1        0.0618
     54 H          -6.7769    0.9881    3.3379 H       1  UNL1        0.0618
     55 H          -4.5781    1.8548    3.8237 H       1  UNL1        0.0618
     56 H          -2.7221    1.4854    2.2005 H       1  UNL1        0.0636
     57 H          -1.4399    2.3556    0.1915 H       1  UNL1        0.0636
     58 H          -1.1264    4.2306   -1.3668 H       1  UNL1        0.0618
     59 H          -2.2150    4.1167   -3.5858 H       1  UNL1        0.0618
     60 H          -3.5941    2.1695   -4.2465 H       1  UNL1        0.0618
     61 H          -3.8597    0.3318   -2.6293 H       1  UNL1        0.0636
     62 H          -0.6158    0.1895   -1.9354 H       1  UNL1        0.0633
     63 H          -2.8643   -2.6159   -3.7148 H       1  UNL1        0.2951
     64 H           1.4978   -0.2260   -2.3835 H       1  UNL1        0.0489
     65 H           1.0518   -1.7050   -3.2064 H       1  UNL1        0.0489
@<TRIPOS>BOND
     1     1     2    1
     2     2     3    1
     3     3     4    1
     4     4     5    1
     5     5     6    1
     6     6     7    1
     7     6     8   am
     8     8     9    2
     9     8    10   am
    10    10    11    1
    11    11    12    1
    12    12    13    1
    13    13    14   am
    14    14    15    2
    15    14    16   am
    16    16    17    1
    17    17    18   ar
    18    18    19   ar
    19    19    20   ar
    20    20    21   ar
    21    21    22   ar
    22    16    23    1
    23    23    24   ar
    24    24    25   ar
    25    25    26   ar
    26    26    27   ar
    27    27    28   ar
    28    13    29    1
    29    29    30    1
    30    30    31    2
    31    30    32    1
    32    29    33    1
    33    33    10    1
    34    22    17   ar
    35    28    23   ar
    36     1    34    1
    37     1    35    1
    38     1    36    1
    39     2    37    1
    40     2    38    1
    41     3    39    1
    42     3    40    1
    43     4    41    1
    44     4    42    1
    45     5    43    1
    46     5    44    1
    47     7    45    1
    48     7    46    1
    49     7    47    1
    50    11    48    1
    51    11    49    1
    52    12    50    1
    53    12    51    1
    54    18    52    1
    55    19    53    1
    56    20    54    1
    57    21    55    1
    58    22    56    1
    59    24    57    1
    60    25    58    1
    61    26    59    1
    62    27    60    1
    63    28    61    1
    64    29    62    1
    65    32    63    1
    66    33    64    1
    67    33    65    1
