@<TRIPOS>MOLECULE
*****
 57 61 0 0 0
SMALL
GASTEIGER

@<TRIPOS>ATOM
      1 C           6.7561   -0.6705   -1.0000 C.3     1  UNL1       -0.0438
      2 C           7.1644   -0.7043    0.4558 C.3     1  UNL1       -0.0624
      3 C           5.7498   -1.7680   -1.2561 C.3     1  UNL1       -0.0491
      4 C           4.4918   -1.1631   -1.8363 C.3     1  UNL1       -0.0373
      5 C           3.8795   -0.1894   -0.8373 C.3     1  UNL1        0.0079
      6 C           4.9051    0.8362   -0.4544 C.3     1  UNL1       -0.0373
      7 C           6.1669    0.6802   -1.2883 C.3     1  UNL1       -0.0491
      8 N           3.4856   -0.9612    0.3069 N.3     1  UNL1       -0.3093
      9 C           2.8678   -0.2147    1.3587 C.3     1  UNL1        0.0215
     10 C           1.6160    0.4659    0.9282 C.ar    1  UNL1       -0.0333
     11 C           0.4367   -0.2678    1.0712 C.ar    1  UNL1       -0.0532
     12 C          -0.8158    0.2036    0.7254 C.ar    1  UNL1       -0.0335
     13 C          -0.9110    1.4777    0.2063 C.ar    1  UNL1        0.0036
     14 C           0.2419    2.2206    0.0563 C.ar    1  UNL1       -0.0520
     15 C           1.4813    1.7326    0.4071 C.ar    1  UNL1       -0.0567
     16 C          -2.2969    1.8116   -0.1017 C.ar    1  UNL1        0.0701
     17 C          -3.0451    0.7017    0.2455 C.ar    1  UNL1        0.0099
     18 C          -2.1806   -0.3700    0.7813 C.3     1  UNL1        0.0023
     19 C          -4.3412    1.0610   -0.0612 C.ar    1  UNL1        0.0966
     20 N          -4.3217    2.3263   -0.5623 N.ar    1  UNL1       -0.1730
     21 N          -3.0792    2.7932   -0.5912 N.ar    1  UNL1       -0.2761
     22 C          -5.5633    0.2790    0.0957 C.ar    1  UNL1        0.0024
     23 C          -6.6306    0.9597    0.6472 C.ar    1  UNL1       -0.0517
     24 C          -7.8528    0.3387    0.8529 C.ar    1  UNL1       -0.0472
     25 C          -7.9506   -0.9836    0.4825 C.ar    1  UNL1        0.0589
     26 C          -6.9146   -1.7116   -0.0734 C.ar    1  UNL1       -0.0472
     27 C          -5.6966   -1.0607   -0.2687 C.ar    1  UNL1       -0.0517
     28 C          -9.1869   -1.7478    0.6492 C.2     1  UNL1        0.3368
     29 O         -10.3859   -1.2847    1.1773 O.3     1  UNL1       -0.4771
     30 O          -9.3899   -2.9660    0.3442 O.2     1  UNL1       -0.2451
     31 H           7.6511   -0.7775   -1.6782 H       1  UNL1        0.0298
     32 H           6.4017   -1.2593    1.0283 H       1  UNL1        0.0232
     33 H           8.1673   -1.1903    0.5005 H       1  UNL1        0.0232
     34 H           7.1967    0.3210    0.8884 H       1  UNL1        0.0232
     35 H           6.1574   -2.5381   -1.9098 H       1  UNL1        0.0268
     36 H           5.4371   -2.2643   -0.2988 H       1  UNL1        0.0268
     37 H           4.6599   -0.6209   -2.7827 H       1  UNL1        0.0280
     38 H           3.7591   -1.9961   -1.9689 H       1  UNL1        0.0280
     39 H           3.0108    0.2640   -1.3724 H       1  UNL1        0.0460
     40 H           5.1807    0.6969    0.6106 H       1  UNL1        0.0280
     41 H           4.5767    1.8897   -0.6222 H       1  UNL1        0.0280
     42 H           5.9728    0.8770   -2.3565 H       1  UNL1        0.0268
     43 H           6.8748    1.4610   -0.8813 H       1  UNL1        0.0268
     44 H           2.9095   -1.7840    0.0780 H       1  UNL1        0.1225
     45 H           3.5531    0.5322    1.8250 H       1  UNL1        0.0474
     46 H           2.6362   -0.9389    2.1724 H       1  UNL1        0.0474
     47 H           0.4467   -1.2840    1.4769 H       1  UNL1        0.0624
     48 H           0.2740    3.2399   -0.3454 H       1  UNL1        0.0624
     49 H           2.4036    2.2809    0.3058 H       1  UNL1        0.0621
     50 H          -2.4850   -0.6574    1.8075 H       1  UNL1        0.0363
     51 H          -2.2789   -1.2855    0.1598 H       1  UNL1        0.0363
     52 H          -2.7932    3.7379   -0.9311 H       1  UNL1        0.1889
     53 H          -6.5858    1.9981    0.9484 H       1  UNL1        0.0624
     54 H          -8.7306    0.8057    1.2783 H       1  UNL1        0.0626
     55 H          -7.0010   -2.7514   -0.3616 H       1  UNL1        0.0626
     56 H          -4.8232   -1.5399   -0.6963 H       1  UNL1        0.0624
     57 H         -11.2518   -1.3492    0.6642 H       1  UNL1        0.2954
@<TRIPOS>BOND
     1     1     2    1
     2     1     3    1
     3     3     4    1
     4     4     5    1
     5     5     6    1
     6     6     7    1
     7     5     8    1
     8     8     9    1
     9     9    10    1
    10    10    11   ar
    11    11    12   ar
    12    12    13   ar
    13    13    14   ar
    14    14    15   ar
    15    13    16    1
    16    16    17   ar
    17    17    18    1
    18    17    19   ar
    19    19    20   ar
    20    20    21   ar
    21    19    22    1
    22    22    23   ar
    23    23    24   ar
    24    24    25   ar
    25    25    26   ar
    26    26    27   ar
    27    25    28    1
    28    28    29    1
    29    28    30    2
    30     7     1    1
    31    15    10   ar
    32    21    16   ar
    33    27    22   ar
    34    18    12    1
    35     1    31    1
    36     2    32    1
    37     2    33    1
    38     2    34    1
    39     3    35    1
    40     3    36    1
    41     4    37    1
    42     4    38    1
    43     5    39    1
    44     6    40    1
    45     6    41    1
    46     7    42    1
    47     7    43    1
    48     8    44    1
    49     9    45    1
    50     9    46    1
    51    11    47    1
    52    14    48    1
    53    15    49    1
    54    18    50    1
    55    18    51    1
    56    21    52    1
    57    23    53    1
    58    24    54    1
    59    26    55    1
    60    27    56    1
    61    29    57    1
