
     RDKit          3D

 54 56  0  0  0  0  0  0  0  0999 V2000
    5.0488    0.8959    2.8590 C   0  0  0  0  0  0  0  0  0  0  0  0
    4.8742    0.9010    1.3601 C   0  0  0  0  0  0  0  0  0  0  0  0
    6.1915    0.6721    0.6919 C   0  0  0  0  0  0  0  0  0  0  0  0
    4.2939    2.2311    0.9318 C   0  0  0  0  0  0  0  0  0  0  0  0
    3.9561   -0.2196    1.0084 C   0  0  0  0  0  0  0  0  0  0  0  0
    2.6238   -0.2136    0.8941 N   0  0  0  0  0  0  0  0  0  0  0  0
    2.2463   -1.4652    0.5578 C   0  0  0  0  0  0  0  0  0  0  0  0
    0.9110   -2.0153    0.3088 C   0  0  2  0  0  0  0  0  0  0  0  0
    1.0762   -3.2122   -0.6414 C   0  0  0  0  0  0  0  0  0  0  0  0
    1.4632   -2.4642   -1.9257 C   0  0  0  0  0  0  0  0  0  0  0  0
    0.6250   -1.1963   -1.8390 C   0  0  0  0  0  0  0  0  0  0  0  0
    0.0825   -1.1724   -0.5053 N   0  0  0  0  0  0  0  0  0  0  0  0
   -1.0557   -0.4543   -0.0722 C   0  0  0  0  0  0  0  0  0  0  0  0
   -1.3767   -0.5564    1.1239 O   0  0  0  0  0  0  0  0  0  0  0  0
   -1.8311    0.3920   -1.0362 C   0  0  0  0  0  0  0  0  0  0  0  0
   -2.9070   -0.4199   -1.6777 C   0  0  2  0  0  0  0  0  0  0  0  0
   -3.6095    0.4096   -2.6916 N   0  0  0  0  0  0  0  0  0  0  0  0
   -3.9382   -0.8164   -0.6330 C   0  0  0  0  0  0  0  0  0  0  0  0
   -4.6469    0.3183   -0.0144 C   0  0  0  0  0  0  0  0  0  0  0  0
   -4.3961    0.7828    1.2497 C   0  0  0  0  0  0  0  0  0  0  0  0
   -5.0912    1.8635    1.8190 C   0  0  0  0  0  0  0  0  0  0  0  0
   -4.8234    2.3016    3.0640 F   0  0  0  0  0  0  0  0  0  0  0  0
   -6.0714    2.5058    1.1072 C   0  0  0  0  0  0  0  0  0  0  0  0
   -6.7488    3.5446    1.6363 F   0  0  0  0  0  0  0  0  0  0  0  0
   -6.3286    2.0429   -0.1627 C   0  0  0  0  0  0  0  0  0  0  0  0
   -5.6540    0.9860   -0.7287 C   0  0  0  0  0  0  0  0  0  0  0  0
   -6.0269    0.6234   -1.9767 F   0  0  0  0  0  0  0  0  0  0  0  0
    3.3817   -2.1743    0.4844 N   0  0  0  0  0  0  0  0  0  0  0  0
    4.3788   -1.4281    0.7519 O   0  0  0  0  0  0  0  0  0  0  0  0
    4.1206    0.7427    3.4116 H   0  0  0  0  0  0  0  0  0  0  0  0
    5.7076    0.0073    3.0854 H   0  0  0  0  0  0  0  0  0  0  0  0
    5.6241    1.7740    3.1859 H   0  0  0  0  0  0  0  0  0  0  0  0
    6.0927    0.5571   -0.4058 H   0  0  0  0  0  0  0  0  0  0  0  0
    6.9151    1.4709    0.9346 H   0  0  0  0  0  0  0  0  0  0  0  0
    6.6299   -0.2695    1.1142 H   0  0  0  0  0  0  0  0  0  0  0  0
    3.6137    2.6514    1.6927 H   0  0  0  0  0  0  0  0  0  0  0  0
    3.7600    2.1334   -0.0268 H   0  0  0  0  0  0  0  0  0  0  0  0
    5.1505    2.9258    0.8023 H   0  0  0  0  0  0  0  0  0  0  0  0
    0.4211   -2.3381    1.2492 H   0  0  0  0  0  0  0  0  0  0  0  0
    0.1089   -3.7407   -0.7663 H   0  0  0  0  0  0  0  0  0  0  0  0
    1.8668   -3.8860   -0.3101 H   0  0  0  0  0  0  0  0  0  0  0  0
    1.2583   -3.0490   -2.8217 H   0  0  0  0  0  0  0  0  0  0  0  0
    2.5144   -2.1610   -1.7989 H   0  0  0  0  0  0  0  0  0  0  0  0
   -0.1137   -1.1814   -2.6381 H   0  0  0  0  0  0  0  0  0  0  0  0
    1.2625   -0.2878   -1.9766 H   0  0  0  0  0  0  0  0  0  0  0  0
   -2.2411    1.2239   -0.4039 H   0  0  0  0  0  0  0  0  0  0  0  0
   -1.1016    0.7706   -1.7704 H   0  0  0  0  0  0  0  0  0  0  0  0
   -2.4741   -1.2611   -2.2180 H   0  0  0  0  0  0  0  0  0  0  0  0
   -3.6295   -0.0675   -3.6104 H   0  0  0  0  0  0  0  0  0  0  0  0
   -3.1369    1.3526   -2.7332 H   0  0  0  0  0  0  0  0  0  0  0  0
   -3.5179   -1.5011    0.1085 H   0  0  0  0  0  0  0  0  0  0  0  0
   -4.7048   -1.4150   -1.1956 H   0  0  0  0  0  0  0  0  0  0  0  0
   -3.6705    0.3373    1.8765 H   0  0  0  0  0  0  0  0  0  0  0  0
   -7.1036    2.5483   -0.7291 H   0  0  0  0  0  0  0  0  0  0  0  0
  1  2  1  0
  2  3  1  0
  2  4  1  0
  2  5  1  0
  5  6  2  0
  6  7  1  0
  7  8  1  0
  8  9  1  0
  9 10  1  0
 10 11  1  0
 11 12  1  0
 12 13  1  0
 13 14  2  0
 13 15  1  0
 15 16  1  0
 16 17  1  0
 16 18  1  0
 18 19  1  0
 19 20  2  0
 20 21  1  0
 21 22  1  0
 21 23  2  0
 23 24  1  0
 23 25  1  0
 25 26  2  0
 26 27  1  0
  7 28  2  0
 28 29  1  0
 29  5  1  0
 12  8  1  0
 26 19  1  0
  1 30  1  0
  1 31  1  0
  1 32  1  0
  3 33  1  0
  3 34  1  0
  3 35  1  0
  4 36  1  0
  4 37  1  0
  4 38  1  0
  8 39  1  1
  9 40  1  0
  9 41  1  0
 10 42  1  0
 10 43  1  0
 11 44  1  0
 11 45  1  0
 15 46  1  0
 15 47  1  0
 16 48  1  6
 17 49  1  0
 17 50  1  0
 18 51  1  0
 18 52  1  0
 20 53  1  0
 25 54  1  0
M  END
$$$$
