@<TRIPOS>MOLECULE
*****
 54 56 0 0 0
SMALL
GASTEIGER

@<TRIPOS>ATOM
      1 C           5.0488    0.8959    2.8590 C.3     1  UNL1       -0.0515
      2 C           4.8742    0.9010    1.3601 C.3     1  UNL1        0.0411
      3 C           6.1915    0.6721    0.6919 C.3     1  UNL1       -0.0515
      4 C           4.2939    2.2311    0.9318 C.3     1  UNL1       -0.0515
      5 C           3.9561   -0.2196    1.0084 C.ar    1  UNL1        0.2328
      6 N           2.6238   -0.2136    0.8941 N.ar    1  UNL1       -0.1937
      7 C           2.2463   -1.4652    0.5578 C.ar    1  UNL1        0.1920
      8 C           0.9110   -2.0153    0.3088 C.3     1  UNL1        0.0890
      9 C           1.0762   -3.2122   -0.6414 C.3     1  UNL1       -0.0256
     10 C           1.4632   -2.4642   -1.9257 C.3     1  UNL1       -0.0350
     11 C           0.6250   -1.1963   -1.8390 C.3     1  UNL1        0.0155
     12 N           0.0825   -1.1724   -0.5053 N.am    1  UNL1       -0.2912
     13 C          -1.0557   -0.4543   -0.0722 C.2     1  UNL1        0.2176
     14 O          -1.3767   -0.5564    1.1239 O.2     1  UNL1       -0.2755
     15 C          -1.8311    0.3920   -1.0362 C.3     1  UNL1        0.0396
     16 C          -2.9070   -0.4199   -1.6777 C.3     1  UNL1        0.0172
     17 N          -3.6095    0.4096   -2.6916 N.3     1  UNL1       -0.3265
     18 C          -3.9382   -0.8164   -0.6330 C.3     1  UNL1       -0.0092
     19 C          -4.6469    0.3183   -0.0144 C.ar    1  UNL1       -0.0078
     20 C          -4.3961    0.7828    1.2497 C.ar    1  UNL1       -0.0176
     21 C          -5.0912    1.8635    1.8190 C.ar    1  UNL1        0.1588
     22 F          -4.8234    2.3016    3.0640 F       1  UNL1       -0.2025
     23 C          -6.0714    2.5058    1.1072 C.ar    1  UNL1        0.1611
     24 F          -6.7488    3.5446    1.6363 F       1  UNL1       -0.2024
     25 C          -6.3286    2.0429   -0.1627 C.ar    1  UNL1        0.0119
     26 C          -5.6540    0.9860   -0.7287 C.ar    1  UNL1        0.1295
     27 F          -6.0269    0.6234   -1.9767 F       1  UNL1       -0.2051
     28 N           3.3817   -2.1743    0.4844 N.ar    1  UNL1       -0.0593
     29 O           4.3788   -1.4281    0.7519 O.2     1  UNL1       -0.3374
     30 H           4.1206    0.7427    3.4116 H       1  UNL1        0.0240
     31 H           5.7076    0.0073    3.0854 H       1  UNL1        0.0240
     32 H           5.6241    1.7740    3.1859 H       1  UNL1        0.0240
     33 H           6.0927    0.5571   -0.4058 H       1  UNL1        0.0240
     34 H           6.9151    1.4709    0.9346 H       1  UNL1        0.0240
     35 H           6.6299   -0.2695    1.1142 H       1  UNL1        0.0240
     36 H           3.6137    2.6514    1.6927 H       1  UNL1        0.0240
     37 H           3.7600    2.1334   -0.0268 H       1  UNL1        0.0240
     38 H           5.1505    2.9258    0.8023 H       1  UNL1        0.0240
     39 H           0.4211   -2.3381    1.2492 H       1  UNL1        0.0583
     40 H           0.1089   -3.7407   -0.7663 H       1  UNL1        0.0288
     41 H           1.8668   -3.8860   -0.3101 H       1  UNL1        0.0288
     42 H           1.2583   -3.0490   -2.8217 H       1  UNL1        0.0281
     43 H           2.5144   -2.1610   -1.7989 H       1  UNL1        0.0281
     44 H          -0.1137   -1.1814   -2.6381 H       1  UNL1        0.0465
     45 H           1.2625   -0.2878   -1.9766 H       1  UNL1        0.0465
     46 H          -2.2411    1.2239   -0.4039 H       1  UNL1        0.0374
     47 H          -1.1016    0.7706   -1.7704 H       1  UNL1        0.0374
     48 H          -2.4741   -1.2611   -2.2180 H       1  UNL1        0.0466
     49 H          -3.6295   -0.0675   -3.6104 H       1  UNL1        0.1185
     50 H          -3.1369    1.3526   -2.7332 H       1  UNL1        0.1185
     51 H          -3.5179   -1.5011    0.1085 H       1  UNL1        0.0329
     52 H          -4.7048   -1.4150   -1.1956 H       1  UNL1        0.0329
     53 H          -3.6705    0.3373    1.8765 H       1  UNL1        0.0651
     54 H          -7.1036    2.5483   -0.7291 H       1  UNL1        0.0676
@<TRIPOS>BOND
     1     1     2    1
     2     2     3    1
     3     2     4    1
     4     2     5    1
     5     5     6   ar
     6     6     7   ar
     7     7     8    1
     8     8     9    1
     9     9    10    1
    10    10    11    1
    11    11    12    1
    12    12    13   am
    13    13    14    2
    14    13    15    1
    15    15    16    1
    16    16    17    1
    17    16    18    1
    18    18    19    1
    19    19    20   ar
    20    20    21   ar
    21    21    22    1
    22    21    23   ar
    23    23    24    1
    24    23    25   ar
    25    25    26   ar
    26    26    27    1
    27     7    28   ar
    28    28    29   ar
    29    29     5   ar
    30    12     8    1
    31    26    19   ar
    32     1    30    1
    33     1    31    1
    34     1    32    1
    35     3    33    1
    36     3    34    1
    37     3    35    1
    38     4    36    1
    39     4    37    1
    40     4    38    1
    41     8    39    1
    42     9    40    1
    43     9    41    1
    44    10    42    1
    45    10    43    1
    46    11    44    1
    47    11    45    1
    48    15    46    1
    49    15    47    1
    50    16    48    1
    51    17    49    1
    52    17    50    1
    53    18    51    1
    54    18    52    1
    55    20    53    1
    56    25    54    1
