@<TRIPOS>MOLECULE
*****
 58 63 0 0 0
SMALL
GASTEIGER

@<TRIPOS>ATOM
      1 C           9.1695   -0.0940   -1.3523 C.3     1  UNL1       -0.0159
      2 C           8.0810   -0.6585   -0.4813 C.ar    1  UNL1        0.0761
      3 N           7.0273   -0.4598   -0.0639 N.ar    1  UNL1       -0.2397
      4 C           6.2599   -1.1698    0.7286 C.ar    1  UNL1        0.1331
      5 C           4.9088   -0.7702    1.1811 C.2     1  UNL1        0.2671
      6 O           4.2345   -1.5133    1.9454 O.2     1  UNL1       -0.2682
      7 N           4.3761    0.4623    0.7453 N.am    1  UNL1       -0.2802
      8 C           3.0618    0.8222    1.2020 C.ar    1  UNL1        0.0343
      9 C           2.9062    1.5307    2.3596 C.ar    1  UNL1       -0.0370
     10 C           1.6565    1.8802    2.8057 C.ar    1  UNL1       -0.0172
     11 C           0.5163    1.5177    2.0836 C.ar    1  UNL1        0.1346
     12 C           0.6467    0.8101    0.9246 C.ar    1  UNL1        0.0287
     13 C           1.9431    0.4755    0.5082 C.ar    1  UNL1       -0.0312
     14 C          -0.4752    0.3716    0.0752 C.3     1  UNL1        0.1265
     15 C          -0.3321    0.8427   -1.3469 C.3     1  UNL1        0.0155
     16 C          -0.2733   -0.2008   -2.3942 C.3     1  UNL1        0.0953
     17 O           0.2451   -1.4430   -1.9229 O.2     1  UNL1       -0.4658
     18 C          -0.1754   -1.9165   -0.6995 C.2     1  UNL1        0.2763
     19 N          -0.2560   -3.3239   -0.4161 N.pl3   1  UNL1       -0.3134
     20 N          -0.4995   -1.0891    0.1988 N.2     1  UNL1       -0.2205
     21 C          -1.7746    0.8016    0.6537 C.ar    1  UNL1        0.0334
     22 C          -2.9524    0.4635   -0.0312 C.ar    1  UNL1       -0.0264
     23 C          -4.1684    0.8285    0.4452 C.ar    1  UNL1        0.0726
     24 C          -5.4093    0.4775   -0.2677 C.2     1  UNL1       -0.0003
     25 C          -5.3949   -0.2013   -1.3911 C.2     1  UNL1       -0.0745
     26 C          -6.6846   -0.5209   -2.0573 C.3     1  UNL1       -0.0105
     27 C          -7.8676   -0.4105   -1.1414 C.3     1  UNL1        0.0515
     28 O          -7.5310   -0.2806    0.2041 O.3     1  UNL1       -0.3748
     29 C          -6.7383    0.8879    0.2736 C.3     1  UNL1        0.0744
     30 N          -4.2390    1.5320    1.6036 N.ar    1  UNL1       -0.2163
     31 C          -3.1268    1.8590    2.2630 C.ar    1  UNL1        0.2566
     32 F          -3.1632    2.5711    3.4392 F       1  UNL1       -0.1799
     33 C          -1.8365    1.5082    1.8181 C.ar    1  UNL1        0.1883
     34 O          -0.7377    1.8956    2.5766 O.3     1  UNL1       -0.4508
     35 C           6.8060   -2.3549    1.1307 C.ar    1  UNL1        0.0078
     36 S           8.4323   -2.3498    0.3083 S.2     1  UNL1       -0.0800
     37 H           9.8833   -0.8550   -1.6738 H       1  UNL1        0.0298
     38 H           9.7165    0.6391   -0.7073 H       1  UNL1        0.0298
     39 H           8.6595    0.4126   -2.1835 H       1  UNL1        0.0298
     40 H           4.9196    1.0815    0.1177 H       1  UNL1        0.1552
     41 H           3.8056    1.8069    2.9132 H       1  UNL1        0.0637
     42 H           1.5507    2.4499    3.7387 H       1  UNL1        0.0655
     43 H           2.0967   -0.0899   -0.4128 H       1  UNL1        0.0641
     44 H          -1.1978    1.5039   -1.5625 H       1  UNL1        0.0328
     45 H           0.6102    1.4551   -1.3912 H       1  UNL1        0.0328
     46 H          -1.2765   -0.4442   -2.8059 H       1  UNL1        0.0698
     47 H           0.3186    0.1519   -3.2861 H       1  UNL1        0.0698
     48 H           0.0674   -3.7040    0.4953 H       1  UNL1        0.1466
     49 H          -0.6402   -3.9741   -1.1246 H       1  UNL1        0.1466
     50 H          -2.8166   -0.0960   -0.9439 H       1  UNL1        0.0644
     51 H          -4.5110   -0.5449   -1.8671 H       1  UNL1        0.0577
     52 H          -6.6047   -1.5910   -2.3924 H       1  UNL1        0.0330
     53 H          -6.8642    0.1323   -2.9466 H       1  UNL1        0.0330
     54 H          -8.5116   -1.3094   -1.2284 H       1  UNL1        0.0563
     55 H          -8.5037    0.4770   -1.3823 H       1  UNL1        0.0563
     56 H          -7.1845    1.6806   -0.3657 H       1  UNL1        0.0610
     57 H          -6.5917    1.2110    1.3172 H       1  UNL1        0.0610
     58 H           6.4394   -3.1745    1.7839 H       1  UNL1        0.0717
@<TRIPOS>BOND
     1     1     2    1
     2     2     3   ar
     3     3     4   ar
     4     4     5    1
     5     5     6    2
     6     5     7   am
     7     7     8    1
     8     8     9   ar
     9     9    10   ar
    10    10    11   ar
    11    11    12   ar
    12    12    13   ar
    13    12    14    1
    14    14    15    1
    15    15    16    1
    16    16    17    1
    17    17    18    1
    18    18    19    1
    19    18    20    2
    20    14    21    1
    21    21    22   ar
    22    22    23   ar
    23    23    24    1
    24    24    25    2
    25    25    26    1
    26    26    27    1
    27    27    28    1
    28    28    29    1
    29    23    30   ar
    30    30    31   ar
    31    31    32    1
    32    31    33   ar
    33    33    34    1
    34     4    35   ar
    35    35    36   ar
    36    36     2   ar
    37    13     8   ar
    38    20    14    1
    39    33    21   ar
    40    34    11    1
    41    29    24    1
    42     1    37    1
    43     1    38    1
    44     1    39    1
    45     7    40    1
    46     9    41    1
    47    10    42    1
    48    13    43    1
    49    15    44    1
    50    15    45    1
    51    16    46    1
    52    16    47    1
    53    19    48    1
    54    19    49    1
    55    22    50    1
    56    25    51    1
    57    26    52    1
    58    26    53    1
    59    27    54    1
    60    27    55    1
    61    29    56    1
    62    29    57    1
    63    35    58    1
