@<TRIPOS>MOLECULE
*****
 46 47 0 0 0
SMALL
GASTEIGER

@<TRIPOS>ATOM
      1 C          -5.1281    0.2995   -1.8804 C.3     1  UNL1       -0.0523
      2 C          -4.8006   -0.8535   -0.9970 C.3     1  UNL1       -0.0036
      3 N          -3.9361   -0.6708    0.0717 N.3     1  UNL1       -0.2982
      4 C          -4.2937    0.1214    1.1823 C.3     1  UNL1       -0.0007
      5 C          -3.1588    1.1334    1.3523 C.3     1  UNL1       -0.0387
      6 C          -2.4581    1.0630   -0.0038 C.3     1  UNL1       -0.0347
      7 C          -2.5507   -0.3601   -0.3161 C.3     1  UNL1        0.0260
      8 C          -1.6347   -1.3757    0.2096 C.3     1  UNL1        0.0275
      9 N          -0.2492   -1.1976   -0.0707 N.am    1  UNL1       -0.3098
     10 C           0.6316   -0.2437    0.4341 C.2     1  UNL1        0.2477
     11 O           0.1604    0.5873    1.3020 O.2     1  UNL1       -0.2701
     12 C           2.0287   -0.0924    0.0794 C.ar    1  UNL1        0.0801
     13 C           2.7885    0.9259    0.6905 C.ar    1  UNL1       -0.0197
     14 C           4.1066    1.1385    0.4201 C.ar    1  UNL1        0.1060
     15 S           5.0421    2.4024    1.1845 S.O2    1  UNL1        0.0560
     16 N           5.7768    1.7777    2.6277 N.3     1  UNL1       -0.2035
     17 O           6.0632    2.9449    0.2319 O.2     1  UNL1       -0.1533
     18 O           4.1264    3.5307    1.5914 O.2     1  UNL1       -0.1533
     19 C           4.7422    0.3229   -0.4964 C.ar    1  UNL1       -0.0319
     20 C           4.0571   -0.6864   -1.1254 C.ar    1  UNL1       -0.0173
     21 C           2.6964   -0.8644   -0.8108 C.ar    1  UNL1        0.1323
     22 O           2.0772   -1.8883   -1.4751 O.3     1  UNL1       -0.4944
     23 C           2.7250   -2.7065   -2.3981 C.3     1  UNL1        0.0788
     24 H          -4.2905    0.5339   -2.5696 H       1  UNL1        0.0242
     25 H          -5.4286    1.2131   -1.3724 H       1  UNL1        0.0242
     26 H          -5.9508   -0.0455   -2.5817 H       1  UNL1        0.0242
     27 H          -5.7634   -1.3100   -0.6086 H       1  UNL1        0.0424
     28 H          -4.3833   -1.6754   -1.6547 H       1  UNL1        0.0424
     29 H          -5.2830    0.6181    1.1040 H       1  UNL1        0.0427
     30 H          -4.3447   -0.4742    2.1414 H       1  UNL1        0.0427
     31 H          -3.4923    2.1280    1.6293 H       1  UNL1        0.0278
     32 H          -2.4454    0.7468    2.0985 H       1  UNL1        0.0278
     33 H          -1.5511    1.6018   -0.1106 H       1  UNL1        0.0281
     34 H          -3.1626    1.5947   -0.7657 H       1  UNL1        0.0281
     35 H          -2.5898   -0.4885   -1.4587 H       1  UNL1        0.0478
     36 H          -1.7842   -1.3930    1.3373 H       1  UNL1        0.0477
     37 H          -1.9285   -2.4139   -0.1711 H       1  UNL1        0.0477
     38 H           0.1511   -1.9011   -0.7659 H       1  UNL1        0.1491
     39 H           2.2883    1.5547    1.4003 H       1  UNL1        0.0646
     40 H           5.2782    2.0630    3.4846 H       1  UNL1        0.1442
     41 H           6.7861    2.0179    2.6549 H       1  UNL1        0.1442
     42 H           5.7919    0.4624   -0.7364 H       1  UNL1        0.0638
     43 H           4.5297   -1.3421   -1.8491 H       1  UNL1        0.0655
     44 H           2.0382   -3.4450   -2.8558 H       1  UNL1        0.0660
     45 H           3.1428   -2.1232   -3.2655 H       1  UNL1        0.0660
     46 H           3.5799   -3.2306   -1.8792 H       1  UNL1        0.0660
@<TRIPOS>BOND
     1     1     2    1
     2     2     3    1
     3     3     4    1
     4     4     5    1
     5     5     6    1
     6     6     7    1
     7     7     8    1
     8     8     9    1
     9     9    10   am
    10    10    11    2
    11    10    12    1
    12    12    13   ar
    13    13    14   ar
    14    14    15    1
    15    15    16    1
    16    15    17    2
    17    15    18    2
    18    14    19   ar
    19    19    20   ar
    20    20    21   ar
    21    21    22    1
    22    22    23    1
    23     7     3    1
    24    21    12   ar
    25     1    24    1
    26     1    25    1
    27     1    26    1
    28     2    27    1
    29     2    28    1
    30     4    29    1
    31     4    30    1
    32     5    31    1
    33     5    32    1
    34     6    33    1
    35     6    34    1
    36     7    35    1
    37     8    36    1
    38     8    37    1
    39     9    38    1
    40    13    39    1
    41    16    40    1
    42    16    41    1
    43    19    42    1
    44    20    43    1
    45    23    44    1
    46    23    45    1
    47    23    46    1
