@<TRIPOS>MOLECULE
*****
 52 54 0 0 0
SMALL
GASTEIGER

@<TRIPOS>ATOM
      1 C          -5.2392   -2.7934   -0.6025 C.3     1  UNL1       -0.0641
      2 C          -4.7644   -1.9380   -1.7596 C.3     1  UNL1       -0.0416
      3 C          -3.9905   -0.7375   -1.2149 C.3     1  UNL1        0.0185
      4 N          -4.8677    0.0110   -0.3754 N.3     1  UNL1       -0.1771
      5 S          -4.1125    1.4045    0.3094 S.O2    1  UNL1        0.1104
      6 O          -5.1357    2.1457    1.1635 O.2     1  UNL1       -0.1381
      7 O          -3.7046    2.3774   -0.7576 O.2     1  UNL1       -0.1381
      8 N          -2.8058    0.9291    1.2847 N.pl3   1  UNL1       -0.1889
      9 C          -1.4411    0.8158    1.6448 C.ar    1  UNL1        0.1532
     10 C          -0.4468    1.3363    0.8460 C.ar    1  UNL1        0.0848
     11 C           0.9299    1.2634    1.1141 C.ar    1  UNL1        0.2276
     12 O           1.8763    1.8060    0.2735 O.3     1  UNL1       -0.4724
     13 C           3.2514    1.7481    0.5067 C.3     1  UNL1        0.1252
     14 C           3.6886    0.3064    0.5385 C.3     1  UNL1        0.1267
     15 O           5.0812    0.1824    0.7706 O.3     1  UNL1       -0.4590
     16 C           5.6188   -1.0948    0.8255 C.ar    1  UNL1        0.3180
     17 N           6.9589   -1.1407    1.0511 N.ar    1  UNL1       -0.2022
     18 C           7.6112   -2.3159    1.1285 C.ar    1  UNL1        0.0483
     19 C           6.9535   -3.5352    0.9829 C.ar    1  UNL1        0.0543
     20 BR          7.8001   -5.2175    1.0790 Br      1  UNL1       -0.0472
     21 C           5.5864   -3.4541    0.7538 C.ar    1  UNL1        0.0483
     22 N           4.9490   -2.2721    0.6791 N.ar    1  UNL1       -0.2022
     23 N           1.1735    0.6185    2.2574 N.ar    1  UNL1       -0.2008
     24 C           0.2590    0.1039    3.0550 C.ar    1  UNL1        0.1219
     25 N          -1.0399    0.1847    2.7807 N.ar    1  UNL1       -0.2186
     26 C          -0.6955    2.0660   -0.4167 C.ar    1  UNL1       -0.0094
     27 C          -0.7929    1.3470   -1.5899 C.ar    1  UNL1       -0.0527
     28 C          -0.9972    2.1249   -2.7103 C.ar    1  UNL1       -0.0472
     29 C          -1.0931    3.5025   -2.6417 C.ar    1  UNL1        0.0179
     30 BR         -1.3767    4.4384   -4.2796 Br      1  UNL1       -0.0503
     31 C          -0.9845    4.1652   -1.4150 C.ar    1  UNL1       -0.0472
     32 C          -0.7772    3.4522   -0.2338 C.ar    1  UNL1       -0.0527
     33 H          -4.3415   -3.2225   -0.1151 H       1  UNL1        0.0230
     34 H          -5.8379   -2.2024    0.1007 H       1  UNL1        0.0230
     35 H          -5.8385   -3.6234   -1.0473 H       1  UNL1        0.0230
     36 H          -5.6788   -1.5225   -2.2322 H       1  UNL1        0.0275
     37 H          -4.2100   -2.5028   -2.5072 H       1  UNL1        0.0275
     38 H          -3.4878   -0.1818   -2.0038 H       1  UNL1        0.0442
     39 H          -3.1772   -1.1369   -0.5428 H       1  UNL1        0.0442
     40 H          -5.8158    0.1953   -0.7543 H       1  UNL1        0.1493
     41 H          -3.3872    0.4274    2.0294 H       1  UNL1        0.1763
     42 H           3.5181    2.2449    1.4780 H       1  UNL1        0.0731
     43 H           3.7544    2.3180   -0.3093 H       1  UNL1        0.0731
     44 H           3.0908   -0.2282    1.2885 H       1  UNL1        0.0732
     45 H           3.3987   -0.1169   -0.4534 H       1  UNL1        0.0732
     46 H           8.6658   -2.3367    1.3063 H       1  UNL1        0.0843
     47 H           4.9687   -4.3335    0.6256 H       1  UNL1        0.0843
     48 H           0.4458   -0.4189    3.9809 H       1  UNL1        0.1049
     49 H          -0.7054    0.2775   -1.5425 H       1  UNL1        0.0624
     50 H          -1.0804    1.5936   -3.6634 H       1  UNL1        0.0629
     51 H          -1.0642    5.2435   -1.3979 H       1  UNL1        0.0629
     52 H          -0.6903    3.9200    0.7119 H       1  UNL1        0.0624
@<TRIPOS>BOND
     1     1     2    1
     2     2     3    1
     3     3     4    1
     4     4     5    1
     5     5     6    2
     6     5     7    2
     7     5     8    1
     8     8     9    1
     9     9    10   ar
    10    10    11   ar
    11    11    12    1
    12    12    13    1
    13    13    14    1
    14    14    15    1
    15    15    16    1
    16    16    17   ar
    17    17    18   ar
    18    18    19   ar
    19    19    20    1
    20    19    21   ar
    21    21    22   ar
    22    11    23   ar
    23    23    24   ar
    24    24    25   ar
    25    10    26    1
    26    26    27   ar
    27    27    28   ar
    28    28    29   ar
    29    29    30    1
    30    29    31   ar
    31    31    32   ar
    32    25     9   ar
    33    32    26   ar
    34    22    16   ar
    35     1    33    1
    36     1    34    1
    37     1    35    1
    38     2    36    1
    39     2    37    1
    40     3    38    1
    41     3    39    1
    42     4    40    1
    43     8    41    1
    44    13    42    1
    45    13    43    1
    46    14    44    1
    47    14    45    1
    48    18    46    1
    49    21    47    1
    50    24    48    1
    51    27    49    1
    52    28    50    1
    53    31    51    1
    54    32    52    1
