@<TRIPOS>MOLECULE
*****
 60 63 0 0 0
SMALL
GASTEIGER

@<TRIPOS>ATOM
      1 C          -7.9347    1.6640    0.2327 C.3     1  UNL1       -0.0143
      2 C          -6.9510    0.5892   -0.1621 C.3     1  UNL1        0.2034
      3 C          -7.0742    0.3501   -1.6196 C.2     1  UNL1        0.3488
      4 O          -6.0460    0.4704   -2.3281 O.2     1  UNL1       -0.2465
      5 O          -8.2557    0.0012   -2.2496 O.3     1  UNL1       -0.4779
      6 C          -7.2731   -0.6905    0.5757 C.3     1  UNL1        0.0015
      7 C          -6.3943   -1.8032    0.1148 C.3     1  UNL1       -0.0201
      8 C          -4.9720   -1.3515   -0.0773 C.ar    1  UNL1       -0.0053
      9 C          -3.9701   -2.2683   -0.3009 C.ar    1  UNL1       -0.0517
     10 C          -2.6669   -1.9072   -0.4780 C.ar    1  UNL1       -0.0195
     11 C          -2.2781   -0.5467   -0.4389 C.ar    1  UNL1        0.1240
     12 O          -0.9760   -0.2164   -0.6218 O.3     1  UNL1       -0.4917
     13 C          -0.4239    1.0429   -0.5737 C.3     1  UNL1        0.0927
     14 C          -0.4785    1.6838    0.7868 C.3     1  UNL1        0.0157
     15 C           0.3230    0.7646    1.7385 C.3     1  UNL1        0.0927
     16 O           1.5463    0.6126    1.3985 O.3     1  UNL1       -0.4904
     17 C           2.7710    0.5584    1.0706 C.ar    1  UNL1        0.1387
     18 C           3.5567    1.7259    1.0146 C.ar    1  UNL1       -0.0182
     19 C           4.8855    1.7010    0.6640 C.ar    1  UNL1       -0.0548
     20 C           5.5052    0.5236    0.3512 C.ar    1  UNL1       -0.0427
     21 C           6.9147    0.5007   -0.0164 C.3     1  UNL1       -0.0158
     22 C           7.6390   -0.3862    0.9761 C.3     1  UNL1       -0.0462
     23 C           8.6604   -1.1452    0.1513 C.3     1  UNL1       -0.0525
     24 C           7.9205   -1.3675   -1.1510 C.3     1  UNL1       -0.0525
     25 C           7.2036   -0.0773   -1.3601 C.3     1  UNL1       -0.0462
     26 C           4.7772   -0.6445    0.3918 C.ar    1  UNL1       -0.0364
     27 C           3.4490   -0.6283    0.7412 C.ar    1  UNL1        0.0828
     28 CL          2.5087   -2.0908    0.7992 Cl      1  UNL1       -0.0797
     29 C          -3.3084    0.3374   -0.2145 C.ar    1  UNL1        0.0221
     30 C          -4.6344   -0.0216   -0.0331 C.ar    1  UNL1        0.1287
     31 O          -5.6257    0.9298    0.1915 O.3     1  UNL1       -0.4744
     32 H          -7.9553    2.4637   -0.5279 H       1  UNL1        0.0274
     33 H          -8.9448    1.1967    0.2308 H       1  UNL1        0.0274
     34 H          -7.7370    2.0401    1.2592 H       1  UNL1        0.0274
     35 H          -8.5004    0.3935   -3.1706 H       1  UNL1        0.2952
     36 H          -8.3334   -0.9521    0.2896 H       1  UNL1        0.0312
     37 H          -7.2961   -0.5472    1.6660 H       1  UNL1        0.0312
     38 H          -6.3359   -2.5480    0.9567 H       1  UNL1        0.0316
     39 H          -6.7608   -2.3225   -0.7905 H       1  UNL1        0.0316
     40 H          -4.2396   -3.3224   -0.3366 H       1  UNL1        0.0623
     41 H          -1.8716   -2.6267   -0.6548 H       1  UNL1        0.0654
     42 H          -0.9445    1.7075   -1.3162 H       1  UNL1        0.0697
     43 H           0.6503    0.9374   -0.9188 H       1  UNL1        0.0697
     44 H          -1.4671    1.7344    1.2249 H       1  UNL1        0.0331
     45 H          -0.0515    2.6950    0.7904 H       1  UNL1        0.0331
     46 H          -0.3471   -0.1729    1.7517 H       1  UNL1        0.0697
     47 H           0.1026    1.1739    2.7898 H       1  UNL1        0.0697
     48 H           3.1088    2.6856    1.2542 H       1  UNL1        0.0655
     49 H           5.4382    2.6519    0.6412 H       1  UNL1        0.0622
     50 H           7.3203    1.5436    0.0459 H       1  UNL1        0.0349
     51 H           6.9677   -1.1508    1.4141 H       1  UNL1        0.0271
     52 H           8.0737    0.2360    1.7591 H       1  UNL1        0.0271
     53 H           9.5077   -0.4674   -0.0465 H       1  UNL1        0.0265
     54 H           8.9332   -2.0827    0.6422 H       1  UNL1        0.0265
     55 H           8.6260   -1.6170   -1.9766 H       1  UNL1        0.0265
     56 H           7.2724   -2.2472   -1.0144 H       1  UNL1        0.0265
     57 H           6.3172   -0.1618   -2.0202 H       1  UNL1        0.0271
     58 H           7.9116    0.6028   -1.9140 H       1  UNL1        0.0271
     59 H           5.2898   -1.5610    0.1407 H       1  UNL1        0.0636
     60 H          -3.1327    1.4074   -0.1945 H       1  UNL1        0.0691
@<TRIPOS>BOND
     1     2     1    1
     2     2     3    1
     3     3     4    2
     4     3     5    1
     5     2     6    1
     6     6     7    1
     7     7     8    1
     8     8     9   ar
     9     9    10   ar
    10    10    11   ar
    11    11    12    1
    12    12    13    1
    13    13    14    1
    14    14    15    1
    15    15    16    1
    16    16    17    1
    17    17    18   ar
    18    18    19   ar
    19    19    20   ar
    20    20    21    1
    21    21    22    1
    22    22    23    1
    23    23    24    1
    24    24    25    1
    25    20    26   ar
    26    26    27   ar
    27    27    28    1
    28    11    29   ar
    29    29    30   ar
    30    30    31    1
    31    31     2    1
    32    30     8   ar
    33    27    17   ar
    34    25    21    1
    35     1    32    1
    36     1    33    1
    37     1    34    1
    38     5    35    1
    39     6    36    1
    40     6    37    1
    41     7    38    1
    42     7    39    1
    43     9    40    1
    44    10    41    1
    45    13    42    1
    46    13    43    1
    47    14    44    1
    48    14    45    1
    49    15    46    1
    50    15    47    1
    51    18    48    1
    52    19    49    1
    53    21    50    1
    54    22    51    1
    55    22    52    1
    56    23    53    1
    57    23    54    1
    58    24    55    1
    59    24    56    1
    60    25    57    1
    61    25    58    1
    62    26    59    1
    63    29    60    1
