
     RDKit          3D

 60 63  0  0  0  0  0  0  0  0999 V2000
   -7.9347    1.6640    0.2327 C   0  0  0  0  0  0  0  0  0  0  0  0
   -6.9510    0.5892   -0.1621 C   0  0  2  0  0  0  0  0  0  0  0  0
   -7.0742    0.3501   -1.6196 C   0  0  0  0  0  0  0  0  0  0  0  0
   -6.0460    0.4704   -2.3281 O   0  0  0  0  0  0  0  0  0  0  0  0
   -8.2557    0.0012   -2.2496 O   0  0  0  0  0  0  0  0  0  0  0  0
   -7.2731   -0.6905    0.5757 C   0  0  0  0  0  0  0  0  0  0  0  0
   -6.3943   -1.8032    0.1148 C   0  0  0  0  0  0  0  0  0  0  0  0
   -4.9720   -1.3515   -0.0773 C   0  0  0  0  0  0  0  0  0  0  0  0
   -3.9701   -2.2683   -0.3009 C   0  0  0  0  0  0  0  0  0  0  0  0
   -2.6669   -1.9072   -0.4780 C   0  0  0  0  0  0  0  0  0  0  0  0
   -2.2781   -0.5467   -0.4389 C   0  0  0  0  0  0  0  0  0  0  0  0
   -0.9760   -0.2164   -0.6218 O   0  0  0  0  0  0  0  0  0  0  0  0
   -0.4239    1.0429   -0.5737 C   0  0  0  0  0  0  0  0  0  0  0  0
   -0.4785    1.6838    0.7868 C   0  0  0  0  0  0  0  0  0  0  0  0
    0.3230    0.7646    1.7385 C   0  0  0  0  0  0  0  0  0  0  0  0
    1.5463    0.6126    1.3985 O   0  0  0  0  0  0  0  0  0  0  0  0
    2.7710    0.5584    1.0706 C   0  0  0  0  0  0  0  0  0  0  0  0
    3.5567    1.7259    1.0146 C   0  0  0  0  0  0  0  0  0  0  0  0
    4.8855    1.7010    0.6640 C   0  0  0  0  0  0  0  0  0  0  0  0
    5.5052    0.5236    0.3512 C   0  0  0  0  0  0  0  0  0  0  0  0
    6.9147    0.5007   -0.0164 C   0  0  0  0  0  0  0  0  0  0  0  0
    7.6390   -0.3862    0.9761 C   0  0  0  0  0  0  0  0  0  0  0  0
    8.6604   -1.1452    0.1513 C   0  0  0  0  0  0  0  0  0  0  0  0
    7.9205   -1.3675   -1.1510 C   0  0  0  0  0  0  0  0  0  0  0  0
    7.2036   -0.0773   -1.3601 C   0  0  0  0  0  0  0  0  0  0  0  0
    4.7772   -0.6445    0.3918 C   0  0  0  0  0  0  0  0  0  0  0  0
    3.4490   -0.6283    0.7412 C   0  0  0  0  0  0  0  0  0  0  0  0
    2.5087   -2.0908    0.7992 Cl  0  0  0  0  0  0  0  0  0  0  0  0
   -3.3084    0.3374   -0.2145 C   0  0  0  0  0  0  0  0  0  0  0  0
   -4.6344   -0.0216   -0.0331 C   0  0  0  0  0  0  0  0  0  0  0  0
   -5.6257    0.9298    0.1915 O   0  0  0  0  0  0  0  0  0  0  0  0
   -7.9553    2.4637   -0.5279 H   0  0  0  0  0  0  0  0  0  0  0  0
   -8.9448    1.1967    0.2308 H   0  0  0  0  0  0  0  0  0  0  0  0
   -7.7370    2.0401    1.2592 H   0  0  0  0  0  0  0  0  0  0  0  0
   -8.5004    0.3935   -3.1706 H   0  0  0  0  0  0  0  0  0  0  0  0
   -8.3334   -0.9521    0.2896 H   0  0  0  0  0  0  0  0  0  0  0  0
   -7.2961   -0.5472    1.6660 H   0  0  0  0  0  0  0  0  0  0  0  0
   -6.3359   -2.5480    0.9567 H   0  0  0  0  0  0  0  0  0  0  0  0
   -6.7608   -2.3225   -0.7905 H   0  0  0  0  0  0  0  0  0  0  0  0
   -4.2396   -3.3224   -0.3366 H   0  0  0  0  0  0  0  0  0  0  0  0
   -1.8716   -2.6267   -0.6548 H   0  0  0  0  0  0  0  0  0  0  0  0
   -0.9445    1.7075   -1.3162 H   0  0  0  0  0  0  0  0  0  0  0  0
    0.6503    0.9374   -0.9188 H   0  0  0  0  0  0  0  0  0  0  0  0
   -1.4671    1.7344    1.2249 H   0  0  0  0  0  0  0  0  0  0  0  0
   -0.0515    2.6950    0.7904 H   0  0  0  0  0  0  0  0  0  0  0  0
   -0.3471   -0.1729    1.7517 H   0  0  0  0  0  0  0  0  0  0  0  0
    0.1026    1.1739    2.7898 H   0  0  0  0  0  0  0  0  0  0  0  0
    3.1088    2.6856    1.2542 H   0  0  0  0  0  0  0  0  0  0  0  0
    5.4382    2.6519    0.6412 H   0  0  0  0  0  0  0  0  0  0  0  0
    7.3203    1.5436    0.0459 H   0  0  0  0  0  0  0  0  0  0  0  0
    6.9677   -1.1508    1.4141 H   0  0  0  0  0  0  0  0  0  0  0  0
    8.0737    0.2360    1.7591 H   0  0  0  0  0  0  0  0  0  0  0  0
    9.5077   -0.4674   -0.0465 H   0  0  0  0  0  0  0  0  0  0  0  0
    8.9332   -2.0827    0.6422 H   0  0  0  0  0  0  0  0  0  0  0  0
    8.6260   -1.6170   -1.9766 H   0  0  0  0  0  0  0  0  0  0  0  0
    7.2724   -2.2472   -1.0144 H   0  0  0  0  0  0  0  0  0  0  0  0
    6.3172   -0.1618   -2.0202 H   0  0  0  0  0  0  0  0  0  0  0  0
    7.9116    0.6028   -1.9140 H   0  0  0  0  0  0  0  0  0  0  0  0
    5.2898   -1.5610    0.1407 H   0  0  0  0  0  0  0  0  0  0  0  0
   -3.1327    1.4074   -0.1945 H   0  0  0  0  0  0  0  0  0  0  0  0
  2  1  1  1
  2  3  1  0
  3  4  2  0
  3  5  1  0
  2  6  1  0
  6  7  1  0
  7  8  1  0
  8  9  2  0
  9 10  1  0
 10 11  2  0
 11 12  1  0
 12 13  1  0
 13 14  1  0
 14 15  1  0
 15 16  1  0
 16 17  1  0
 17 18  2  0
 18 19  1  0
 19 20  2  0
 20 21  1  0
 21 22  1  0
 22 23  1  0
 23 24  1  0
 24 25  1  0
 20 26  1  0
 26 27  2  0
 27 28  1  0
 11 29  1  0
 29 30  2  0
 30 31  1  0
 31  2  1  0
 30  8  1  0
 27 17  1  0
 25 21  1  0
  1 32  1  0
  1 33  1  0
  1 34  1  0
  5 35  1  0
  6 36  1  0
  6 37  1  0
  7 38  1  0
  7 39  1  0
  9 40  1  0
 10 41  1  0
 13 42  1  0
 13 43  1  0
 14 44  1  0
 14 45  1  0
 15 46  1  0
 15 47  1  0
 18 48  1  0
 19 49  1  0
 21 50  1  0
 22 51  1  0
 22 52  1  0
 23 53  1  0
 23 54  1  0
 24 55  1  0
 24 56  1  0
 25 57  1  0
 25 58  1  0
 26 59  1  0
 29 60  1  0
M  END
$$$$
