@<TRIPOS>MOLECULE
*****
 60 62 0 0 0
SMALL
GASTEIGER

@<TRIPOS>ATOM
      1 C          -8.0778    0.2841   -2.2040 C.3     1  UNL1       -0.0652
      2 C          -7.9057    0.0935   -0.7113 C.3     1  UNL1       -0.0545
      3 C          -7.7787   -1.3838   -0.4344 C.3     1  UNL1       -0.0376
      4 C          -7.6205   -1.5967    1.0356 C.3     1  UNL1        0.0119
      5 N          -6.4703   -0.9647    1.6282 N.am    1  UNL1       -0.3113
      6 C          -5.1116   -1.1995    1.2846 C.2     1  UNL1        0.2441
      7 O          -4.9782   -2.0444    0.3594 O.2     1  UNL1       -0.2702
      8 C          -4.0068   -0.5204    1.9491 C.ar    1  UNL1        0.0384
      9 C          -4.0530    0.3979    2.9717 C.ar    1  UNL1       -0.0495
     10 C          -2.9650    0.9805    3.5551 C.ar    1  UNL1       -0.0593
     11 C          -1.6940    0.6306    3.0886 C.ar    1  UNL1       -0.0404
     12 C          -1.6233   -0.3080    2.0402 C.ar    1  UNL1        0.0341
     13 N          -0.2366   -0.4945    1.7629 N.am    1  UNL1       -0.2855
     14 C           0.4292    0.3737    0.8217 C.2     1  UNL1        0.2172
     15 O          -0.3934    1.2095    0.3739 O.2     1  UNL1       -0.2755
     16 C           1.8637   -0.0801    0.7591 C.3     1  UNL1        0.0243
     17 C           2.6127    0.8416   -0.1379 C.3     1  UNL1       -0.0447
     18 C           4.0931    0.4341   -0.2779 C.3     1  UNL1       -0.0512
     19 C           4.7769    0.4359    1.0336 C.3     1  UNL1       -0.0374
     20 C           6.2305    0.0373    0.9872 C.3     1  UNL1        0.0105
     21 N           7.0090    0.9188    0.1378 N.pl3   1  UNL1       -0.3272
     22 C           6.8871    0.4895   -1.1921 C.ar    1  UNL1        0.1497
     23 C           6.7894    0.1138   -2.4293 C.ar    1  UNL1        0.1472
     24 N           6.2689   -1.1554   -2.1129 N.ar    1  UNL1       -0.2308
     25 C           6.0353   -1.8577   -3.2065 C.ar    1  UNL1        0.0957
     26 N           6.3999   -1.0500   -4.2034 N.ar    1  UNL1       -0.3292
     27 C           6.8517    0.1249   -3.7675 C.ar    1  UNL1        0.1627
     28 N           7.3750    1.3696   -4.0088 N.ar    1  UNL1       -0.2162
     29 C           7.6326    2.1104   -2.8764 C.ar    1  UNL1        0.1205
     30 N           7.4279    1.7540   -1.5638 N.ar    1  UNL1       -0.2186
     31 C          -2.7511   -0.8608    1.4942 C.ar    1  UNL1       -0.0284
     32 H          -7.7916   -0.6695   -2.7226 H       1  UNL1        0.0230
     33 H          -7.3929    1.0706   -2.5891 H       1  UNL1        0.0230
     34 H          -9.1249    0.4931   -2.4668 H       1  UNL1        0.0230
     35 H          -6.9372    0.5844   -0.4166 H       1  UNL1        0.0263
     36 H          -8.7256    0.5645   -0.1661 H       1  UNL1        0.0263
     37 H          -6.9839   -1.8589   -1.0045 H       1  UNL1        0.0280
     38 H          -8.7499   -1.8867   -0.7199 H       1  UNL1        0.0280
     39 H          -8.5285   -1.1918    1.5502 H       1  UNL1        0.0462
     40 H          -7.6606   -2.6928    1.2613 H       1  UNL1        0.0462
     41 H          -6.6036   -0.2483    2.4067 H       1  UNL1        0.1490
     42 H          -5.0424    0.6562    3.3109 H       1  UNL1        0.0625
     43 H          -3.1575    1.6917    4.3652 H       1  UNL1        0.0618
     44 H          -0.9056    1.1459    3.6210 H       1  UNL1        0.0636
     45 H          -0.0077   -1.3292    2.3923 H       1  UNL1        0.1548
     46 H           2.2611    0.0917    1.8045 H       1  UNL1        0.0358
     47 H           1.9364   -1.1277    0.4487 H       1  UNL1        0.0358
     48 H           2.1938    0.8127   -1.1813 H       1  UNL1        0.0270
     49 H           2.5618    1.9062    0.1816 H       1  UNL1        0.0270
     50 H           4.5626    1.1515   -1.0060 H       1  UNL1        0.0266
     51 H           4.0388   -0.6067   -0.6593 H       1  UNL1        0.0266
     52 H           4.7306    1.4393    1.5137 H       1  UNL1        0.0280
     53 H           4.2538   -0.2756    1.7135 H       1  UNL1        0.0280
     54 H           6.3770   -1.0416    0.7246 H       1  UNL1        0.0461
     55 H           6.6015    0.1084    2.0263 H       1  UNL1        0.0461
     56 H           7.4381    1.6094    0.7539 H       1  UNL1        0.1475
     57 H           5.6422   -2.8565   -3.4369 H       1  UNL1        0.1027
     58 H           6.4203   -1.1113   -5.2475 H       1  UNL1        0.1682
     59 H           8.0496    3.0694   -3.3343 H       1  UNL1        0.1048
     60 H          -2.4724   -1.5418    0.7200 H       1  UNL1        0.0644
@<TRIPOS>BOND
     1     1     2    1
     2     2     3    1
     3     3     4    1
     4     4     5    1
     5     5     6   am
     6     6     7    2
     7     6     8    1
     8     8     9   ar
     9     9    10   ar
    10    10    11   ar
    11    11    12   ar
    12    12    13    1
    13    13    14   am
    14    14    15    2
    15    14    16    1
    16    16    17    1
    17    17    18    1
    18    18    19    1
    19    19    20    1
    20    20    21    1
    21    21    22    1
    22    22    23   ar
    23    23    24   ar
    24    24    25   ar
    25    25    26   ar
    26    26    27   ar
    27    27    28   ar
    28    28    29   ar
    29    29    30   ar
    30    12    31   ar
    31    31     8   ar
    32    30    22   ar
    33    27    23   ar
    34     1    32    1
    35     1    33    1
    36     1    34    1
    37     2    35    1
    38     2    36    1
    39     3    37    1
    40     3    38    1
    41     4    39    1
    42     4    40    1
    43     5    41    1
    44     9    42    1
    45    10    43    1
    46    11    44    1
    47    13    45    1
    48    16    46    1
    49    16    47    1
    50    17    48    1
    51    17    49    1
    52    18    50    1
    53    18    51    1
    54    19    52    1
    55    19    53    1
    56    20    54    1
    57    20    55    1
    58    21    56    1
    59    25    57    1
    60    26    58    1
    61    29    59    1
    62    31    60    1
