
     RDKit          3D

 60 62  0  0  0  0  0  0  0  0999 V2000
   -8.0778    0.2841   -2.2040 C   0  0  0  0  0  0  0  0  0  0  0  0
   -7.9057    0.0935   -0.7113 C   0  0  0  0  0  0  0  0  0  0  0  0
   -7.7787   -1.3838   -0.4344 C   0  0  0  0  0  0  0  0  0  0  0  0
   -7.6205   -1.5967    1.0356 C   0  0  0  0  0  0  0  0  0  0  0  0
   -6.4703   -0.9647    1.6282 N   0  0  0  0  0  0  0  0  0  0  0  0
   -5.1116   -1.1995    1.2846 C   0  0  0  0  0  0  0  0  0  0  0  0
   -4.9782   -2.0444    0.3594 O   0  0  0  0  0  0  0  0  0  0  0  0
   -4.0068   -0.5204    1.9491 C   0  0  0  0  0  0  0  0  0  0  0  0
   -4.0530    0.3979    2.9717 C   0  0  0  0  0  0  0  0  0  0  0  0
   -2.9650    0.9805    3.5551 C   0  0  0  0  0  0  0  0  0  0  0  0
   -1.6940    0.6306    3.0886 C   0  0  0  0  0  0  0  0  0  0  0  0
   -1.6233   -0.3080    2.0402 C   0  0  0  0  0  0  0  0  0  0  0  0
   -0.2366   -0.4945    1.7629 N   0  0  0  0  0  0  0  0  0  0  0  0
    0.4292    0.3737    0.8217 C   0  0  0  0  0  0  0  0  0  0  0  0
   -0.3934    1.2095    0.3739 O   0  0  0  0  0  0  0  0  0  0  0  0
    1.8637   -0.0801    0.7591 C   0  0  0  0  0  0  0  0  0  0  0  0
    2.6127    0.8416   -0.1379 C   0  0  0  0  0  0  0  0  0  0  0  0
    4.0931    0.4341   -0.2779 C   0  0  0  0  0  0  0  0  0  0  0  0
    4.7769    0.4359    1.0336 C   0  0  0  0  0  0  0  0  0  0  0  0
    6.2305    0.0373    0.9872 C   0  0  0  0  0  0  0  0  0  0  0  0
    7.0090    0.9188    0.1378 N   0  0  0  0  0  0  0  0  0  0  0  0
    6.8871    0.4895   -1.1921 C   0  0  0  0  0  0  0  0  0  0  0  0
    6.7894    0.1138   -2.4293 C   0  0  0  0  0  0  0  0  0  0  0  0
    6.2689   -1.1554   -2.1129 N   0  0  0  0  0  0  0  0  0  0  0  0
    6.0353   -1.8577   -3.2065 C   0  0  0  0  0  0  0  0  0  0  0  0
    6.3999   -1.0500   -4.2034 N   0  0  0  0  0  0  0  0  0  0  0  0
    6.8517    0.1249   -3.7675 C   0  0  0  0  0  0  0  0  0  0  0  0
    7.3750    1.3696   -4.0088 N   0  0  0  0  0  0  0  0  0  0  0  0
    7.6326    2.1104   -2.8764 C   0  0  0  0  0  0  0  0  0  0  0  0
    7.4279    1.7540   -1.5638 N   0  0  0  0  0  0  0  0  0  0  0  0
   -2.7511   -0.8608    1.4942 C   0  0  0  0  0  0  0  0  0  0  0  0
   -7.7916   -0.6695   -2.7226 H   0  0  0  0  0  0  0  0  0  0  0  0
   -7.3929    1.0706   -2.5891 H   0  0  0  0  0  0  0  0  0  0  0  0
   -9.1249    0.4931   -2.4668 H   0  0  0  0  0  0  0  0  0  0  0  0
   -6.9372    0.5844   -0.4166 H   0  0  0  0  0  0  0  0  0  0  0  0
   -8.7256    0.5645   -0.1661 H   0  0  0  0  0  0  0  0  0  0  0  0
   -6.9839   -1.8589   -1.0045 H   0  0  0  0  0  0  0  0  0  0  0  0
   -8.7499   -1.8867   -0.7199 H   0  0  0  0  0  0  0  0  0  0  0  0
   -8.5285   -1.1918    1.5502 H   0  0  0  0  0  0  0  0  0  0  0  0
   -7.6606   -2.6928    1.2613 H   0  0  0  0  0  0  0  0  0  0  0  0
   -6.6036   -0.2483    2.4067 H   0  0  0  0  0  0  0  0  0  0  0  0
   -5.0424    0.6562    3.3109 H   0  0  0  0  0  0  0  0  0  0  0  0
   -3.1575    1.6917    4.3652 H   0  0  0  0  0  0  0  0  0  0  0  0
   -0.9056    1.1459    3.6210 H   0  0  0  0  0  0  0  0  0  0  0  0
   -0.0077   -1.3292    2.3923 H   0  0  0  0  0  0  0  0  0  0  0  0
    2.2611    0.0917    1.8045 H   0  0  0  0  0  0  0  0  0  0  0  0
    1.9364   -1.1277    0.4487 H   0  0  0  0  0  0  0  0  0  0  0  0
    2.1938    0.8127   -1.1813 H   0  0  0  0  0  0  0  0  0  0  0  0
    2.5618    1.9062    0.1816 H   0  0  0  0  0  0  0  0  0  0  0  0
    4.5626    1.1515   -1.0060 H   0  0  0  0  0  0  0  0  0  0  0  0
    4.0388   -0.6067   -0.6593 H   0  0  0  0  0  0  0  0  0  0  0  0
    4.7306    1.4393    1.5137 H   0  0  0  0  0  0  0  0  0  0  0  0
    4.2538   -0.2756    1.7135 H   0  0  0  0  0  0  0  0  0  0  0  0
    6.3770   -1.0416    0.7246 H   0  0  0  0  0  0  0  0  0  0  0  0
    6.6015    0.1084    2.0263 H   0  0  0  0  0  0  0  0  0  0  0  0
    7.4381    1.6094    0.7539 H   0  0  0  0  0  0  0  0  0  0  0  0
    5.6422   -2.8565   -3.4369 H   0  0  0  0  0  0  0  0  0  0  0  0
    6.4203   -1.1113   -5.2475 H   0  0  0  0  0  0  0  0  0  0  0  0
    8.0496    3.0694   -3.3343 H   0  0  0  0  0  0  0  0  0  0  0  0
   -2.4724   -1.5418    0.7200 H   0  0  0  0  0  0  0  0  0  0  0  0
  1  2  1  0
  2  3  1  0
  3  4  1  0
  4  5  1  0
  5  6  1  0
  6  7  2  0
  6  8  1  0
  8  9  2  0
  9 10  1  0
 10 11  2  0
 11 12  1  0
 12 13  1  0
 13 14  1  0
 14 15  2  0
 14 16  1  0
 16 17  1  0
 17 18  1  0
 18 19  1  0
 19 20  1  0
 20 21  1  0
 21 22  1  0
 22 23  2  0
 23 24  1  0
 24 25  2  0
 25 26  1  0
 26 27  1  0
 27 28  2  0
 28 29  1  0
 29 30  2  0
 12 31  2  0
 31  8  1  0
 30 22  1  0
 27 23  1  0
  1 32  1  0
  1 33  1  0
  1 34  1  0
  2 35  1  0
  2 36  1  0
  3 37  1  0
  3 38  1  0
  4 39  1  0
  4 40  1  0
  5 41  1  0
  9 42  1  0
 10 43  1  0
 11 44  1  0
 13 45  1  0
 16 46  1  0
 16 47  1  0
 17 48  1  0
 17 49  1  0
 18 50  1  0
 18 51  1  0
 19 52  1  0
 19 53  1  0
 20 54  1  0
 20 55  1  0
 21 56  1  0
 25 57  1  0
 26 58  1  0
 29 59  1  0
 31 60  1  0
M  END
$$$$
