@<TRIPOS>MOLECULE
*****
 32 33 0 0 0
SMALL
GASTEIGER

@<TRIPOS>ATOM
      1 N           1.4712    0.6408   -1.9042 N.pl3   1  UNL1       -0.3572
      2 C           1.3035    0.5301   -0.4813 C.ar    1  UNL1        0.0392
      3 C           2.4803    0.7016    0.2492 C.ar    1  UNL1       -0.0154
      4 C           3.7761    0.9682   -0.4463 C.3     1  UNL1        0.0716
      5 C           4.2648   -0.3245   -1.0321 C.2     1  UNL1        0.3091
      6 O           5.3902   -0.6563   -1.7612 O.3     1  UNL1       -0.4804
      7 O           3.6068   -1.3855   -0.8993 O.2     1  UNL1       -0.2507
      8 C           2.4993    0.6295    1.6243 C.ar    1  UNL1       -0.0563
      9 C           1.3031    0.3798    2.2557 C.ar    1  UNL1       -0.0607
     10 C           0.1596    0.2154    1.5057 C.ar    1  UNL1       -0.0491
     11 C           0.0976    0.2794    0.1388 C.ar    1  UNL1        0.0431
     12 C          -1.0565    0.0938   -0.6843 C.2     1  UNL1        0.1949
     13 O          -0.8041    0.0770   -1.9427 O.2     1  UNL1       -0.2866
     14 C          -2.4588   -0.0824   -0.4073 C.ar    1  UNL1        0.0224
     15 C          -3.1710    0.3570    0.6856 C.ar    1  UNL1       -0.0499
     16 C          -4.5056    0.1292    0.9172 C.ar    1  UNL1       -0.0471
     17 C          -5.2091   -0.5934   -0.0029 C.ar    1  UNL1        0.0179
     18 BR         -7.0630   -0.9688    0.2210 Br      1  UNL1       -0.0503
     19 C          -4.5986   -1.0819   -1.1346 C.ar    1  UNL1       -0.0471
     20 C          -3.2595   -0.8089   -1.2898 C.ar    1  UNL1       -0.0499
     21 H           1.6114   -0.2557   -2.4080 H       1  UNL1        0.1423
     22 H           1.6182   -0.1162   -2.5803 H       1  UNL1        0.1423
     23 H           3.6283    1.6801   -1.2824 H       1  UNL1        0.0427
     24 H           4.5136    1.3474    0.2766 H       1  UNL1        0.0427
     25 H           6.0108   -1.4264   -1.4825 H       1  UNL1        0.2951
     26 H           3.4065    0.7627    2.1680 H       1  UNL1        0.0621
     27 H           1.3074    0.3222    3.3456 H       1  UNL1        0.0618
     28 H          -0.7051    0.0145    2.0797 H       1  UNL1        0.0625
     29 H          -2.6868    0.9395    1.4290 H       1  UNL1        0.0625
     30 H          -5.0102    0.5006    1.7977 H       1  UNL1        0.0629
     31 H          -5.1264   -1.6586   -1.8879 H       1  UNL1        0.0629
     32 H          -2.7942   -1.2101   -2.2020 H       1  UNL1        0.0625
@<TRIPOS>BOND
     1     1     2    1
     2     2     3   ar
     3     3     4    1
     4     4     5    1
     5     5     6    1
     6     5     7    2
     7     3     8   ar
     8     8     9   ar
     9     9    10   ar
    10    10    11   ar
    11    11    12    1
    12    12    13    2
    13    12    14    1
    14    14    15   ar
    15    15    16   ar
    16    16    17   ar
    17    17    18    1
    18    17    19   ar
    19    19    20   ar
    20    11     2   ar
    21    20    14   ar
    22     1    21    1
    23     1    22    1
    24     4    23    1
    25     4    24    1
    26     6    25    1
    27     8    26    1
    28     9    27    1
    29    10    28    1
    30    15    29    1
    31    16    30    1
    32    19    31    1
    33    20    32    1
