
     RDKit          3D

 32 33  0  0  0  0  0  0  0  0999 V2000
    1.4712    0.6408   -1.9042 N   0  0  0  0  0  0  0  0  0  0  0  0
    1.3035    0.5301   -0.4813 C   0  0  0  0  0  0  0  0  0  0  0  0
    2.4803    0.7016    0.2492 C   0  0  0  0  0  0  0  0  0  0  0  0
    3.7761    0.9682   -0.4463 C   0  0  0  0  0  0  0  0  0  0  0  0
    4.2648   -0.3245   -1.0321 C   0  0  0  0  0  0  0  0  0  0  0  0
    5.3902   -0.6563   -1.7612 O   0  0  0  0  0  0  0  0  0  0  0  0
    3.6068   -1.3855   -0.8993 O   0  0  0  0  0  0  0  0  0  0  0  0
    2.4993    0.6295    1.6243 C   0  0  0  0  0  0  0  0  0  0  0  0
    1.3031    0.3798    2.2557 C   0  0  0  0  0  0  0  0  0  0  0  0
    0.1596    0.2154    1.5057 C   0  0  0  0  0  0  0  0  0  0  0  0
    0.0976    0.2794    0.1388 C   0  0  0  0  0  0  0  0  0  0  0  0
   -1.0565    0.0938   -0.6843 C   0  0  0  0  0  0  0  0  0  0  0  0
   -0.8041    0.0770   -1.9427 O   0  0  0  0  0  0  0  0  0  0  0  0
   -2.4588   -0.0824   -0.4073 C   0  0  0  0  0  0  0  0  0  0  0  0
   -3.1710    0.3570    0.6856 C   0  0  0  0  0  0  0  0  0  0  0  0
   -4.5056    0.1292    0.9172 C   0  0  0  0  0  0  0  0  0  0  0  0
   -5.2091   -0.5934   -0.0029 C   0  0  0  0  0  0  0  0  0  0  0  0
   -7.0630   -0.9688    0.2210 Br  0  0  0  0  0  0  0  0  0  0  0  0
   -4.5986   -1.0819   -1.1346 C   0  0  0  0  0  0  0  0  0  0  0  0
   -3.2595   -0.8089   -1.2898 C   0  0  0  0  0  0  0  0  0  0  0  0
    1.6114   -0.2557   -2.4080 H   0  0  0  0  0  0  0  0  0  0  0  0
    1.6182   -0.1162   -2.5803 H   0  0  0  0  0  0  0  0  0  0  0  0
    3.6283    1.6801   -1.2824 H   0  0  0  0  0  0  0  0  0  0  0  0
    4.5136    1.3474    0.2766 H   0  0  0  0  0  0  0  0  0  0  0  0
    6.0108   -1.4264   -1.4825 H   0  0  0  0  0  0  0  0  0  0  0  0
    3.4065    0.7627    2.1680 H   0  0  0  0  0  0  0  0  0  0  0  0
    1.3074    0.3222    3.3456 H   0  0  0  0  0  0  0  0  0  0  0  0
   -0.7051    0.0145    2.0797 H   0  0  0  0  0  0  0  0  0  0  0  0
   -2.6868    0.9395    1.4290 H   0  0  0  0  0  0  0  0  0  0  0  0
   -5.0102    0.5006    1.7977 H   0  0  0  0  0  0  0  0  0  0  0  0
   -5.1264   -1.6586   -1.8879 H   0  0  0  0  0  0  0  0  0  0  0  0
   -2.7942   -1.2101   -2.2020 H   0  0  0  0  0  0  0  0  0  0  0  0
  1  2  1  0
  2  3  2  0
  3  4  1  0
  4  5  1  0
  5  6  1  0
  5  7  2  0
  3  8  1  0
  8  9  2  0
  9 10  1  0
 10 11  2  0
 11 12  1  0
 12 13  2  0
 12 14  1  0
 14 15  2  0
 15 16  1  0
 16 17  2  0
 17 18  1  0
 17 19  1  0
 19 20  2  0
 11  2  1  0
 20 14  1  0
  1 21  1  0
  1 22  1  0
  4 23  1  0
  4 24  1  0
  6 25  1  0
  8 26  1  0
  9 27  1  0
 10 28  1  0
 15 29  1  0
 16 30  1  0
 19 31  1  0
 20 32  1  0
M  END
$$$$
