@<TRIPOS>MOLECULE
*****
 38 41 0 0 0
SMALL
GASTEIGER

@<TRIPOS>ATOM
      1 C           4.7672   -2.3185   -1.2144 C.3     1  UNL1       -0.0228
      2 C           4.0257   -1.4365   -0.2868 C.ar    1  UNL1        0.0349
      3 C           3.2099   -0.3847   -0.6461 C.ar    1  UNL1        0.0006
      4 C           2.6549    0.2506    0.4676 C.ar    1  UNL1        0.1459
      5 N           1.7741    1.3673    0.3984 N.pl3   1  UNL1       -0.2824
      6 C           0.3537    1.3681    0.3147 C.ar    1  UNL1        0.1356
      7 C          -0.4488    2.4671    0.2504 C.ar    1  UNL1        0.0405
      8 C           0.1622    3.7010    0.2674 C.ar    1  UNL1       -0.0493
      9 C          -0.6417    4.8163    0.2028 C.ar    1  UNL1       -0.0610
     10 C          -2.0229    4.7135    0.1229 C.ar    1  UNL1       -0.0597
     11 C          -2.5802    3.4469    0.1097 C.ar    1  UNL1       -0.0356
     12 C          -1.8125    2.3056    0.1725 C.ar    1  UNL1        0.0767
     13 N          -2.3418    1.0541    0.1606 N.ar    1  UNL1       -0.2271
     14 C          -1.5356   -0.0229    0.2248 C.ar    1  UNL1        0.1623
     15 N          -0.2022    0.1461    0.3008 N.ar    1  UNL1       -0.2118
     16 C          -2.1580   -1.3429    0.2085 C.ar    1  UNL1        0.0192
     17 C          -1.4123   -2.5015    0.2703 C.ar    1  UNL1       -0.0510
     18 C          -2.0558   -3.7400    0.2515 C.ar    1  UNL1       -0.0611
     19 C          -3.4326   -3.7414    0.1703 C.ar    1  UNL1       -0.0617
     20 C          -4.2126   -2.6164    0.1069 C.ar    1  UNL1       -0.0611
     21 C          -3.5339   -1.3998    0.1282 C.ar    1  UNL1       -0.0510
     22 N           3.1672   -0.4572    1.4946 N.ar    1  UNL1       -0.1584
     23 N           3.9452   -1.4150    1.0706 N.ar    1  UNL1       -0.2801
     24 H           5.5921   -2.8472   -0.6714 H       1  UNL1        0.0292
     25 H           5.3092   -1.7096   -1.9919 H       1  UNL1        0.0292
     26 H           4.1408   -3.0984   -1.6946 H       1  UNL1        0.0292
     27 H           3.0128   -0.0746   -1.6833 H       1  UNL1        0.0670
     28 H           2.4487    2.1633    0.4259 H       1  UNL1        0.1550
     29 H           1.2360    3.8008    0.3291 H       1  UNL1        0.0625
     30 H          -0.2207    5.7983    0.2124 H       1  UNL1        0.0618
     31 H          -2.7125    5.5440    0.0695 H       1  UNL1        0.0618
     32 H          -3.6536    3.2678    0.0491 H       1  UNL1        0.0639
     33 H          -0.3243   -2.4659    0.3340 H       1  UNL1        0.0625
     34 H          -1.5398   -4.6739    0.2964 H       1  UNL1        0.0618
     35 H          -3.9521   -4.6968    0.1544 H       1  UNL1        0.0618
     36 H          -5.2956   -2.6394    0.0434 H       1  UNL1        0.0618
     37 H          -4.1806   -0.5140    0.0763 H       1  UNL1        0.0625
     38 H           4.4704   -2.1140    1.6719 H       1  UNL1        0.1886
@<TRIPOS>BOND
     1     1     2    1
     2     2     3   ar
     3     3     4   ar
     4     4     5    1
     5     5     6    1
     6     6     7   ar
     7     7     8   ar
     8     8     9   ar
     9     9    10   ar
    10    10    11   ar
    11    11    12   ar
    12    12    13   ar
    13    13    14   ar
    14    14    15   ar
    15    14    16    1
    16    16    17   ar
    17    17    18   ar
    18    18    19   ar
    19    19    20   ar
    20    20    21   ar
    21     4    22   ar
    22    22    23   ar
    23    23     2   ar
    24    15     6   ar
    25    21    16   ar
    26    12     7   ar
    27     1    24    1
    28     1    25    1
    29     1    26    1
    30     3    27    1
    31     5    28    1
    32     8    29    1
    33     9    30    1
    34    10    31    1
    35    11    32    1
    36    17    33    1
    37    18    34    1
    38    19    35    1
    39    20    36    1
    40    21    37    1
    41    23    38    1
