
     RDKit          3D

 38 41  0  0  0  0  0  0  0  0999 V2000
    4.7672   -2.3185   -1.2144 C   0  0  0  0  0  0  0  0  0  0  0  0
    4.0257   -1.4365   -0.2868 C   0  0  0  0  0  0  0  0  0  0  0  0
    3.2099   -0.3847   -0.6461 C   0  0  0  0  0  0  0  0  0  0  0  0
    2.6549    0.2506    0.4676 C   0  0  0  0  0  0  0  0  0  0  0  0
    1.7741    1.3673    0.3984 N   0  0  0  0  0  0  0  0  0  0  0  0
    0.3537    1.3681    0.3147 C   0  0  0  0  0  0  0  0  0  0  0  0
   -0.4488    2.4671    0.2504 C   0  0  0  0  0  0  0  0  0  0  0  0
    0.1622    3.7010    0.2674 C   0  0  0  0  0  0  0  0  0  0  0  0
   -0.6417    4.8163    0.2028 C   0  0  0  0  0  0  0  0  0  0  0  0
   -2.0229    4.7135    0.1229 C   0  0  0  0  0  0  0  0  0  0  0  0
   -2.5802    3.4469    0.1097 C   0  0  0  0  0  0  0  0  0  0  0  0
   -1.8125    2.3056    0.1725 C   0  0  0  0  0  0  0  0  0  0  0  0
   -2.3418    1.0541    0.1606 N   0  0  0  0  0  0  0  0  0  0  0  0
   -1.5356   -0.0229    0.2248 C   0  0  0  0  0  0  0  0  0  0  0  0
   -0.2022    0.1461    0.3008 N   0  0  0  0  0  0  0  0  0  0  0  0
   -2.1580   -1.3429    0.2085 C   0  0  0  0  0  0  0  0  0  0  0  0
   -1.4123   -2.5015    0.2703 C   0  0  0  0  0  0  0  0  0  0  0  0
   -2.0558   -3.7400    0.2515 C   0  0  0  0  0  0  0  0  0  0  0  0
   -3.4326   -3.7414    0.1703 C   0  0  0  0  0  0  0  0  0  0  0  0
   -4.2126   -2.6164    0.1069 C   0  0  0  0  0  0  0  0  0  0  0  0
   -3.5339   -1.3998    0.1282 C   0  0  0  0  0  0  0  0  0  0  0  0
    3.1672   -0.4572    1.4946 N   0  0  0  0  0  0  0  0  0  0  0  0
    3.9452   -1.4150    1.0706 N   0  0  0  0  0  0  0  0  0  0  0  0
    5.5921   -2.8472   -0.6714 H   0  0  0  0  0  0  0  0  0  0  0  0
    5.3092   -1.7096   -1.9919 H   0  0  0  0  0  0  0  0  0  0  0  0
    4.1408   -3.0984   -1.6946 H   0  0  0  0  0  0  0  0  0  0  0  0
    3.0128   -0.0746   -1.6833 H   0  0  0  0  0  0  0  0  0  0  0  0
    2.4487    2.1633    0.4259 H   0  0  0  0  0  0  0  0  0  0  0  0
    1.2360    3.8008    0.3291 H   0  0  0  0  0  0  0  0  0  0  0  0
   -0.2207    5.7983    0.2124 H   0  0  0  0  0  0  0  0  0  0  0  0
   -2.7125    5.5440    0.0695 H   0  0  0  0  0  0  0  0  0  0  0  0
   -3.6536    3.2678    0.0491 H   0  0  0  0  0  0  0  0  0  0  0  0
   -0.3243   -2.4659    0.3340 H   0  0  0  0  0  0  0  0  0  0  0  0
   -1.5398   -4.6739    0.2964 H   0  0  0  0  0  0  0  0  0  0  0  0
   -3.9521   -4.6968    0.1544 H   0  0  0  0  0  0  0  0  0  0  0  0
   -5.2956   -2.6394    0.0434 H   0  0  0  0  0  0  0  0  0  0  0  0
   -4.1806   -0.5140    0.0763 H   0  0  0  0  0  0  0  0  0  0  0  0
    4.4704   -2.1140    1.6719 H   0  0  0  0  0  0  0  0  0  0  0  0
  1  2  1  0
  2  3  2  0
  3  4  1  0
  4  5  1  0
  5  6  1  0
  6  7  1  0
  7  8  2  0
  8  9  1  0
  9 10  2  0
 10 11  1  0
 11 12  2  0
 12 13  1  0
 13 14  2  0
 14 15  1  0
 14 16  1  0
 16 17  2  0
 17 18  1  0
 18 19  2  0
 19 20  1  0
 20 21  2  0
  4 22  2  0
 22 23  1  0
 23  2  1  0
 15  6  2  0
 21 16  1  0
 12  7  1  0
  1 24  1  0
  1 25  1  0
  1 26  1  0
  3 27  1  0
  5 28  1  0
  8 29  1  0
  9 30  1  0
 10 31  1  0
 11 32  1  0
 17 33  1  0
 18 34  1  0
 19 35  1  0
 20 36  1  0
 21 37  1  0
 23 38  1  0
M  END
$$$$
