@<TRIPOS>MOLECULE
*****
 39 41 0 0 0
SMALL
GASTEIGER

@<TRIPOS>ATOM
      1 C          -5.4561    0.0857   -1.7419 C.3     1  UNL1        0.0122
      2 C          -4.5889   -0.0464   -0.5259 C.2     1  UNL1        0.2104
      3 O          -5.0539    0.1752    0.6256 O.2     1  UNL1       -0.2761
      4 N          -3.2214   -0.4220   -0.6088 N.am    1  UNL1       -0.3087
      5 C          -2.4063   -0.5398    0.6092 C.3     1  UNL1        0.0500
      6 C          -1.9332   -1.9434    0.7735 C.3     1  UNL1       -0.0300
      7 C          -0.5502   -2.0075    1.3942 C.3     1  UNL1       -0.0470
      8 C           0.3980   -1.3337    0.3971 C.3     1  UNL1       -0.0266
      9 C           0.0298    0.0934    0.4066 C.ar    1  UNL1       -0.0318
     10 C           1.0089    1.0489    0.3028 C.ar    1  UNL1        0.0037
     11 C           2.4423    0.7802    0.2513 C.ar    1  UNL1       -0.0161
     12 C           3.2085    1.2273   -0.8298 C.ar    1  UNL1       -0.0528
     13 C           4.5682    1.0202   -0.9097 C.ar    1  UNL1       -0.0438
     14 C           5.2457    0.3522    0.0886 C.ar    1  UNL1        0.0518
     15 C           6.6665    0.1249    0.0244 C.1     1  UNL1        0.0992
     16 N           7.8102   -0.0387   -0.0332 N.1     1  UNL1       -0.1909
     17 C           4.5116   -0.0973    1.1640 C.ar    1  UNL1       -0.0438
     18 C           3.1391    0.1177    1.2346 C.ar    1  UNL1       -0.0528
     19 C           0.5612    2.3770    0.2848 C.ar    1  UNL1        0.0355
     20 N          -0.7297    2.7228    0.3636 N.ar    1  UNL1       -0.2623
     21 C          -1.6915    1.7911    0.4669 C.ar    1  UNL1        0.0328
     22 C          -1.3225    0.4661    0.4896 C.ar    1  UNL1       -0.0054
     23 H          -5.2308    0.9995   -2.3035 H       1  UNL1        0.0322
     24 H          -6.5109    0.0416   -1.3837 H       1  UNL1        0.0322
     25 H          -5.3312   -0.7778   -2.4238 H       1  UNL1        0.0322
     26 H          -2.8176   -0.6096   -1.5503 H       1  UNL1        0.1493
     27 H          -3.0685   -0.2882    1.4798 H       1  UNL1        0.0549
     28 H          -2.6074   -2.4896    1.4681 H       1  UNL1        0.0286
     29 H          -1.9575   -2.5244   -0.1770 H       1  UNL1        0.0286
     30 H          -0.5672   -1.4105    2.3157 H       1  UNL1        0.0269
     31 H          -0.2335   -3.0431    1.5131 H       1  UNL1        0.0269
     32 H           1.4055   -1.5744    0.6687 H       1  UNL1        0.0313
     33 H           0.2150   -1.7897   -0.6159 H       1  UNL1        0.0313
     34 H           2.6631    1.7560   -1.6169 H       1  UNL1        0.0624
     35 H           5.1522    1.3699   -1.7498 H       1  UNL1        0.0631
     36 H           5.0368   -0.6286    1.9628 H       1  UNL1        0.0631
     37 H           2.6012   -0.2422    2.1182 H       1  UNL1        0.0624
     38 H           1.3283    3.1329    0.2021 H       1  UNL1        0.0836
     39 H          -2.7141    2.1242    0.5276 H       1  UNL1        0.0833
@<TRIPOS>BOND
     1     1     2    1
     2     2     3    2
     3     2     4   am
     4     4     5    1
     5     5     6    1
     6     6     7    1
     7     7     8    1
     8     8     9    1
     9     9    10   ar
    10    10    11    1
    11    11    12   ar
    12    12    13   ar
    13    13    14   ar
    14    14    15    1
    15    15    16    3
    16    14    17   ar
    17    17    18   ar
    18    10    19   ar
    19    19    20   ar
    20    20    21   ar
    21    21    22   ar
    22    22     5    1
    23    22     9   ar
    24    18    11   ar
    25     1    23    1
    26     1    24    1
    27     1    25    1
    28     4    26    1
    29     5    27    1
    30     6    28    1
    31     6    29    1
    32     7    30    1
    33     7    31    1
    34     8    32    1
    35     8    33    1
    36    12    34    1
    37    13    35    1
    38    17    36    1
    39    18    37    1
    40    19    38    1
    41    21    39    1
