
     RDKit          3D

 39 41  0  0  0  0  0  0  0  0999 V2000
   -5.4561    0.0857   -1.7419 C   0  0  0  0  0  0  0  0  0  0  0  0
   -4.5889   -0.0464   -0.5259 C   0  0  0  0  0  0  0  0  0  0  0  0
   -5.0539    0.1752    0.6256 O   0  0  0  0  0  0  0  0  0  0  0  0
   -3.2214   -0.4220   -0.6088 N   0  0  0  0  0  0  0  0  0  0  0  0
   -2.4063   -0.5398    0.6092 C   0  0  0  0  0  0  0  0  0  0  0  0
   -1.9332   -1.9434    0.7735 C   0  0  0  0  0  0  0  0  0  0  0  0
   -0.5502   -2.0075    1.3942 C   0  0  0  0  0  0  0  0  0  0  0  0
    0.3980   -1.3337    0.3971 C   0  0  0  0  0  0  0  0  0  0  0  0
    0.0298    0.0934    0.4066 C   0  0  0  0  0  0  0  0  0  0  0  0
    1.0089    1.0489    0.3028 C   0  0  0  0  0  0  0  0  0  0  0  0
    2.4423    0.7802    0.2513 C   0  0  0  0  0  0  0  0  0  0  0  0
    3.2085    1.2273   -0.8298 C   0  0  0  0  0  0  0  0  0  0  0  0
    4.5682    1.0202   -0.9097 C   0  0  0  0  0  0  0  0  0  0  0  0
    5.2457    0.3522    0.0886 C   0  0  0  0  0  0  0  0  0  0  0  0
    6.6665    0.1249    0.0244 C   0  0  0  0  0  0  0  0  0  0  0  0
    7.8102   -0.0387   -0.0332 N   0  0  0  0  0  0  0  0  0  0  0  0
    4.5116   -0.0973    1.1640 C   0  0  0  0  0  0  0  0  0  0  0  0
    3.1391    0.1177    1.2346 C   0  0  0  0  0  0  0  0  0  0  0  0
    0.5612    2.3770    0.2848 C   0  0  0  0  0  0  0  0  0  0  0  0
   -0.7297    2.7228    0.3636 N   0  0  0  0  0  0  0  0  0  0  0  0
   -1.6915    1.7911    0.4669 C   0  0  0  0  0  0  0  0  0  0  0  0
   -1.3225    0.4661    0.4896 C   0  0  0  0  0  0  0  0  0  0  0  0
   -5.2308    0.9995   -2.3035 H   0  0  0  0  0  0  0  0  0  0  0  0
   -6.5109    0.0416   -1.3837 H   0  0  0  0  0  0  0  0  0  0  0  0
   -5.3312   -0.7778   -2.4238 H   0  0  0  0  0  0  0  0  0  0  0  0
   -2.8176   -0.6096   -1.5503 H   0  0  0  0  0  0  0  0  0  0  0  0
   -3.0685   -0.2882    1.4798 H   0  0  0  0  0  0  0  0  0  0  0  0
   -2.6074   -2.4896    1.4681 H   0  0  0  0  0  0  0  0  0  0  0  0
   -1.9575   -2.5244   -0.1770 H   0  0  0  0  0  0  0  0  0  0  0  0
   -0.5672   -1.4105    2.3157 H   0  0  0  0  0  0  0  0  0  0  0  0
   -0.2335   -3.0431    1.5131 H   0  0  0  0  0  0  0  0  0  0  0  0
    1.4055   -1.5744    0.6687 H   0  0  0  0  0  0  0  0  0  0  0  0
    0.2150   -1.7897   -0.6159 H   0  0  0  0  0  0  0  0  0  0  0  0
    2.6631    1.7560   -1.6169 H   0  0  0  0  0  0  0  0  0  0  0  0
    5.1522    1.3699   -1.7498 H   0  0  0  0  0  0  0  0  0  0  0  0
    5.0368   -0.6286    1.9628 H   0  0  0  0  0  0  0  0  0  0  0  0
    2.6012   -0.2422    2.1182 H   0  0  0  0  0  0  0  0  0  0  0  0
    1.3283    3.1329    0.2021 H   0  0  0  0  0  0  0  0  0  0  0  0
   -2.7141    2.1242    0.5276 H   0  0  0  0  0  0  0  0  0  0  0  0
  1  2  1  0
  2  3  2  0
  2  4  1  0
  4  5  1  0
  5  6  1  0
  6  7  1  0
  7  8  1  0
  8  9  1  0
  9 10  2  0
 10 11  1  0
 11 12  2  0
 12 13  1  0
 13 14  2  0
 14 15  1  0
 15 16  3  0
 14 17  1  0
 17 18  2  0
 10 19  1  0
 19 20  2  0
 20 21  1  0
 21 22  2  0
 22  5  1  0
 22  9  1  0
 18 11  1  0
  1 23  1  0
  1 24  1  0
  1 25  1  0
  4 26  1  0
  5 27  1  0
  6 28  1  0
  6 29  1  0
  7 30  1  0
  7 31  1  0
  8 32  1  0
  8 33  1  0
 12 34  1  0
 13 35  1  0
 17 36  1  0
 18 37  1  0
 19 38  1  0
 21 39  1  0
M  END
$$$$
