
     RDKit          3D

 64 68  0  0  0  0  0  0  0  0999 V2000
    8.5655   -0.4737   -1.9842 C   0  0  0  0  0  0  0  0  0  0  0  0
    8.2696    0.8107   -1.3379 N   0  0  0  0  0  0  0  0  0  0  0  0
    7.3643    1.5049   -2.2438 C   0  0  0  0  0  0  0  0  0  0  0  0
    6.0200    0.8287   -2.2699 C   0  0  0  0  0  0  0  0  0  0  0  0
    5.4651    0.9213   -0.9134 N   0  0  0  0  0  0  0  0  0  0  0  0
    4.0943    0.6102   -0.7222 C   0  0  0  0  0  0  0  0  0  0  0  0
    3.3526    0.1266   -1.8004 C   0  0  0  0  0  0  0  0  0  0  0  0
    2.0203   -0.1870   -1.6607 C   0  0  0  0  0  0  0  0  0  0  0  0
    1.3742   -0.0329   -0.4484 C   0  0  0  0  0  0  0  0  0  0  0  0
    0.0265   -0.3818   -0.3641 N   0  0  0  0  0  0  0  0  0  0  0  0
   -0.8717   -0.1390    0.7249 C   0  0  0  0  0  0  0  0  0  0  0  0
   -0.5008    0.5389    1.8210 N   0  0  0  0  0  0  0  0  0  0  0  0
   -1.3102    0.7845    2.8563 C   0  0  0  0  0  0  0  0  0  0  0  0
   -2.6245    0.3018    2.7859 C   0  0  0  0  0  0  0  0  0  0  0  0
   -3.6661    0.3808    3.6778 C   0  0  0  0  0  0  0  0  0  0  0  0
   -4.6970   -0.2793    3.0816 C   0  0  0  0  0  0  0  0  0  0  0  0
   -4.2799   -0.7600    1.8235 C   0  0  0  0  0  0  0  0  0  0  0  0
   -5.1486   -1.5475    0.9572 C   0  0  0  0  0  0  0  0  0  0  0  0
   -5.7423   -2.6833    1.5243 C   0  0  0  0  0  0  0  0  0  0  0  0
   -6.6184   -3.4786    0.8529 C   0  0  0  0  0  0  0  0  0  0  0  0
   -6.9338   -3.1491   -0.4430 C   0  0  0  0  0  0  0  0  0  0  0  0
   -6.3842   -2.0511   -1.0478 C   0  0  0  0  0  0  0  0  0  0  0  0
   -5.4745   -1.2375   -0.3300 C   0  0  0  0  0  0  0  0  0  0  0  0
   -4.9858   -0.1432   -1.0752 N   0  0  0  0  0  0  0  0  0  0  0  0
   -3.8372   -0.2852   -1.9152 C   0  0  0  0  0  0  0  0  0  0  0  0
   -5.8183    1.3527   -1.0207 S   0  0  0  0  0  6  0  0  0  0  0  0
   -5.8054    1.9484    0.6654 C   0  0  0  0  0  0  0  0  0  0  0  0
   -7.2394    1.1930   -1.4814 O   0  0  0  0  0  0  0  0  0  0  0  0
   -5.0892    2.3486   -1.8686 O   0  0  0  0  0  0  0  0  0  0  0  0
   -3.0007   -0.3754    1.6939 N   0  0  0  0  0  0  0  0  0  0  0  0
   -2.1368   -0.5873    0.6892 N   0  0  0  0  0  0  0  0  0  0  0  0
    2.1024    0.4378    0.5945 C   0  0  0  0  0  0  0  0  0  0  0  0
    3.4658    0.7629    0.4671 C   0  0  0  0  0  0  0  0  0  0  0  0
    6.3631    1.3182    0.1204 C   0  0  0  0  0  0  0  0  0  0  0  0
    7.6778    0.5844   -0.0548 C   0  0  0  0  0  0  0  0  0  0  0  0
    7.7279   -1.1916   -1.7569 H   0  0  0  0  0  0  0  0  0  0  0  0
    8.5849   -0.3366   -3.0654 H   0  0  0  0  0  0  0  0  0  0  0  0
    9.4851   -0.9029   -1.5846 H   0  0  0  0  0  0  0  0  0  0  0  0
    7.7710    1.4972   -3.2824 H   0  0  0  0  0  0  0  0  0  0  0  0
    7.2374    2.5318   -1.8643 H   0  0  0  0  0  0  0  0  0  0  0  0
    5.3849    1.4081   -2.9855 H   0  0  0  0  0  0  0  0  0  0  0  0
    6.0798   -0.2377   -2.5256 H   0  0  0  0  0  0  0  0  0  0  0  0
    3.8593    0.0044   -2.7561 H   0  0  0  0  0  0  0  0  0  0  0  0
    1.5098   -0.5582   -2.5460 H   0  0  0  0  0  0  0  0  0  0  0  0
   -0.4482   -0.8919   -1.1737 H   0  0  0  0  0  0  0  0  0  0  0  0
   -1.0427    1.3232    3.7459 H   0  0  0  0  0  0  0  0  0  0  0  0
   -3.6288    0.8814    4.6548 H   0  0  0  0  0  0  0  0  0  0  0  0
   -5.6794   -0.4185    3.4954 H   0  0  0  0  0  0  0  0  0  0  0  0
   -5.4960   -2.9460    2.5469 H   0  0  0  0  0  0  0  0  0  0  0  0
   -7.0631   -4.3486    1.3103 H   0  0  0  0  0  0  0  0  0  0  0  0
   -7.6280   -3.7661   -0.9986 H   0  0  0  0  0  0  0  0  0  0  0  0
   -6.6501   -1.8120   -2.0733 H   0  0  0  0  0  0  0  0  0  0  0  0
   -4.1823   -0.2618   -2.9798 H   0  0  0  0  0  0  0  0  0  0  0  0
   -3.1056    0.5559   -1.7870 H   0  0  0  0  0  0  0  0  0  0  0  0
   -3.3318   -1.2711   -1.7995 H   0  0  0  0  0  0  0  0  0  0  0  0
   -6.3625    2.9263    0.6335 H   0  0  0  0  0  0  0  0  0  0  0  0
   -6.3787    1.2253    1.2682 H   0  0  0  0  0  0  0  0  0  0  0  0
   -4.7849    2.0500    1.0344 H   0  0  0  0  0  0  0  0  0  0  0  0
    1.7190    0.5960    1.5892 H   0  0  0  0  0  0  0  0  0  0  0  0
    4.0047    1.1413    1.3434 H   0  0  0  0  0  0  0  0  0  0  0  0
    6.5707    2.3974    0.0515 H   0  0  0  0  0  0  0  0  0  0  0  0
    5.9809    1.0233    1.1193 H   0  0  0  0  0  0  0  0  0  0  0  0
    8.3792    0.9346    0.7357 H   0  0  0  0  0  0  0  0  0  0  0  0
    7.4907   -0.5154    0.0909 H   0  0  0  0  0  0  0  0  0  0  0  0
  1  2  1  0
  2  3  1  0
  3  4  1  0
  4  5  1  0
  5  6  1  0
  6  7  2  0
  7  8  1  0
  8  9  2  0
  9 10  1  0
 10 11  1  0
 11 12  1  0
 12 13  2  0
 13 14  1  0
 14 15  2  0
 15 16  1  0
 16 17  2  0
 17 18  1  0
 18 19  2  0
 19 20  1  0
 20 21  2  0
 21 22  1  0
 22 23  2  0
 23 24  1  0
 24 25  1  0
 24 26  1  0
 26 27  1  0
 26 28  2  0
 26 29  2  0
 17 30  1  0
 30 31  1  0
  9 32  1  0
 32 33  2  0
  5 34  1  0
 34 35  1  0
 35  2  1  0
 33  6  1  0
 31 11  2  0
 30 14  1  0
 23 18  1  0
  1 36  1  0
  1 37  1  0
  1 38  1  0
  3 39  1  0
  3 40  1  0
  4 41  1  0
  4 42  1  0
  7 43  1  0
  8 44  1  0
 10 45  1  0
 13 46  1  0
 15 47  1  0
 16 48  1  0
 19 49  1  0
 20 50  1  0
 21 51  1  0
 22 52  1  0
 25 53  1  0
 25 54  1  0
 25 55  1  0
 27 56  1  0
 27 57  1  0
 27 58  1  0
 32 59  1  0
 33 60  1  0
 34 61  1  0
 34 62  1  0
 35 63  1  0
 35 64  1  0
M  END
$$$$
