@<TRIPOS>MOLECULE
*****
 64 68 0 0 0
SMALL
GASTEIGER

@<TRIPOS>ATOM
      1 C           8.5655   -0.4737   -1.9842 C.3     1  UNL1       -0.0126
      2 N           8.2696    0.8107   -1.3379 N.3     1  UNL1       -0.3024
      3 C           7.3643    1.5049   -2.2438 C.3     1  UNL1        0.0144
      4 C           6.0200    0.8287   -2.2699 C.3     1  UNL1        0.0250
      5 N           5.4651    0.9213   -0.9134 N.pl3   1  UNL1       -0.3275
      6 C           4.0943    0.6102   -0.7222 C.ar    1  UNL1        0.0299
      7 C           3.3526    0.1266   -1.8004 C.ar    1  UNL1       -0.0389
      8 C           2.0203   -0.1870   -1.6607 C.ar    1  UNL1       -0.0387
      9 C           1.3742   -0.0329   -0.4484 C.ar    1  UNL1        0.0337
     10 N           0.0265   -0.3818   -0.3641 N.pl3   1  UNL1       -0.2825
     11 C          -0.8717   -0.1390    0.7249 C.ar    1  UNL1        0.2376
     12 N          -0.5008    0.5389    1.8210 N.ar    1  UNL1       -0.2194
     13 C          -1.3102    0.7845    2.8563 C.ar    1  UNL1        0.0566
     14 C          -2.6245    0.3018    2.7859 C.ar    1  UNL1        0.0843
     15 C          -3.6661    0.3808    3.6778 C.ar    1  UNL1       -0.0327
     16 C          -4.6970   -0.2793    3.0816 C.ar    1  UNL1       -0.0336
     17 C          -4.2799   -0.7600    1.8235 C.ar    1  UNL1        0.0752
     18 C          -5.1486   -1.5475    0.9572 C.ar    1  UNL1        0.0230
     19 C          -5.7423   -2.6833    1.5243 C.ar    1  UNL1       -0.0507
     20 C          -6.6184   -3.4786    0.8529 C.ar    1  UNL1       -0.0610
     21 C          -6.9338   -3.1491   -0.4430 C.ar    1  UNL1       -0.0599
     22 C          -6.3842   -2.0511   -1.0478 C.ar    1  UNL1       -0.0385
     23 C          -5.4745   -1.2375   -0.3300 C.ar    1  UNL1        0.0597
     24 N          -4.9858   -0.1432   -1.0752 N.pl3   1  UNL1       -0.2100
     25 C          -3.8372   -0.2852   -1.9152 C.3     1  UNL1        0.0232
     26 S          -5.8183    1.3527   -1.0207 S.O2    1  UNL1        0.0424
     27 C          -5.8054    1.9484    0.6654 C.3     1  UNL1        0.0738
     28 O          -7.2394    1.1930   -1.4814 O.2     1  UNL1       -0.1553
     29 O          -5.0892    2.3486   -1.8686 O.2     1  UNL1       -0.1553
     30 N          -3.0007   -0.3754    1.6939 N.ar    1  UNL1       -0.2274
     31 N          -2.1368   -0.5873    0.6892 N.ar    1  UNL1       -0.1295
     32 C           2.1024    0.4378    0.5945 C.ar    1  UNL1       -0.0387
     33 C           3.4658    0.7629    0.4671 C.ar    1  UNL1       -0.0389
     34 C           6.3631    1.3182    0.1204 C.3     1  UNL1        0.0250
     35 C           7.6778    0.5844   -0.0548 C.3     1  UNL1        0.0144
     36 H           7.7279   -1.1916   -1.7569 H       1  UNL1        0.0391
     37 H           8.5849   -0.3366   -3.0654 H       1  UNL1        0.0391
     38 H           9.4851   -0.9029   -1.5846 H       1  UNL1        0.0391
     39 H           7.7710    1.4972   -3.2824 H       1  UNL1        0.0442
     40 H           7.2374    2.5318   -1.8643 H       1  UNL1        0.0442
     41 H           5.3849    1.4081   -2.9855 H       1  UNL1        0.0476
     42 H           6.0798   -0.2377   -2.5256 H       1  UNL1        0.0476
     43 H           3.8593    0.0044   -2.7561 H       1  UNL1        0.0637
     44 H           1.5098   -0.5582   -2.5460 H       1  UNL1        0.0637
     45 H          -0.4482   -0.8919   -1.1737 H       1  UNL1        0.1551
     46 H          -1.0427    1.3232    3.7459 H       1  UNL1        0.0852
     47 H          -3.6288    0.8814    4.6548 H       1  UNL1        0.0640
     48 H          -5.6794   -0.4185    3.4954 H       1  UNL1        0.0640
     49 H          -5.4960   -2.9460    2.5469 H       1  UNL1        0.0625
     50 H          -7.0631   -4.3486    1.3103 H       1  UNL1        0.0618
     51 H          -7.6280   -3.7661   -0.9986 H       1  UNL1        0.0618
     52 H          -6.6501   -1.8120   -2.0733 H       1  UNL1        0.0637
     53 H          -4.1823   -0.2618   -2.9798 H       1  UNL1        0.0446
     54 H          -3.1056    0.5559   -1.7870 H       1  UNL1        0.0446
     55 H          -3.3318   -1.2711   -1.7995 H       1  UNL1        0.0446
     56 H          -6.3625    2.9263    0.6335 H       1  UNL1        0.0482
     57 H          -6.3787    1.2253    1.2682 H       1  UNL1        0.0482
     58 H          -4.7849    2.0500    1.0344 H       1  UNL1        0.0482
     59 H           1.7190    0.5960    1.5892 H       1  UNL1        0.0637
     60 H           4.0047    1.1413    1.3434 H       1  UNL1        0.0637
     61 H           6.5707    2.3974    0.0515 H       1  UNL1        0.0476
     62 H           5.9809    1.0233    1.1193 H       1  UNL1        0.0476
     63 H           8.3792    0.9346    0.7357 H       1  UNL1        0.0442
     64 H           7.4907   -0.5154    0.0909 H       1  UNL1        0.0442
@<TRIPOS>BOND
     1     1     2    1
     2     2     3    1
     3     3     4    1
     4     4     5    1
     5     5     6    1
     6     6     7   ar
     7     7     8   ar
     8     8     9   ar
     9     9    10    1
    10    10    11    1
    11    11    12   ar
    12    12    13   ar
    13    13    14   ar
    14    14    15   ar
    15    15    16   ar
    16    16    17   ar
    17    17    18    1
    18    18    19   ar
    19    19    20   ar
    20    20    21   ar
    21    21    22   ar
    22    22    23   ar
    23    23    24    1
    24    24    25    1
    25    24    26    1
    26    26    27    1
    27    26    28    2
    28    26    29    2
    29    17    30   ar
    30    30    31   ar
    31     9    32   ar
    32    32    33   ar
    33     5    34    1
    34    34    35    1
    35    35     2    1
    36    33     6   ar
    37    31    11   ar
    38    30    14   ar
    39    23    18   ar
    40     1    36    1
    41     1    37    1
    42     1    38    1
    43     3    39    1
    44     3    40    1
    45     4    41    1
    46     4    42    1
    47     7    43    1
    48     8    44    1
    49    10    45    1
    50    13    46    1
    51    15    47    1
    52    16    48    1
    53    19    49    1
    54    20    50    1
    55    21    51    1
    56    22    52    1
    57    25    53    1
    58    25    54    1
    59    25    55    1
    60    27    56    1
    61    27    57    1
    62    27    58    1
    63    32    59    1
    64    33    60    1
    65    34    61    1
    66    34    62    1
    67    35    63    1
    68    35    64    1
