@<TRIPOS>MOLECULE
*****
 49 50 0 0 0
SMALL
GASTEIGER

@<TRIPOS>ATOM
      1 C          -5.0937   -1.6365   -0.3159 C.3     1  UNL1       -0.0652
      2 C          -3.6655   -1.2018   -0.2250 C.3     1  UNL1       -0.0548
      3 C          -3.3237   -0.7847    1.2018 C.3     1  UNL1       -0.0404
      4 C          -1.8862   -0.3477    1.3051 C.3     1  UNL1       -0.0004
      5 N          -1.6290    0.7444    0.4634 N.3     1  UNL1       -0.2915
      6 C          -2.2301    1.9328    0.8369 C.3     1  UNL1       -0.0004
      7 C          -2.2042    2.9888   -0.2786 C.3     1  UNL1       -0.0401
      8 C          -0.7418    3.1188   -0.6450 C.3     1  UNL1       -0.0500
      9 C          -0.3953    1.8361   -1.3623 C.3     1  UNL1       -0.0288
     10 C          -0.6875    0.6102   -0.5453 C.3     1  UNL1        0.0875
     11 C           0.6393    0.0645   -0.0792 C.2     1  UNL1        0.2345
     12 O           0.7897   -0.1309    1.1724 O.2     1  UNL1       -0.2737
     13 N           1.7258   -0.2463   -0.9397 N.am    1  UNL1       -0.2837
     14 C           2.8853   -0.7469   -0.3157 C.ar    1  UNL1        0.0393
     15 C           3.8680    0.1464    0.0729 C.ar    1  UNL1       -0.0290
     16 C           3.7055    1.6010   -0.1722 C.3     1  UNL1       -0.0379
     17 C           5.0523   -0.2529    0.7041 C.ar    1  UNL1       -0.0571
     18 C           5.2320   -1.6001    0.9417 C.ar    1  UNL1       -0.0611
     19 C           4.2594   -2.5329    0.5627 C.ar    1  UNL1       -0.0571
     20 C           3.1121   -2.0835   -0.0558 C.ar    1  UNL1       -0.0290
     21 C           2.0522   -3.0519   -0.4719 C.3     1  UNL1       -0.0379
     22 H          -5.1175   -2.7298   -0.5423 H       1  UNL1        0.0230
     23 H          -5.7108   -1.3809    0.5547 H       1  UNL1        0.0230
     24 H          -5.5935   -1.1757   -1.2181 H       1  UNL1        0.0230
     25 H          -3.5119   -0.2876   -0.8602 H       1  UNL1        0.0263
     26 H          -2.9796   -2.0165   -0.5695 H       1  UNL1        0.0263
     27 H          -4.0490   -0.0090    1.4912 H       1  UNL1        0.0277
     28 H          -3.4633   -1.7077    1.8413 H       1  UNL1        0.0277
     29 H          -1.2559   -1.2466    1.1060 H       1  UNL1        0.0427
     30 H          -1.7235   -0.0877    2.3965 H       1  UNL1        0.0427
     31 H          -1.7955    2.4420    1.7351 H       1  UNL1        0.0427
     32 H          -3.3107    1.8055    1.0643 H       1  UNL1        0.0427
     33 H          -2.6289    3.9455    0.0834 H       1  UNL1        0.0278
     34 H          -2.7287    2.5937   -1.1702 H       1  UNL1        0.0278
     35 H          -0.5944    3.9555   -1.3286 H       1  UNL1        0.0266
     36 H          -0.1722    3.2274    0.3078 H       1  UNL1        0.0266
     37 H          -0.9872    1.8416   -2.2995 H       1  UNL1        0.0285
     38 H           0.6713    1.8924   -1.6352 H       1  UNL1        0.0285
     39 H          -1.0666   -0.1594   -1.2663 H       1  UNL1        0.0559
     40 H           1.5610   -0.0729   -1.9684 H       1  UNL1        0.1549
     41 H           3.4613    2.1872    0.7097 H       1  UNL1        0.0278
     42 H           2.9893    1.7095   -1.0056 H       1  UNL1        0.0278
     43 H           4.6913    1.9719   -0.5830 H       1  UNL1        0.0278
     44 H           5.8031    0.4589    0.9965 H       1  UNL1        0.0621
     45 H           6.1459   -1.9683    1.4358 H       1  UNL1        0.0618
     46 H           4.4187   -3.6037    0.7601 H       1  UNL1        0.0621
     47 H           1.4355   -2.6267   -1.3147 H       1  UNL1        0.0278
     48 H           2.5740   -3.9373   -0.9323 H       1  UNL1        0.0278
     49 H           1.4735   -3.4484    0.3569 H       1  UNL1        0.0278
@<TRIPOS>BOND
     1     1     2    1
     2     2     3    1
     3     3     4    1
     4     4     5    1
     5     5     6    1
     6     6     7    1
     7     7     8    1
     8     8     9    1
     9     9    10    1
    10    10    11    1
    11    11    12    2
    12    11    13   am
    13    13    14    1
    14    14    15   ar
    15    15    16    1
    16    15    17   ar
    17    17    18   ar
    18    18    19   ar
    19    19    20   ar
    20    20    21    1
    21    10     5    1
    22    20    14   ar
    23     1    22    1
    24     1    23    1
    25     1    24    1
    26     2    25    1
    27     2    26    1
    28     3    27    1
    29     3    28    1
    30     4    29    1
    31     4    30    1
    32     6    31    1
    33     6    32    1
    34     7    33    1
    35     7    34    1
    36     8    35    1
    37     8    36    1
    38     9    37    1
    39     9    38    1
    40    10    39    1
    41    13    40    1
    42    16    41    1
    43    16    42    1
    44    16    43    1
    45    17    44    1
    46    18    45    1
    47    19    46    1
    48    21    47    1
    49    21    48    1
    50    21    49    1
