@<TRIPOS>MOLECULE
*****
 45 48 0 0 0
SMALL
GASTEIGER

@<TRIPOS>ATOM
      1 C           0.0498   -2.1504    1.9538 C.3     1  UNL1       -0.0365
      2 C           1.1312   -1.4826    1.1465 C.ar    1  UNL1       -0.0112
      3 C           2.4298   -1.8395    1.4552 C.ar    1  UNL1        0.0329
      4 N           3.4360   -1.2980    0.7659 N.ar    1  UNL1       -0.2545
      5 C           3.2633   -0.3958   -0.2454 C.ar    1  UNL1        0.0755
      6 C           4.4691    0.0927   -0.8898 C.ar    1  UNL1        0.0369
      7 C           5.7195   -0.3615   -0.4679 C.ar    1  UNL1       -0.0314
      8 C           6.8979    0.0555   -1.0292 C.ar    1  UNL1        0.0418
      9 CL          8.4337   -0.5494   -0.4576 Cl      1  UNL1       -0.0835
     10 C           6.8936    0.9638   -2.0595 C.ar    1  UNL1       -0.0406
     11 C           5.6889    1.4301   -2.4987 C.ar    1  UNL1       -0.0244
     12 C           4.4974    0.9965   -1.9176 C.ar    1  UNL1        0.1326
     13 F           3.3404    1.5131   -2.4173 F       1  UNL1       -0.2048
     14 C           1.9828   -0.0562   -0.5352 C.ar    1  UNL1       -0.0142
     15 C           0.8825   -0.5913    0.1543 C.ar    1  UNL1        0.0378
     16 N          -0.4419   -0.2283   -0.1861 N.pl3   1  UNL1       -0.3124
     17 C          -1.3197    0.4397    0.6890 C.ar    1  UNL1        0.0624
     18 C          -0.8998    0.8233    1.9360 C.ar    1  UNL1       -0.0202
     19 C          -1.7728    1.4724    2.8075 C.ar    1  UNL1        0.0302
     20 N          -3.0219    1.6994    2.3727 N.ar    1  UNL1       -0.2517
     21 C          -3.4503    1.3299    1.1515 C.ar    1  UNL1        0.1103
     22 C          -4.6622    1.4449    0.4767 C.ar    1  UNL1        0.0521
     23 N          -4.5667    0.9021   -0.7491 N.ar    1  UNL1       -0.2599
     24 C          -5.6238    0.8246   -1.7638 C.3     1  UNL1        0.1174
     25 C          -6.3587   -0.4669   -1.5417 C.2     1  UNL1        0.2320
     26 N          -5.9940   -1.3614   -0.5015 N.am    1  UNL1       -0.3278
     27 O          -7.3266   -0.7570   -2.3061 O.2     1  UNL1       -0.2740
     28 N          -3.3286    0.4552   -0.8491 N.ar    1  UNL1       -0.1673
     29 C          -2.6238    0.6853    0.2548 C.ar    1  UNL1        0.1320
     30 H          -0.9266   -2.0603    1.4801 H       1  UNL1        0.0279
     31 H           0.1152   -1.6928    2.9619 H       1  UNL1        0.0279
     32 H           0.3227   -3.2323    2.1078 H       1  UNL1        0.0279
     33 H           2.6177   -2.5600    2.2591 H       1  UNL1        0.0833
     34 H           5.7373   -1.0733    0.3385 H       1  UNL1        0.0639
     35 H           7.8409    1.2984   -2.5101 H       1  UNL1        0.0633
     36 H           5.6507    2.1477   -3.3102 H       1  UNL1        0.0647
     37 H           1.7835    0.6474   -1.3191 H       1  UNL1        0.0658
     38 H          -0.7341   -0.5019   -1.1723 H       1  UNL1        0.1522
     39 H           0.1004    0.6638    2.3085 H       1  UNL1        0.0652
     40 H          -1.4226    1.7710    3.7975 H       1  UNL1        0.0830
     41 H          -5.5423    1.9091    0.8989 H       1  UNL1        0.0848
     42 H          -5.2060    0.7675   -2.7813 H       1  UNL1        0.0605
     43 H          -6.3439    1.6405   -1.6836 H       1  UNL1        0.0605
     44 H          -6.2946   -2.3430   -0.5532 H       1  UNL1        0.1450
     45 H          -5.4233   -0.9721    0.2875 H       1  UNL1        0.1450
@<TRIPOS>BOND
     1     1     2    1
     2     2     3   ar
     3     3     4   ar
     4     4     5   ar
     5     5     6    1
     6     6     7   ar
     7     7     8   ar
     8     8     9    1
     9     8    10   ar
    10    10    11   ar
    11    11    12   ar
    12    12    13    1
    13     5    14   ar
    14    14    15   ar
    15    15    16    1
    16    16    17    1
    17    17    18   ar
    18    18    19   ar
    19    19    20   ar
    20    20    21   ar
    21    21    22   ar
    22    22    23   ar
    23    23    24    1
    24    24    25    1
    25    25    26   am
    26    25    27    2
    27    23    28   ar
    28    28    29   ar
    29    15     2   ar
    30    29    17   ar
    31    12     6   ar
    32    29    21   ar
    33     1    30    1
    34     1    31    1
    35     1    32    1
    36     3    33    1
    37     7    34    1
    38    10    35    1
    39    11    36    1
    40    14    37    1
    41    16    38    1
    42    18    39    1
    43    19    40    1
    44    22    41    1
    45    24    42    1
    46    24    43    1
    47    26    44    1
    48    26    45    1
