
     RDKit          3D

 45 48  0  0  0  0  0  0  0  0999 V2000
    0.0498   -2.1504    1.9538 C   0  0  0  0  0  0  0  0  0  0  0  0
    1.1312   -1.4826    1.1465 C   0  0  0  0  0  0  0  0  0  0  0  0
    2.4298   -1.8395    1.4552 C   0  0  0  0  0  0  0  0  0  0  0  0
    3.4360   -1.2980    0.7659 N   0  0  0  0  0  0  0  0  0  0  0  0
    3.2633   -0.3958   -0.2454 C   0  0  0  0  0  0  0  0  0  0  0  0
    4.4691    0.0927   -0.8898 C   0  0  0  0  0  0  0  0  0  0  0  0
    5.7195   -0.3615   -0.4679 C   0  0  0  0  0  0  0  0  0  0  0  0
    6.8979    0.0555   -1.0292 C   0  0  0  0  0  0  0  0  0  0  0  0
    8.4337   -0.5494   -0.4576 Cl  0  0  0  0  0  0  0  0  0  0  0  0
    6.8936    0.9638   -2.0595 C   0  0  0  0  0  0  0  0  0  0  0  0
    5.6889    1.4301   -2.4987 C   0  0  0  0  0  0  0  0  0  0  0  0
    4.4974    0.9965   -1.9176 C   0  0  0  0  0  0  0  0  0  0  0  0
    3.3404    1.5131   -2.4173 F   0  0  0  0  0  0  0  0  0  0  0  0
    1.9828   -0.0562   -0.5352 C   0  0  0  0  0  0  0  0  0  0  0  0
    0.8825   -0.5913    0.1543 C   0  0  0  0  0  0  0  0  0  0  0  0
   -0.4419   -0.2283   -0.1861 N   0  0  0  0  0  0  0  0  0  0  0  0
   -1.3197    0.4397    0.6890 C   0  0  0  0  0  0  0  0  0  0  0  0
   -0.8998    0.8233    1.9360 C   0  0  0  0  0  0  0  0  0  0  0  0
   -1.7728    1.4724    2.8075 C   0  0  0  0  0  0  0  0  0  0  0  0
   -3.0219    1.6994    2.3727 N   0  0  0  0  0  0  0  0  0  0  0  0
   -3.4503    1.3299    1.1515 C   0  0  0  0  0  0  0  0  0  0  0  0
   -4.6622    1.4449    0.4767 C   0  0  0  0  0  0  0  0  0  0  0  0
   -4.5667    0.9021   -0.7491 N   0  0  0  0  0  0  0  0  0  0  0  0
   -5.6238    0.8246   -1.7638 C   0  0  0  0  0  0  0  0  0  0  0  0
   -6.3587   -0.4669   -1.5417 C   0  0  0  0  0  0  0  0  0  0  0  0
   -5.9940   -1.3614   -0.5015 N   0  0  0  0  0  0  0  0  0  0  0  0
   -7.3266   -0.7570   -2.3061 O   0  0  0  0  0  0  0  0  0  0  0  0
   -3.3286    0.4552   -0.8491 N   0  0  0  0  0  0  0  0  0  0  0  0
   -2.6238    0.6853    0.2548 C   0  0  0  0  0  0  0  0  0  0  0  0
   -0.9266   -2.0603    1.4801 H   0  0  0  0  0  0  0  0  0  0  0  0
    0.1152   -1.6928    2.9619 H   0  0  0  0  0  0  0  0  0  0  0  0
    0.3227   -3.2323    2.1078 H   0  0  0  0  0  0  0  0  0  0  0  0
    2.6177   -2.5600    2.2591 H   0  0  0  0  0  0  0  0  0  0  0  0
    5.7373   -1.0733    0.3385 H   0  0  0  0  0  0  0  0  0  0  0  0
    7.8409    1.2984   -2.5101 H   0  0  0  0  0  0  0  0  0  0  0  0
    5.6507    2.1477   -3.3102 H   0  0  0  0  0  0  0  0  0  0  0  0
    1.7835    0.6474   -1.3191 H   0  0  0  0  0  0  0  0  0  0  0  0
   -0.7341   -0.5019   -1.1723 H   0  0  0  0  0  0  0  0  0  0  0  0
    0.1004    0.6638    2.3085 H   0  0  0  0  0  0  0  0  0  0  0  0
   -1.4226    1.7710    3.7975 H   0  0  0  0  0  0  0  0  0  0  0  0
   -5.5423    1.9091    0.8989 H   0  0  0  0  0  0  0  0  0  0  0  0
   -5.2060    0.7675   -2.7813 H   0  0  0  0  0  0  0  0  0  0  0  0
   -6.3439    1.6405   -1.6836 H   0  0  0  0  0  0  0  0  0  0  0  0
   -6.2946   -2.3430   -0.5532 H   0  0  0  0  0  0  0  0  0  0  0  0
   -5.4233   -0.9721    0.2875 H   0  0  0  0  0  0  0  0  0  0  0  0
  1  2  1  0
  2  3  2  0
  3  4  1  0
  4  5  2  0
  5  6  1  0
  6  7  2  0
  7  8  1  0
  8  9  1  0
  8 10  2  0
 10 11  1  0
 11 12  2  0
 12 13  1  0
  5 14  1  0
 14 15  2  0
 15 16  1  0
 16 17  1  0
 17 18  2  0
 18 19  1  0
 19 20  2  0
 20 21  1  0
 21 22  2  0
 22 23  1  0
 23 24  1  0
 24 25  1  0
 25 26  1  0
 25 27  2  0
 23 28  1  0
 28 29  2  0
 15  2  1  0
 29 17  1  0
 12  6  1  0
 29 21  1  0
  1 30  1  0
  1 31  1  0
  1 32  1  0
  3 33  1  0
  7 34  1  0
 10 35  1  0
 11 36  1  0
 14 37  1  0
 16 38  1  0
 18 39  1  0
 19 40  1  0
 22 41  1  0
 24 42  1  0
 24 43  1  0
 26 44  1  0
 26 45  1  0
M  END
$$$$
