@<TRIPOS>MOLECULE
*****
 60 63 0 0 0
SMALL
GASTEIGER

@<TRIPOS>ATOM
      1 C           7.1379    2.9547    1.2639 C.3     1  UNL1       -0.0252
      2 C           5.8638    2.1989    1.3329 C.3     1  UNL1        0.1054
      3 C           5.7519    1.1774    0.2169 C.3     1  UNL1       -0.0252
      4 C           5.7048    1.4757    2.6469 C.3     1  UNL1       -0.0093
      5 C           4.4468    0.6706    2.6632 C.3     1  UNL1       -0.0206
      6 C           3.3202    1.4406    2.0938 C.ar    1  UNL1       -0.0037
      7 C           2.0183    0.9669    2.2725 C.ar    1  UNL1       -0.0287
      8 C           0.9068    1.6040    1.7565 C.ar    1  UNL1        0.1060
      9 S          -0.6784    0.9609    2.0253 S.O2    1  UNL1        0.0616
     10 O          -0.7402    0.4095    3.4184 O.2     1  UNL1       -0.1528
     11 O          -1.7370    2.0232    1.9254 O.2     1  UNL1       -0.1528
     12 N          -0.9628   -0.3366    0.9237 N.3     1  UNL1       -0.1616
     13 C          -0.9056    0.1168   -0.4486 C.3     1  UNL1        0.1178
     14 C           0.4561   -0.1747   -0.9728 C.2     1  UNL1        0.3207
     15 O           1.2661   -0.8239   -0.2834 O.2     1  UNL1       -0.2495
     16 O           0.8699    0.2559   -2.2245 O.3     1  UNL1       -0.4797
     17 C          -2.0792   -1.1550    1.2458 C.3     1  UNL1        0.0461
     18 C          -3.3004   -0.9491    0.4498 C.ar    1  UNL1       -0.0311
     19 C          -4.2053    0.0210    0.7927 C.ar    1  UNL1       -0.0573
     20 C          -5.3499    0.1629    0.0270 C.ar    1  UNL1       -0.0609
     21 C          -5.5812   -0.6599   -1.0690 C.ar    1  UNL1       -0.0540
     22 C          -4.6851   -1.6455   -1.4335 C.ar    1  UNL1       -0.0176
     23 C          -4.9209   -2.5223   -2.5657 C.ar    1  UNL1       -0.0179
     24 C          -4.4355   -3.8311   -2.5293 C.ar    1  UNL1       -0.0540
     25 C          -4.6208   -4.7294   -3.5535 C.ar    1  UNL1       -0.0612
     26 C          -5.3095   -4.3646   -4.6856 C.ar    1  UNL1       -0.0617
     27 C          -5.8017   -3.0776   -4.7533 C.ar    1  UNL1       -0.0612
     28 C          -5.6080   -2.1744   -3.7070 C.ar    1  UNL1       -0.0540
     29 C          -3.5632   -1.7560   -0.6523 C.ar    1  UNL1       -0.0496
     30 C           1.1236    2.7664    1.0324 C.ar    1  UNL1       -0.0319
     31 C           2.3864    3.2587    0.8388 C.ar    1  UNL1       -0.0178
     32 C           3.4613    2.5900    1.3708 C.ar    1  UNL1        0.1245
     33 O           4.7657    3.0997    1.1673 O.3     1  UNL1       -0.4860
     34 H           7.9488    2.5400    1.8866 H       1  UNL1        0.0268
     35 H           7.5170    2.9299    0.2027 H       1  UNL1        0.0268
     36 H           6.9427    4.0289    1.5439 H       1  UNL1        0.0268
     37 H           6.5717    0.4445    0.2295 H       1  UNL1        0.0268
     38 H           5.7318    1.7186   -0.7708 H       1  UNL1        0.0268
     39 H           4.7926    0.6379    0.2786 H       1  UNL1        0.0268
     40 H           5.6618    2.2171    3.4774 H       1  UNL1        0.0307
     41 H           6.5807    0.8126    2.7790 H       1  UNL1        0.0307
     42 H           4.2649    0.3561    3.7330 H       1  UNL1        0.0316
     43 H           4.5583   -0.3039    2.1157 H       1  UNL1        0.0316
     44 H           1.9123    0.0619    2.8439 H       1  UNL1        0.0641
     45 H          -0.9948    1.2434   -0.4894 H       1  UNL1        0.0559
     46 H          -1.6201   -0.3633   -1.1233 H       1  UNL1        0.0559
     47 H           1.7058   -0.0377   -2.6961 H       1  UNL1        0.2951
     48 H          -2.2720   -1.1180    2.3426 H       1  UNL1        0.0493
     49 H          -1.7688   -2.2260    1.0680 H       1  UNL1        0.0493
     50 H          -4.0703    0.6923    1.6517 H       1  UNL1        0.0621
     51 H          -6.0451    0.9426    0.3245 H       1  UNL1        0.0618
     52 H          -6.4786   -0.5323   -1.6543 H       1  UNL1        0.0624
     53 H          -3.8892   -4.1516   -1.6531 H       1  UNL1        0.0624
     54 H          -4.2267   -5.7571   -3.4845 H       1  UNL1        0.0618
     55 H          -5.4794   -5.0426   -5.5134 H       1  UNL1        0.0618
     56 H          -6.3461   -2.7824   -5.6479 H       1  UNL1        0.0618
     57 H          -5.9908   -1.1789   -3.7722 H       1  UNL1        0.0624
     58 H          -2.8601   -2.5326   -0.9398 H       1  UNL1        0.0627
     59 H           0.2686    3.2807    0.6213 H       1  UNL1        0.0638
     60 H           2.5903    4.1662    0.2764 H       1  UNL1        0.0655
@<TRIPOS>BOND
     1     1     2    1
     2     2     3    1
     3     2     4    1
     4     4     5    1
     5     5     6    1
     6     6     7   ar
     7     7     8   ar
     8     8     9    1
     9     9    10    2
    10     9    11    2
    11     9    12    1
    12    12    13    1
    13    13    14    1
    14    14    15    2
    15    14    16    1
    16    12    17    1
    17    17    18    1
    18    18    19   ar
    19    19    20   ar
    20    20    21   ar
    21    21    22   ar
    22    22    23    1
    23    23    24   ar
    24    24    25   ar
    25    25    26   ar
    26    26    27   ar
    27    27    28   ar
    28    22    29   ar
    29     8    30   ar
    30    30    31   ar
    31    31    32   ar
    32    32    33    1
    33    33     2    1
    34    32     6   ar
    35    29    18   ar
    36    28    23   ar
    37     1    34    1
    38     1    35    1
    39     1    36    1
    40     3    37    1
    41     3    38    1
    42     3    39    1
    43     4    40    1
    44     4    41    1
    45     5    42    1
    46     5    43    1
    47     7    44    1
    48    13    45    1
    49    13    46    1
    50    16    47    1
    51    17    48    1
    52    17    49    1
    53    19    50    1
    54    20    51    1
    55    21    52    1
    56    24    53    1
    57    25    54    1
    58    26    55    1
    59    27    56    1
    60    28    57    1
    61    29    58    1
    62    30    59    1
    63    31    60    1
