
     RDKit          3D

 52 56  0  0  0  0  0  0  0  0999 V2000
   -5.5250   -0.7372    1.1099 C   0  0  1  0  0  0  0  0  0  0  0  0
   -6.4057   -1.9398    1.3475 C   0  0  0  0  0  0  0  0  0  0  0  0
   -4.2521   -1.1004    0.3322 C   0  0  0  0  0  0  0  0  0  0  0  0
   -3.4781    0.0947    0.2517 N   0  0  0  0  0  0  0  0  0  0  0  0
   -4.0359    1.4247    0.3185 C   0  0  0  0  0  0  0  0  0  0  0  0
   -5.5133    1.5168    0.3473 C   0  0  0  0  0  0  0  0  0  0  0  0
   -6.1995    0.2514    0.3057 N   0  0  0  0  0  0  0  0  0  0  0  0
   -2.0668    0.0264    0.0940 C   0  0  0  0  0  0  0  0  0  0  0  0
   -1.4053   -1.1823   -0.0230 C   0  0  0  0  0  0  0  0  0  0  0  0
   -0.0419   -1.2792   -0.1751 C   0  0  0  0  0  0  0  0  0  0  0  0
    0.7390   -0.1392   -0.2177 C   0  0  0  0  0  0  0  0  0  0  0  0
    2.0741   -0.1862   -0.3649 N   0  0  0  0  0  0  0  0  0  0  0  0
    2.8364    0.9228   -0.4066 C   0  0  0  0  0  0  0  0  0  0  0  0
    4.2475    0.8256   -0.5639 N   0  0  0  0  0  0  0  0  0  0  0  0
    4.8579   -0.4560   -0.6780 C   0  0  0  0  0  0  0  0  0  0  0  0
    5.2445   -1.0279    0.5300 C   0  0  0  0  0  0  0  0  0  0  0  0
    5.0530   -0.3857    1.8481 C   0  0  0  0  0  0  0  0  0  0  0  0
    5.8498   -2.2827    0.5030 C   0  0  0  0  0  0  0  0  0  0  0  0
    6.0547   -2.9307   -0.6974 C   0  0  0  0  0  0  0  0  0  0  0  0
    5.6737   -2.3704   -1.9055 C   0  0  0  0  0  0  0  0  0  0  0  0
    5.0694   -1.1167   -1.8736 C   0  0  0  0  0  0  0  0  0  0  0  0
    4.5522   -0.3241   -3.3433 Cl  0  0  0  0  0  0  0  0  0  0  0  0
    2.2168    2.1387   -0.2939 C   0  0  0  0  0  0  0  0  0  0  0  0
    2.6954    3.4238   -0.2982 C   0  0  0  0  0  0  0  0  0  0  0  0
    1.6372    4.2443   -0.1524 N   0  0  0  0  0  0  0  0  0  0  0  0
    0.5139    3.5025   -0.0577 C   0  0  0  0  0  0  0  0  0  0  0  0
    0.8646    2.2049   -0.1441 N   0  0  0  0  0  0  0  0  0  0  0  0
    0.1177    1.0850   -0.1045 C   0  0  0  0  0  0  0  0  0  0  0  0
   -1.2342    1.1194    0.0440 C   0  0  0  0  0  0  0  0  0  0  0  0
   -5.2166   -0.2888    2.0831 H   0  0  0  0  0  0  0  0  0  0  0  0
   -6.4877   -2.4878    0.3887 H   0  0  0  0  0  0  0  0  0  0  0  0
   -7.4203   -1.5327    1.5549 H   0  0  0  0  0  0  0  0  0  0  0  0
   -6.0891   -2.5434    2.2066 H   0  0  0  0  0  0  0  0  0  0  0  0
   -3.7599   -1.9620    0.8208 H   0  0  0  0  0  0  0  0  0  0  0  0
   -4.5471   -1.4439   -0.6840 H   0  0  0  0  0  0  0  0  0  0  0  0
   -3.6223    1.9123    1.2252 H   0  0  0  0  0  0  0  0  0  0  0  0
   -3.5777    1.9805   -0.5522 H   0  0  0  0  0  0  0  0  0  0  0  0
   -5.8448    2.1075   -0.5377 H   0  0  0  0  0  0  0  0  0  0  0  0
   -5.8969    2.0827    1.2383 H   0  0  0  0  0  0  0  0  0  0  0  0
   -6.2533   -0.1108   -0.6787 H   0  0  0  0  0  0  0  0  0  0  0  0
   -1.9111   -2.1133   -0.0032 H   0  0  0  0  0  0  0  0  0  0  0  0
    0.5035   -2.2041   -0.2689 H   0  0  0  0  0  0  0  0  0  0  0  0
    4.8138    1.7014   -0.5929 H   0  0  0  0  0  0  0  0  0  0  0  0
    4.2337   -0.8411    2.4329 H   0  0  0  0  0  0  0  0  0  0  0  0
    4.8347    0.7008    1.7118 H   0  0  0  0  0  0  0  0  0  0  0  0
    5.9746   -0.4197    2.4700 H   0  0  0  0  0  0  0  0  0  0  0  0
    6.1622   -2.7541    1.4297 H   0  0  0  0  0  0  0  0  0  0  0  0
    6.5318   -3.9150   -0.6944 H   0  0  0  0  0  0  0  0  0  0  0  0
    5.8377   -2.8857   -2.8498 H   0  0  0  0  0  0  0  0  0  0  0  0
    3.7374    3.6924   -0.4016 H   0  0  0  0  0  0  0  0  0  0  0  0
   -0.4785    3.8932    0.0649 H   0  0  0  0  0  0  0  0  0  0  0  0
   -1.6642    2.1092    0.1282 H   0  0  0  0  0  0  0  0  0  0  0  0
  1  2  1  0
  1  3  1  0
  3  4  1  0
  4  5  1  0
  5  6  1  0
  6  7  1  0
  4  8  1  0
  8  9  2  0
  9 10  1  0
 10 11  2  0
 11 12  1  0
 12 13  2  0
 13 14  1  0
 14 15  1  0
 15 16  2  0
 16 17  1  0
 16 18  1  0
 18 19  2  0
 19 20  1  0
 20 21  2  0
 21 22  1  0
 13 23  1  0
 23 24  2  0
 24 25  1  0
 25 26  2  0
 26 27  1  0
 27 28  1  0
 28 29  2  0
  7  1  1  0
 29  8  1  0
 28 11  1  0
 21 15  1  0
 27 23  1  0
  1 30  1  1
  2 31  1  0
  2 32  1  0
  2 33  1  0
  3 34  1  0
  3 35  1  0
  5 36  1  0
  5 37  1  0
  6 38  1  0
  6 39  1  0
  7 40  1  0
  9 41  1  0
 10 42  1  0
 14 43  1  0
 17 44  1  0
 17 45  1  0
 17 46  1  0
 18 47  1  0
 19 48  1  0
 20 49  1  0
 24 50  1  0
 26 51  1  0
 29 52  1  0
M  END
$$$$
