@<TRIPOS>MOLECULE
*****
 52 56 0 0 0
SMALL
GASTEIGER

@<TRIPOS>ATOM
      1 C          -5.5250   -0.7372    1.1099 C.3     1  UNL1        0.0205
      2 C          -6.4057   -1.9398    1.3475 C.3     1  UNL1       -0.0482
      3 C          -4.2521   -1.1004    0.3322 C.3     1  UNL1        0.0274
      4 N          -3.4781    0.0947    0.2517 N.pl3   1  UNL1       -0.3272
      5 C          -4.0359    1.4247    0.3185 C.3     1  UNL1        0.0248
      6 C          -5.5133    1.5168    0.3473 C.3     1  UNL1        0.0119
      7 N          -6.1995    0.2514    0.3057 N.3     1  UNL1       -0.3105
      8 C          -2.0668    0.0264    0.0940 C.ar    1  UNL1        0.0319
      9 C          -1.4053   -1.1823   -0.0230 C.ar    1  UNL1       -0.0385
     10 C          -0.0419   -1.2792   -0.1751 C.ar    1  UNL1       -0.0325
     11 C           0.7390   -0.1392   -0.2177 C.ar    1  UNL1        0.0900
     12 N           2.0741   -0.1862   -0.3649 N.ar    1  UNL1       -0.2283
     13 C           2.8364    0.9228   -0.4066 C.ar    1  UNL1        0.1493
     14 N           4.2475    0.8256   -0.5639 N.pl3   1  UNL1       -0.2964
     15 C           4.8579   -0.4560   -0.6780 C.ar    1  UNL1        0.0539
     16 C           5.2445   -1.0279    0.5300 C.ar    1  UNL1       -0.0278
     17 C           5.0530   -0.3857    1.8481 C.3     1  UNL1       -0.0379
     18 C           5.8498   -2.2827    0.5030 C.ar    1  UNL1       -0.0570
     19 C           6.0547   -2.9307   -0.6974 C.ar    1  UNL1       -0.0600
     20 C           5.6737   -2.3704   -1.9055 C.ar    1  UNL1       -0.0416
     21 C           5.0694   -1.1167   -1.8736 C.ar    1  UNL1        0.0624
     22 CL          4.5522   -0.3241   -3.3433 Cl      1  UNL1       -0.0816
     23 C           2.2168    2.1387   -0.2939 C.ar    1  UNL1        0.1063
     24 C           2.6954    3.4238   -0.2982 C.ar    1  UNL1        0.0565
     25 N           1.6372    4.2443   -0.1524 N.ar    1  UNL1       -0.2430
     26 C           0.5139    3.5025   -0.0577 C.ar    1  UNL1        0.1010
     27 N           0.8646    2.2049   -0.1441 N.ar    1  UNL1       -0.2940
     28 C           0.1177    1.0850   -0.1045 C.ar    1  UNL1        0.0752
     29 C          -1.2342    1.1194    0.0440 C.ar    1  UNL1       -0.0147
     30 H          -5.2166   -0.2888    2.0831 H       1  UNL1        0.0473
     31 H          -6.4877   -2.4878    0.3887 H       1  UNL1        0.0245
     32 H          -7.4203   -1.5327    1.5549 H       1  UNL1        0.0245
     33 H          -6.0891   -2.5434    2.2066 H       1  UNL1        0.0245
     34 H          -3.7599   -1.9620    0.8208 H       1  UNL1        0.0479
     35 H          -4.5471   -1.4439   -0.6840 H       1  UNL1        0.0479
     36 H          -3.6223    1.9123    1.2252 H       1  UNL1        0.0476
     37 H          -3.5777    1.9805   -0.5522 H       1  UNL1        0.0476
     38 H          -5.8448    2.1075   -0.5377 H       1  UNL1        0.0439
     39 H          -5.8969    2.0827    1.2383 H       1  UNL1        0.0439
     40 H          -6.2533   -0.1108   -0.6787 H       1  UNL1        0.1223
     41 H          -1.9111   -2.1133   -0.0032 H       1  UNL1        0.0637
     42 H           0.5035   -2.2041   -0.2689 H       1  UNL1        0.0640
     43 H           4.8138    1.7014   -0.5929 H       1  UNL1        0.1537
     44 H           4.2337   -0.8411    2.4329 H       1  UNL1        0.0278
     45 H           4.8347    0.7008    1.7118 H       1  UNL1        0.0278
     46 H           5.9746   -0.4197    2.4700 H       1  UNL1        0.0278
     47 H           6.1622   -2.7541    1.4297 H       1  UNL1        0.0621
     48 H           6.5318   -3.9150   -0.6944 H       1  UNL1        0.0618
     49 H           5.8377   -2.8857   -2.8498 H       1  UNL1        0.0633
     50 H           3.7374    3.6924   -0.4016 H       1  UNL1        0.0852
     51 H          -0.4785    3.8932    0.0649 H       1  UNL1        0.1032
     52 H          -1.6642    2.1092    0.1282 H       1  UNL1        0.0657
@<TRIPOS>BOND
     1     1     2    1
     2     1     3    1
     3     3     4    1
     4     4     5    1
     5     5     6    1
     6     6     7    1
     7     4     8    1
     8     8     9   ar
     9     9    10   ar
    10    10    11   ar
    11    11    12   ar
    12    12    13   ar
    13    13    14    1
    14    14    15    1
    15    15    16   ar
    16    16    17    1
    17    16    18   ar
    18    18    19   ar
    19    19    20   ar
    20    20    21   ar
    21    21    22    1
    22    13    23   ar
    23    23    24   ar
    24    24    25   ar
    25    25    26   ar
    26    26    27   ar
    27    27    28   ar
    28    28    29   ar
    29     7     1    1
    30    29     8   ar
    31    28    11   ar
    32    21    15   ar
    33    27    23   ar
    34     1    30    1
    35     2    31    1
    36     2    32    1
    37     2    33    1
    38     3    34    1
    39     3    35    1
    40     5    36    1
    41     5    37    1
    42     6    38    1
    43     6    39    1
    44     7    40    1
    45     9    41    1
    46    10    42    1
    47    14    43    1
    48    17    44    1
    49    17    45    1
    50    17    46    1
    51    18    47    1
    52    19    48    1
    53    20    49    1
    54    24    50    1
    55    26    51    1
    56    29    52    1
