
     RDKit          3D

 48 52  0  0  0  0  0  0  0  0999 V2000
    2.9809    0.5137   -0.9999 C   0  0  0  0  0  0  0  0  0  0  0  0
    1.8080    0.3627   -0.6728 C   0  0  0  0  0  0  0  0  0  0  0  0
    0.4330    0.2049   -0.2934 C   0  0  0  0  0  0  0  0  0  0  0  0
   -0.5549   -0.1283   -1.1936 C   0  0  0  0  0  0  0  0  0  0  0  0
   -1.8257   -0.2913   -0.8377 N   0  0  0  0  0  0  0  0  0  0  0  0
   -2.1501   -0.1209    0.4593 C   0  0  0  0  0  0  0  0  0  0  0  0
   -3.3859   -0.2394    1.0767 C   0  0  0  0  0  0  0  0  0  0  0  0
   -4.6610   -0.5823    0.4636 C   0  0  0  0  0  0  0  0  0  0  0  0
   -5.0635   -1.9154    0.3460 C   0  0  0  0  0  0  0  0  0  0  0  0
   -6.2733   -2.2570   -0.2410 C   0  0  0  0  0  0  0  0  0  0  0  0
   -7.0450   -1.2548   -0.6942 N   0  0  0  0  0  0  0  0  0  0  0  0
   -6.7096    0.0492   -0.6093 C   0  0  0  0  0  0  0  0  0  0  0  0
   -7.5610    1.0117   -1.0988 C   0  0  0  0  0  0  0  0  0  0  0  0
   -7.2041    2.3301   -1.0025 C   0  0  0  0  0  0  0  0  0  0  0  0
   -6.0132    2.7052   -0.4268 C   0  0  0  0  0  0  0  0  0  0  0  0
   -5.1710    1.7076    0.0601 C   0  0  0  0  0  0  0  0  0  0  0  0
   -5.5084    0.3783   -0.0252 C   0  0  0  0  0  0  0  0  0  0  0  0
   -3.1388    0.0363    2.4096 C   0  0  0  0  0  0  0  0  0  0  0  0
   -1.8188    0.2996    2.5463 N   0  0  0  0  0  0  0  0  0  0  0  0
   -1.2074    0.2058    1.3608 N   0  0  0  0  0  0  0  0  0  0  0  0
    0.0826    0.3761    1.0244 C   0  0  0  0  0  0  0  0  0  0  0  0
    4.3721    0.6695   -1.3771 C   0  0  0  0  0  0  0  0  0  0  0  0
    5.1735    0.2308   -0.2751 N   0  0  0  0  0  0  0  0  0  0  0  0
    5.0969   -1.1848   -0.0263 C   0  0  0  0  0  0  0  0  0  0  0  0
    6.2674   -1.7993   -0.8014 C   0  0  0  0  0  0  0  0  0  0  0  0
    7.5143   -1.4715   -0.1255 N   0  0  0  0  0  0  0  0  0  0  0  0
    7.4211   -0.1683    0.5115 C   0  0  0  0  0  0  0  0  0  0  0  0
    6.5108    0.7592   -0.2677 C   0  0  0  0  0  0  0  0  0  0  0  0
   -0.2979   -0.2692   -2.2458 H   0  0  0  0  0  0  0  0  0  0  0  0
   -4.3782   -2.6400    0.7352 H   0  0  0  0  0  0  0  0  0  0  0  0
   -6.5529   -3.2986   -0.3156 H   0  0  0  0  0  0  0  0  0  0  0  0
   -8.4998    0.7510   -1.5584 H   0  0  0  0  0  0  0  0  0  0  0  0
   -7.8902    3.0729   -1.3962 H   0  0  0  0  0  0  0  0  0  0  0  0
   -5.7654    3.7429   -0.3652 H   0  0  0  0  0  0  0  0  0  0  0  0
   -4.2318    1.9755    0.5136 H   0  0  0  0  0  0  0  0  0  0  0  0
   -3.9143    0.0252    3.1664 H   0  0  0  0  0  0  0  0  0  0  0  0
    0.8593    0.6359    1.7206 H   0  0  0  0  0  0  0  0  0  0  0  0
    4.6134    0.0654   -2.2975 H   0  0  0  0  0  0  0  0  0  0  0  0
    4.6424    1.7189   -1.6114 H   0  0  0  0  0  0  0  0  0  0  0  0
    4.1555   -1.5464   -0.4753 H   0  0  0  0  0  0  0  0  0  0  0  0
    5.2185   -1.4647    1.0178 H   0  0  0  0  0  0  0  0  0  0  0  0
    6.1808   -2.8695   -0.9549 H   0  0  0  0  0  0  0  0  0  0  0  0
    6.3236   -1.2960   -1.7970 H   0  0  0  0  0  0  0  0  0  0  0  0
    8.3354   -1.5596   -0.7479 H   0  0  0  0  0  0  0  0  0  0  0  0
    8.4416    0.2291    0.5845 H   0  0  0  0  0  0  0  0  0  0  0  0
    6.9966   -0.3137    1.5120 H   0  0  0  0  0  0  0  0  0  0  0  0
    6.8481    0.8676   -1.3297 H   0  0  0  0  0  0  0  0  0  0  0  0
    6.5462    1.7457    0.1994 H   0  0  0  0  0  0  0  0  0  0  0  0
  1  2  3  0
  2  3  1  0
  3  4  1  0
  4  5  2  0
  5  6  1  0
  6  7  2  0
  7  8  1  0
  8  9  2  0
  9 10  1  0
 10 11  2  0
 11 12  1  0
 12 13  2  0
 13 14  1  0
 14 15  2  0
 15 16  1  0
 16 17  2  0
  7 18  1  0
 18 19  2  0
 19 20  1  0
 20 21  1  0
  1 22  1  0
 22 23  1  0
 23 24  1  0
 24 25  1  0
 25 26  1  0
 26 27  1  0
 27 28  1  0
 21  3  2  0
 28 23  1  0
 20  6  1  0
 17  8  1  0
 17 12  1  0
  4 29  1  0
  9 30  1  0
 10 31  1  0
 13 32  1  0
 14 33  1  0
 15 34  1  0
 16 35  1  0
 18 36  1  0
 21 37  1  0
 22 38  1  0
 22 39  1  0
 24 40  1  0
 24 41  1  0
 25 42  1  0
 25 43  1  0
 26 44  1  0
 27 45  1  0
 27 46  1  0
 28 47  1  0
 28 48  1  0
M  END
$$$$
