@<TRIPOS>MOLECULE
*****
 48 52 0 0 0
SMALL
GASTEIGER

@<TRIPOS>ATOM
      1 C           2.9809    0.5137   -0.9999 C.1     1  UNL1       -0.0813
      2 C           1.8080    0.3627   -0.6728 C.1     1  UNL1       -0.0620
      3 C           0.4330    0.2049   -0.2934 C.ar    1  UNL1        0.0612
      4 C          -0.5549   -0.1283   -1.1936 C.ar    1  UNL1        0.0468
      5 N          -1.8257   -0.2913   -0.8377 N.ar    1  UNL1       -0.2343
      6 C          -2.1501   -0.1209    0.4593 C.ar    1  UNL1        0.1632
      7 C          -3.3859   -0.2394    1.0767 C.ar    1  UNL1        0.0467
      8 C          -4.6610   -0.5823    0.4636 C.ar    1  UNL1       -0.0022
      9 C          -5.0635   -1.9154    0.3460 C.ar    1  UNL1       -0.0351
     10 C          -6.2733   -2.2570   -0.2410 C.ar    1  UNL1        0.0288
     11 N          -7.0450   -1.2548   -0.6942 N.ar    1  UNL1       -0.2549
     12 C          -6.7096    0.0492   -0.6093 C.ar    1  UNL1        0.0715
     13 C          -7.5610    1.0117   -1.0988 C.ar    1  UNL1       -0.0357
     14 C          -7.2041    2.3301   -1.0025 C.ar    1  UNL1       -0.0597
     15 C          -6.0132    2.7052   -0.4268 C.ar    1  UNL1       -0.0611
     16 C          -5.1710    1.7076    0.0601 C.ar    1  UNL1       -0.0520
     17 C          -5.5084    0.3783   -0.0252 C.ar    1  UNL1        0.0082
     18 C          -3.1388    0.0363    2.4096 C.ar    1  UNL1        0.0597
     19 N          -1.8188    0.2996    2.5463 N.ar    1  UNL1       -0.1727
     20 N          -1.2074    0.2058    1.3608 N.ar    1  UNL1       -0.2200
     21 C           0.0826    0.3761    1.0244 C.ar    1  UNL1        0.0483
     22 C           4.3721    0.6695   -1.3771 C.3     1  UNL1        0.0613
     23 N           5.1735    0.2308   -0.2751 N.3     1  UNL1       -0.2891
     24 C           5.0969   -1.1848   -0.0263 C.3     1  UNL1        0.0124
     25 C           6.2674   -1.7993   -0.8014 C.3     1  UNL1        0.0088
     26 N           7.5143   -1.4715   -0.1255 N.3     1  UNL1       -0.3136
     27 C           7.4211   -0.1683    0.5115 C.3     1  UNL1        0.0088
     28 C           6.5108    0.7592   -0.2677 C.3     1  UNL1        0.0124
     29 H          -0.2979   -0.2692   -2.2458 H       1  UNL1        0.0843
     30 H          -4.3782   -2.6400    0.7352 H       1  UNL1        0.0639
     31 H          -6.5529   -3.2986   -0.3156 H       1  UNL1        0.0830
     32 H          -8.4998    0.7510   -1.5584 H       1  UNL1        0.0639
     33 H          -7.8902    3.0729   -1.3962 H       1  UNL1        0.0618
     34 H          -5.7654    3.7429   -0.3652 H       1  UNL1        0.0618
     35 H          -4.2318    1.9755    0.5136 H       1  UNL1        0.0624
     36 H          -3.9143    0.0252    3.1664 H       1  UNL1        0.0855
     37 H           0.8593    0.6359    1.7206 H       1  UNL1        0.0844
     38 H           4.6134    0.0654   -2.2975 H       1  UNL1        0.0563
     39 H           4.6424    1.7189   -1.6114 H       1  UNL1        0.0563
     40 H           4.1555   -1.5464   -0.4753 H       1  UNL1        0.0439
     41 H           5.2185   -1.4647    1.0178 H       1  UNL1        0.0439
     42 H           6.1808   -2.8695   -0.9549 H       1  UNL1        0.0437
     43 H           6.3236   -1.2960   -1.7970 H       1  UNL1        0.0437
     44 H           8.3354   -1.5596   -0.7479 H       1  UNL1        0.1220
     45 H           8.4416    0.2291    0.5845 H       1  UNL1        0.0437
     46 H           6.9966   -0.3137    1.5120 H       1  UNL1        0.0437
     47 H           6.8481    0.8676   -1.3297 H       1  UNL1        0.0439
     48 H           6.5462    1.7457    0.1994 H       1  UNL1        0.0439
@<TRIPOS>BOND
     1     1     2    3
     2     2     3    1
     3     3     4   ar
     4     4     5   ar
     5     5     6   ar
     6     6     7   ar
     7     7     8    1
     8     8     9   ar
     9     9    10   ar
    10    10    11   ar
    11    11    12   ar
    12    12    13   ar
    13    13    14   ar
    14    14    15   ar
    15    15    16   ar
    16    16    17   ar
    17     7    18   ar
    18    18    19   ar
    19    19    20   ar
    20    20    21   ar
    21     1    22    1
    22    22    23    1
    23    23    24    1
    24    24    25    1
    25    25    26    1
    26    26    27    1
    27    27    28    1
    28    21     3   ar
    29    28    23    1
    30    20     6   ar
    31    17     8   ar
    32    17    12   ar
    33     4    29    1
    34     9    30    1
    35    10    31    1
    36    13    32    1
    37    14    33    1
    38    15    34    1
    39    16    35    1
    40    18    36    1
    41    21    37    1
    42    22    38    1
    43    22    39    1
    44    24    40    1
    45    24    41    1
    46    25    42    1
    47    25    43    1
    48    26    44    1
    49    27    45    1
    50    27    46    1
    51    28    47    1
    52    28    48    1
