@<TRIPOS>MOLECULE
*****
 62 67 0 0 0
SMALL
GASTEIGER

@<TRIPOS>ATOM
      1 N          -4.6874    3.6179    1.2735 N.pl3   1  UNL1       -0.3426
      2 C          -3.4804    4.3393    1.2940 C.ar    1  UNL1        0.1268
      3 N          -3.5278    5.6523    1.5443 N.ar    1  UNL1       -0.2400
      4 C          -2.4013    6.3839    1.5746 C.ar    1  UNL1        0.0297
      5 C          -1.2004    5.7726    1.3466 C.ar    1  UNL1       -0.0428
      6 C          -1.1369    4.4030    1.0842 C.ar    1  UNL1       -0.0464
      7 C          -2.2816    3.6551    1.0525 C.ar    1  UNL1        0.0573
      8 C          -2.3148    2.2325    0.7889 C.ar    1  UNL1        0.1508
      9 N          -3.4874    1.5064    0.7634 N.ar    1  UNL1       -0.2254
     10 C          -3.2368    0.2212    0.4987 C.ar    1  UNL1        0.1095
     11 C          -3.9866   -0.9111    0.3568 C.ar    1  UNL1       -0.0235
     12 C          -3.4166   -2.1273    0.0746 C.ar    1  UNL1        0.0024
     13 C          -4.2740   -3.2925   -0.0629 C.ar    1  UNL1       -0.0164
     14 C          -3.9297   -4.3198   -0.9169 C.ar    1  UNL1       -0.0540
     15 C          -4.7668   -5.4050   -1.0179 C.ar    1  UNL1       -0.0612
     16 C          -5.9325   -5.4873   -0.2902 C.ar    1  UNL1       -0.0617
     17 C          -6.2855   -4.4649    0.5666 C.ar    1  UNL1       -0.0612
     18 C          -5.4572   -3.3800    0.6734 C.ar    1  UNL1       -0.0540
     19 C          -2.0397   -2.1627   -0.0620 C.ar    1  UNL1        0.0377
     20 N          -1.2838   -1.0622    0.0734 N.ar    1  UNL1       -0.2349
     21 C          -1.8740    0.1143    0.3500 C.ar    1  UNL1        0.1653
     22 N          -1.3416    1.3772    0.5366 N.ar    1  UNL1       -0.2767
     23 C           0.0472    1.6004    0.4473 C.ar    1  UNL1        0.0500
     24 C           0.9072    1.4919    1.5197 C.ar    1  UNL1       -0.0374
     25 C           2.2637    1.6928    1.3603 C.ar    1  UNL1       -0.0551
     26 C           2.8381    2.0071    0.1491 C.ar    1  UNL1       -0.0302
     27 C           4.2912    2.2194   -0.0676 C.3     1  UNL1        0.0371
     28 N           4.8869    0.9709   -0.5056 N.am    1  UNL1       -0.3072
     29 C           5.2033   -0.1203    0.3311 C.2     1  UNL1        0.2443
     30 O           4.9582   -0.0194    1.5640 O.2     1  UNL1       -0.2702
     31 C           5.7976   -1.3540   -0.1597 C.ar    1  UNL1        0.0367
     32 C           6.0849   -2.3822    0.7395 C.ar    1  UNL1       -0.0496
     33 C           6.6416   -3.5802    0.3890 C.ar    1  UNL1       -0.0610
     34 C           6.9416   -3.7888   -0.9521 C.ar    1  UNL1       -0.0617
     35 C           6.6798   -2.8081   -1.8859 C.ar    1  UNL1       -0.0610
     36 C           6.1092   -1.5996   -1.4752 C.ar    1  UNL1       -0.0496
     37 C           1.9631    2.1176   -0.9415 C.ar    1  UNL1       -0.0551
     38 C           0.6141    1.9190   -0.7878 C.ar    1  UNL1       -0.0374
     39 H          -5.1512    3.3391    2.1528 H       1  UNL1        0.1437
     40 H          -5.1175    3.3625    0.3701 H       1  UNL1        0.1437
     41 H          -2.4613    7.4614    1.7819 H       1  UNL1        0.0830
     42 H          -0.2725    6.3647    1.3696 H       1  UNL1        0.0633
     43 H          -0.1591    3.9918    0.9145 H       1  UNL1        0.0626
     44 H          -5.0556   -0.8530    0.4678 H       1  UNL1        0.0646
     45 H          -3.0264   -4.2993   -1.5071 H       1  UNL1        0.0624
     46 H          -4.5261   -6.2369   -1.6840 H       1  UNL1        0.0618
     47 H          -6.5630   -6.3514   -0.3948 H       1  UNL1        0.0618
     48 H          -7.2083   -4.5590    1.1252 H       1  UNL1        0.0618
     49 H          -5.7067   -2.5758    1.3295 H       1  UNL1        0.0624
     50 H          -1.6093   -3.1439   -0.2869 H       1  UNL1        0.0836
     51 H           0.4926    1.2459    2.4874 H       1  UNL1        0.0638
     52 H           2.9252    1.6081    2.2407 H       1  UNL1        0.0621
     53 H           4.7462    2.5447    0.9066 H       1  UNL1        0.0512
     54 H           4.4856    2.9822   -0.8304 H       1  UNL1        0.0512
     55 H           5.1160    0.8375   -1.5402 H       1  UNL1        0.1493
     56 H           5.8411   -2.1983    1.7910 H       1  UNL1        0.0625
     57 H           6.8496   -4.3565    1.1233 H       1  UNL1        0.0618
     58 H           7.3793   -4.7309   -1.2274 H       1  UNL1        0.0618
     59 H           6.9228   -2.9968   -2.9203 H       1  UNL1        0.0618
     60 H           5.9084   -0.8362   -2.2224 H       1  UNL1        0.0625
     61 H           2.3819    2.3672   -1.9244 H       1  UNL1        0.0621
     62 H          -0.0764    2.0033   -1.6339 H       1  UNL1        0.0638
@<TRIPOS>BOND
     1     1     2    1
     2     2     3   ar
     3     3     4   ar
     4     4     5   ar
     5     5     6   ar
     6     6     7   ar
     7     7     8    1
     8     8     9   ar
     9     9    10   ar
    10    10    11   ar
    11    11    12   ar
    12    12    13    1
    13    13    14   ar
    14    14    15   ar
    15    15    16   ar
    16    16    17   ar
    17    17    18   ar
    18    12    19   ar
    19    19    20   ar
    20    20    21   ar
    21    21    22   ar
    22    22    23    1
    23    23    24   ar
    24    24    25   ar
    25    25    26   ar
    26    26    27    1
    27    27    28    1
    28    28    29   am
    29    29    30    2
    30    29    31    1
    31    31    32   ar
    32    32    33   ar
    33    33    34   ar
    34    34    35   ar
    35    35    36   ar
    36    26    37   ar
    37    37    38   ar
    38     7     2   ar
    39    22     8   ar
    40    38    23   ar
    41    21    10   ar
    42    36    31   ar
    43    18    13   ar
    44     1    39    1
    45     1    40    1
    46     4    41    1
    47     5    42    1
    48     6    43    1
    49    11    44    1
    50    14    45    1
    51    15    46    1
    52    16    47    1
    53    17    48    1
    54    18    49    1
    55    19    50    1
    56    24    51    1
    57    25    52    1
    58    27    53    1
    59    27    54    1
    60    28    55    1
    61    32    56    1
    62    33    57    1
    63    34    58    1
    64    35    59    1
    65    36    60    1
    66    37    61    1
    67    38    62    1
