@<TRIPOS>MOLECULE
*****
 66 71 0 0 0
SMALL
GASTEIGER

@<TRIPOS>ATOM
      1 C          11.9836    0.3825    0.9558 C.1     1  UNL1       -0.1158
      2 C          11.3540    1.1134    0.2699 C.1     1  UNL1       -0.0647
      3 C          10.5926    2.0226   -0.5518 C.3     1  UNL1        0.1513
      4 O           9.5160    1.5987   -1.2804 O.3     1  UNL1       -0.4624
      5 C           8.3464    1.0682   -0.8641 C.ar    1  UNL1        0.2344
      6 C           7.4093    0.8406   -2.0638 C.ar    1  UNL1        0.0899
      7 N           6.3024    0.3467   -1.6745 N.ar    1  UNL1       -0.2459
      8 C           5.7599   -0.0189   -0.5561 C.ar    1  UNL1        0.1172
      9 C           4.3937   -0.4338   -0.3488 C.2     1  UNL1        0.1507
     10 F           3.4528   -0.4628   -1.3865 F       1  UNL1       -0.2032
     11 C           3.9005   -0.7473    0.8354 C.2     1  UNL1       -0.0157
     12 C           2.5571   -1.1618    1.1435 C.ar    1  UNL1       -0.0036
     13 C           2.2448   -2.1363    2.1188 C.ar    1  UNL1        0.0379
     14 N           0.9858   -2.3670    2.4887 N.ar    1  UNL1       -0.2267
     15 C          -0.0752   -1.6960    1.9581 C.ar    1  UNL1        0.2187
     16 F          -1.3291   -1.9114    2.4161 F       1  UNL1       -0.1835
     17 C           0.1920   -0.7498    0.9998 C.ar    1  UNL1        0.0349
     18 C          -0.9512    0.1100    0.5213 C.3     1  UNL1        0.0950
     19 C          -1.0736    1.1052    1.7623 C.3     1  UNL1       -0.0351
     20 N          -0.5428    1.0067   -0.5089 N.2     1  UNL1       -0.2520
     21 C          -0.8005    0.9805   -1.7492 C.2     1  UNL1        0.1485
     22 N          -0.2883    1.9785   -2.6392 N.pl3   1  UNL1       -0.3380
     23 S          -1.8212   -0.3230   -2.3536 S.3     1  UNL1       -0.0746
     24 C          -2.8614   -0.8210   -0.9121 C.3     1  UNL1        0.1054
     25 C          -4.2723   -0.6466   -1.1664 C.2     1  UNL1        0.2332
     26 O          -4.5692   -1.0752   -2.4243 O.2     1  UNL1       -0.2740
     27 N          -5.3838   -0.1946   -0.5318 N.am    1  UNL1       -0.2854
     28 C          -6.6966   -0.4294   -1.2073 C.3     1  UNL1        0.0731
     29 C          -7.6251   -0.9650   -0.1554 C.3     1  UNL1        0.0685
     30 O          -6.9225   -1.3497    0.9962 O.3     1  UNL1       -0.3759
     31 C          -6.4885   -0.1665    1.6123 C.3     1  UNL1        0.0685
     32 C          -5.5221    0.5738    0.6781 C.3     1  UNL1        0.0731
     33 C          -6.3138    1.8352    0.2390 C.3     1  UNL1        0.0685
     34 O          -6.3762    1.9333   -1.1601 O.3     1  UNL1       -0.3759
     35 C          -7.1473    0.9095   -1.7003 C.3     1  UNL1        0.0685
     36 C          -2.3459   -1.9768   -0.1209 C.3     1  UNL1       -0.0220
     37 C          -2.2532   -0.5870    0.3988 C.3     1  UNL1        0.0135
     38 C           1.4555   -0.4934    0.6016 C.ar    1  UNL1       -0.0433
     39 C           6.6091    0.1689    0.5750 C.ar    1  UNL1        0.0596
     40 N           7.8115    0.7015    0.2475 N.ar    1  UNL1       -0.2178
     41 H          12.5773   -0.2945    1.5880 H       1  UNL1        0.1229
     42 H          11.2143    2.7792   -1.0870 H       1  UNL1        0.0837
     43 H          10.1524    2.7844    0.2664 H       1  UNL1        0.0837
     44 H           7.8675    1.2111   -2.9468 H       1  UNL1        0.0884
     45 H           4.5884   -0.6444    1.6852 H       1  UNL1        0.0653
     46 H           3.0740   -2.6957    2.5273 H       1  UNL1        0.0836
     47 H          -2.0820    1.5922    1.5654 H       1  UNL1        0.0256
     48 H          -1.1597    0.5378    2.6734 H       1  UNL1        0.0256
     49 H          -0.2370    1.7955    1.6668 H       1  UNL1        0.0256
     50 H          -0.2802    2.9479   -2.2764 H       1  UNL1        0.1442
     51 H           0.0459    1.7122   -3.5654 H       1  UNL1        0.1442
     52 H          -6.5768   -1.1504   -2.0423 H       1  UNL1        0.0546
     53 H          -8.3497   -0.1727    0.1608 H       1  UNL1        0.0579
     54 H          -8.2349   -1.8112   -0.5225 H       1  UNL1        0.0579
     55 H          -7.4408    0.4132    1.7749 H       1  UNL1        0.0579
     56 H          -6.0847   -0.2779    2.5985 H       1  UNL1        0.0579
     57 H          -4.6204    0.8719    1.1749 H       1  UNL1        0.0546
     58 H          -7.3227    1.8737    0.6988 H       1  UNL1        0.0579
     59 H          -5.7467    2.7045    0.5715 H       1  UNL1        0.0579
     60 H          -6.9971    1.0050   -2.8170 H       1  UNL1        0.0579
     61 H          -8.2218    1.1210   -1.5331 H       1  UNL1        0.0579
     62 H          -3.1170   -2.6624    0.1723 H       1  UNL1        0.0287
     63 H          -1.4449   -2.4907   -0.5637 H       1  UNL1        0.0287
     64 H          -2.8804   -0.4881    1.3389 H       1  UNL1        0.0346
     65 H           1.6988    0.2181   -0.1475 H       1  UNL1        0.0629
     66 H           6.3709   -0.0851    1.5760 H       1  UNL1        0.0853
@<TRIPOS>BOND
     1     1     2    3
     2     2     3    1
     3     3     4    1
     4     4     5    1
     5     5     6   ar
     6     6     7   ar
     7     7     8   ar
     8     8     9    1
     9     9    10    1
    10     9    11    2
    11    11    12    1
    12    12    13   ar
    13    13    14   ar
    14    14    15   ar
    15    15    16    1
    16    15    17   ar
    17    17    18    1
    18    18    19    1
    19    18    20    1
    20    20    21    2
    21    21    22    1
    22    21    23    1
    23    23    24    1
    24    24    25    1
    25    25    26    2
    26    25    27   am
    27    27    28    1
    28    28    29    1
    29    29    30    1
    30    30    31    1
    31    31    32    1
    32    32    33    1
    33    33    34    1
    34    34    35    1
    35    24    36    1
    36    36    37    1
    37    17    38   ar
    38     8    39   ar
    39    39    40   ar
    40    40     5   ar
    41    38    12   ar
    42    37    18    1
    43    37    24    1
    44    32    27    1
    45    35    28    1
    46     1    41    1
    47     3    42    1
    48     3    43    1
    49     6    44    1
    50    11    45    1
    51    13    46    1
    52    19    47    1
    53    19    48    1
    54    19    49    1
    55    22    50    1
    56    22    51    1
    57    28    52    1
    58    29    53    1
    59    29    54    1
    60    31    55    1
    61    31    56    1
    62    32    57    1
    63    33    58    1
    64    33    59    1
    65    35    60    1
    66    35    61    1
    67    36    62    1
    68    36    63    1
    69    37    64    1
    70    38    65    1
    71    39    66    1
