
     RDKit          3D

 66 71  0  0  0  0  0  0  0  0999 V2000
   11.9836    0.3825    0.9558 C   0  0  0  0  0  0  0  0  0  0  0  0
   11.3540    1.1134    0.2699 C   0  0  0  0  0  0  0  0  0  0  0  0
   10.5926    2.0226   -0.5518 C   0  0  0  0  0  0  0  0  0  0  0  0
    9.5160    1.5987   -1.2804 O   0  0  0  0  0  0  0  0  0  0  0  0
    8.3464    1.0682   -0.8641 C   0  0  0  0  0  0  0  0  0  0  0  0
    7.4093    0.8406   -2.0638 C   0  0  0  0  0  0  0  0  0  0  0  0
    6.3024    0.3467   -1.6745 N   0  0  0  0  0  0  0  0  0  0  0  0
    5.7599   -0.0189   -0.5561 C   0  0  0  0  0  0  0  0  0  0  0  0
    4.3937   -0.4338   -0.3488 C   0  0  0  0  0  0  0  0  0  0  0  0
    3.4528   -0.4628   -1.3865 F   0  0  0  0  0  0  0  0  0  0  0  0
    3.9005   -0.7473    0.8354 C   0  0  0  0  0  0  0  0  0  0  0  0
    2.5571   -1.1618    1.1435 C   0  0  0  0  0  0  0  0  0  0  0  0
    2.2448   -2.1363    2.1188 C   0  0  0  0  0  0  0  0  0  0  0  0
    0.9858   -2.3670    2.4887 N   0  0  0  0  0  0  0  0  0  0  0  0
   -0.0752   -1.6960    1.9581 C   0  0  0  0  0  0  0  0  0  0  0  0
   -1.3291   -1.9114    2.4161 F   0  0  0  0  0  0  0  0  0  0  0  0
    0.1920   -0.7498    0.9998 C   0  0  0  0  0  0  0  0  0  0  0  0
   -0.9512    0.1100    0.5213 C   0  0  1  0  0  0  0  0  0  0  0  0
   -1.0736    1.1052    1.7623 C   0  0  0  0  0  0  0  0  0  0  0  0
   -0.5428    1.0067   -0.5089 N   0  0  0  0  0  0  0  0  0  0  0  0
   -0.8005    0.9805   -1.7492 C   0  0  0  0  0  0  0  0  0  0  0  0
   -0.2883    1.9785   -2.6392 N   0  0  0  0  0  0  0  0  0  0  0  0
   -1.8212   -0.3230   -2.3536 S   0  0  0  0  0  0  0  0  0  0  0  0
   -2.8614   -0.8210   -0.9121 C   0  0  1  0  0  0  0  0  0  0  0  0
   -4.2723   -0.6466   -1.1664 C   0  0  0  0  0  0  0  0  0  0  0  0
   -4.5692   -1.0752   -2.4243 O   0  0  0  0  0  0  0  0  0  0  0  0
   -5.3838   -0.1946   -0.5318 N   0  0  0  0  0  0  0  0  0  0  0  0
   -6.6966   -0.4294   -1.2073 C   0  0  1  0  0  0  0  0  0  0  0  0
   -7.6251   -0.9650   -0.1554 C   0  0  0  0  0  0  0  0  0  0  0  0
   -6.9225   -1.3497    0.9962 O   0  0  0  0  0  0  0  0  0  0  0  0
   -6.4885   -0.1665    1.6123 C   0  0  0  0  0  0  0  0  0  0  0  0
   -5.5221    0.5738    0.6781 C   0  0  2  0  0  0  0  0  0  0  0  0
   -6.3138    1.8352    0.2390 C   0  0  0  0  0  0  0  0  0  0  0  0
   -6.3762    1.9333   -1.1601 O   0  0  0  0  0  0  0  0  0  0  0  0
   -7.1473    0.9095   -1.7003 C   0  0  0  0  0  0  0  0  0  0  0  0
   -2.3459   -1.9768   -0.1209 C   0  0  0  0  0  0  0  0  0  0  0  0
   -2.2532   -0.5870    0.3988 C   0  0  1  0  0  0  0  0  0  0  0  0
    1.4555   -0.4934    0.6016 C   0  0  0  0  0  0  0  0  0  0  0  0
    6.6091    0.1689    0.5750 C   0  0  0  0  0  0  0  0  0  0  0  0
    7.8115    0.7015    0.2475 N   0  0  0  0  0  0  0  0  0  0  0  0
   12.5773   -0.2945    1.5880 H   0  0  0  0  0  0  0  0  0  0  0  0
   11.2143    2.7792   -1.0870 H   0  0  0  0  0  0  0  0  0  0  0  0
   10.1524    2.7844    0.2664 H   0  0  0  0  0  0  0  0  0  0  0  0
    7.8675    1.2111   -2.9468 H   0  0  0  0  0  0  0  0  0  0  0  0
    4.5884   -0.6444    1.6852 H   0  0  0  0  0  0  0  0  0  0  0  0
    3.0740   -2.6957    2.5273 H   0  0  0  0  0  0  0  0  0  0  0  0
   -2.0820    1.5922    1.5654 H   0  0  0  0  0  0  0  0  0  0  0  0
   -1.1597    0.5378    2.6734 H   0  0  0  0  0  0  0  0  0  0  0  0
   -0.2370    1.7955    1.6668 H   0  0  0  0  0  0  0  0  0  0  0  0
   -0.2802    2.9479   -2.2764 H   0  0  0  0  0  0  0  0  0  0  0  0
    0.0459    1.7122   -3.5654 H   0  0  0  0  0  0  0  0  0  0  0  0
   -6.5768   -1.1504   -2.0423 H   0  0  0  0  0  0  0  0  0  0  0  0
   -8.3497   -0.1727    0.1608 H   0  0  0  0  0  0  0  0  0  0  0  0
   -8.2349   -1.8112   -0.5225 H   0  0  0  0  0  0  0  0  0  0  0  0
   -7.4408    0.4132    1.7749 H   0  0  0  0  0  0  0  0  0  0  0  0
   -6.0847   -0.2779    2.5985 H   0  0  0  0  0  0  0  0  0  0  0  0
   -4.6204    0.8719    1.1749 H   0  0  0  0  0  0  0  0  0  0  0  0
   -7.3227    1.8737    0.6988 H   0  0  0  0  0  0  0  0  0  0  0  0
   -5.7467    2.7045    0.5715 H   0  0  0  0  0  0  0  0  0  0  0  0
   -6.9971    1.0050   -2.8170 H   0  0  0  0  0  0  0  0  0  0  0  0
   -8.2218    1.1210   -1.5331 H   0  0  0  0  0  0  0  0  0  0  0  0
   -3.1170   -2.6624    0.1723 H   0  0  0  0  0  0  0  0  0  0  0  0
   -1.4449   -2.4907   -0.5637 H   0  0  0  0  0  0  0  0  0  0  0  0
   -2.8804   -0.4881    1.3389 H   0  0  0  0  0  0  0  0  0  0  0  0
    1.6988    0.2181   -0.1475 H   0  0  0  0  0  0  0  0  0  0  0  0
    6.3709   -0.0851    1.5760 H   0  0  0  0  0  0  0  0  0  0  0  0
  1  2  3  0
  2  3  1  0
  3  4  1  0
  4  5  1  0
  5  6  2  0
  6  7  1  0
  7  8  2  0
  8  9  1  0
  9 10  1  0
  9 11  2  0
 11 12  1  0
 12 13  2  0
 13 14  1  0
 14 15  2  0
 15 16  1  0
 15 17  1  0
 17 18  1  0
 18 19  1  1
 18 20  1  0
 20 21  2  0
 21 22  1  0
 21 23  1  0
 23 24  1  0
 24 25  1  1
 25 26  2  0
 25 27  1  0
 27 28  1  0
 28 29  1  0
 29 30  1  0
 30 31  1  0
 31 32  1  0
 32 33  1  0
 33 34  1  0
 34 35  1  0
 24 36  1  0
 36 37  1  0
 17 38  2  0
  8 39  1  0
 39 40  2  0
 40  5  1  0
 38 12  1  0
 37 18  1  0
 37 24  1  0
 32 27  1  0
 35 28  1  0
  1 41  1  0
  3 42  1  0
  3 43  1  0
  6 44  1  0
 11 45  1  0
 13 46  1  0
 19 47  1  0
 19 48  1  0
 19 49  1  0
 22 50  1  0
 22 51  1  0
 28 52  1  6
 29 53  1  0
 29 54  1  0
 31 55  1  0
 31 56  1  0
 32 57  1  1
 33 58  1  0
 33 59  1  0
 35 60  1  0
 35 61  1  0
 36 62  1  0
 36 63  1  0
 37 64  1  1
 38 65  1  0
 39 66  1  0
M  END
$$$$
