@<TRIPOS>MOLECULE
*****
 48 52 0 0 0
SMALL
GASTEIGER

@<TRIPOS>ATOM
      1 C           7.6576    2.4797   -0.0276 C.3     1  UNL1        0.0805
      2 O           7.0537    1.6973    0.9984 O.3     1  UNL1       -0.4786
      3 C           5.7441    1.2514    0.7802 C.ar    1  UNL1        0.2338
      4 C           5.0959    0.4897    1.7277 C.ar    1  UNL1        0.0899
      5 N           3.8399    0.0433    1.5546 N.ar    1  UNL1       -0.2447
      6 C           3.1785    0.3380    0.4296 C.ar    1  UNL1        0.1293
      7 C           1.8655   -0.1226    0.2362 C.ar    1  UNL1        0.1506
      8 N           1.2547   -0.9116    1.2434 N.pl3   1  UNL1       -0.2976
      9 C          -0.0543   -1.3850    1.1611 C.ar    1  UNL1        0.0343
     10 C          -0.4127   -2.4034    2.0554 C.ar    1  UNL1       -0.0193
     11 C          -1.6619   -2.9487    2.0896 C.ar    1  UNL1        0.0782
     12 CL         -2.0592   -4.2203    3.2275 Cl      1  UNL1       -0.0805
     13 C          -2.6322   -2.4785    1.1988 C.ar    1  UNL1        0.1473
     14 F          -3.8869   -3.0479    1.3065 F       1  UNL1       -0.2036
     15 C          -2.3337   -1.4934    0.3117 C.ar    1  UNL1        0.0213
     16 C          -3.3585   -1.0164   -0.6545 C.3     1  UNL1        0.1285
     17 C          -3.7760   -2.1103   -1.6002 C.3     1  UNL1        0.1199
     18 F          -4.3305   -3.2157   -1.0370 F       1  UNL1       -0.2462
     19 N          -4.4648   -0.5546    0.0866 N.2     1  UNL1       -0.2225
     20 C          -4.6473    0.6406    0.4692 C.2     1  UNL1        0.2763
     21 N          -5.8054    1.0465    1.2296 N.pl3   1  UNL1       -0.3134
     22 O          -3.6755    1.5879    0.1288 O.2     1  UNL1       -0.4622
     23 C          -3.0407    1.4491   -1.1332 C.3     1  UNL1        0.1090
     24 C          -3.7889    0.8881   -2.2838 C.3     1  UNL1       -0.0065
     25 C          -2.7608    0.0826   -1.5301 C.3     1  UNL1        0.0315
     26 C          -1.0456   -0.9636    0.3113 C.ar    1  UNL1       -0.0321
     27 N           1.3069    0.2291   -0.9154 N.ar    1  UNL1       -0.2379
     28 C           1.8544    0.9609   -1.8881 C.ar    1  UNL1        0.0318
     29 C           3.1470    1.4139   -1.6967 C.ar    1  UNL1       -0.0158
     30 C           3.8107    1.0926   -0.5171 C.ar    1  UNL1        0.0978
     31 N           5.0726    1.5474   -0.3556 N.ar    1  UNL1       -0.2099
     32 H           7.1270    3.4605   -0.1469 H       1  UNL1        0.0660
     33 H           7.5333    1.9314   -0.9862 H       1  UNL1        0.0660
     34 H           8.7273    2.6086    0.1792 H       1  UNL1        0.0660
     35 H           5.6689    0.2662    2.6398 H       1  UNL1        0.0884
     36 H           1.8305   -1.1373    2.0851 H       1  UNL1        0.1536
     37 H           0.3158   -2.8003    2.7692 H       1  UNL1        0.0652
     38 H          -2.8811   -2.4786   -2.1955 H       1  UNL1        0.0643
     39 H          -4.4466   -1.7015   -2.4122 H       1  UNL1        0.0643
     40 H          -6.5127    1.6735    0.8065 H       1  UNL1        0.1466
     41 H          -5.9550    0.7233    2.2076 H       1  UNL1        0.1466
     42 H          -2.3260    2.2597   -1.3584 H       1  UNL1        0.0737
     43 H          -4.8762    0.6927   -2.1045 H       1  UNL1        0.0306
     44 H          -3.5830    1.2479   -3.3046 H       1  UNL1        0.0306
     45 H          -1.8691   -0.1380   -2.1280 H       1  UNL1        0.0365
     46 H          -0.8582   -0.1856   -0.3931 H       1  UNL1        0.0640
     47 H           1.3295    1.2110   -2.8129 H       1  UNL1        0.0831
     48 H           3.6289    2.0004   -2.4406 H       1  UNL1        0.0655
@<TRIPOS>BOND
     1     1     2    1
     2     2     3    1
     3     3     4   ar
     4     4     5   ar
     5     5     6   ar
     6     6     7   ar
     7     7     8    1
     8     8     9    1
     9     9    10   ar
    10    10    11   ar
    11    11    12    1
    12    11    13   ar
    13    13    14    1
    14    13    15   ar
    15    15    16    1
    16    16    17    1
    17    17    18    1
    18    16    19    1
    19    19    20    2
    20    20    21    1
    21    20    22    1
    22    22    23    1
    23    23    24    1
    24    24    25    1
    25    15    26   ar
    26     7    27   ar
    27    27    28   ar
    28    28    29   ar
    29    29    30   ar
    30    30    31   ar
    31    31     3   ar
    32    30     6   ar
    33    26     9   ar
    34    25    16    1
    35    25    23    1
    36     1    32    1
    37     1    33    1
    38     1    34    1
    39     4    35    1
    40     8    36    1
    41    10    37    1
    42    17    38    1
    43    17    39    1
    44    21    40    1
    45    21    41    1
    46    23    42    1
    47    24    43    1
    48    24    44    1
    49    25    45    1
    50    26    46    1
    51    28    47    1
    52    29    48    1
