
     RDKit          3D

 48 52  0  0  0  0  0  0  0  0999 V2000
    7.6576    2.4797   -0.0276 C   0  0  0  0  0  0  0  0  0  0  0  0
    7.0537    1.6973    0.9984 O   0  0  0  0  0  0  0  0  0  0  0  0
    5.7441    1.2514    0.7802 C   0  0  0  0  0  0  0  0  0  0  0  0
    5.0959    0.4897    1.7277 C   0  0  0  0  0  0  0  0  0  0  0  0
    3.8399    0.0433    1.5546 N   0  0  0  0  0  0  0  0  0  0  0  0
    3.1785    0.3380    0.4296 C   0  0  0  0  0  0  0  0  0  0  0  0
    1.8655   -0.1226    0.2362 C   0  0  0  0  0  0  0  0  0  0  0  0
    1.2547   -0.9116    1.2434 N   0  0  0  0  0  0  0  0  0  0  0  0
   -0.0543   -1.3850    1.1611 C   0  0  0  0  0  0  0  0  0  0  0  0
   -0.4127   -2.4034    2.0554 C   0  0  0  0  0  0  0  0  0  0  0  0
   -1.6619   -2.9487    2.0896 C   0  0  0  0  0  0  0  0  0  0  0  0
   -2.0592   -4.2203    3.2275 Cl  0  0  0  0  0  0  0  0  0  0  0  0
   -2.6322   -2.4785    1.1988 C   0  0  0  0  0  0  0  0  0  0  0  0
   -3.8869   -3.0479    1.3065 F   0  0  0  0  0  0  0  0  0  0  0  0
   -2.3337   -1.4934    0.3117 C   0  0  0  0  0  0  0  0  0  0  0  0
   -3.3585   -1.0164   -0.6545 C   0  0  1  0  0  0  0  0  0  0  0  0
   -3.7760   -2.1103   -1.6002 C   0  0  0  0  0  0  0  0  0  0  0  0
   -4.3305   -3.2157   -1.0370 F   0  0  0  0  0  0  0  0  0  0  0  0
   -4.4648   -0.5546    0.0866 N   0  0  0  0  0  0  0  0  0  0  0  0
   -4.6473    0.6406    0.4692 C   0  0  0  0  0  0  0  0  0  0  0  0
   -5.8054    1.0465    1.2296 N   0  0  0  0  0  0  0  0  0  0  0  0
   -3.6755    1.5879    0.1288 O   0  0  0  0  0  0  0  0  0  0  0  0
   -3.0407    1.4491   -1.1332 C   0  0  2  0  0  0  0  0  0  0  0  0
   -3.7889    0.8881   -2.2838 C   0  0  0  0  0  0  0  0  0  0  0  0
   -2.7608    0.0826   -1.5301 C   0  0  2  0  0  0  0  0  0  0  0  0
   -1.0456   -0.9636    0.3113 C   0  0  0  0  0  0  0  0  0  0  0  0
    1.3069    0.2291   -0.9154 N   0  0  0  0  0  0  0  0  0  0  0  0
    1.8544    0.9609   -1.8881 C   0  0  0  0  0  0  0  0  0  0  0  0
    3.1470    1.4139   -1.6967 C   0  0  0  0  0  0  0  0  0  0  0  0
    3.8107    1.0926   -0.5171 C   0  0  0  0  0  0  0  0  0  0  0  0
    5.0726    1.5474   -0.3556 N   0  0  0  0  0  0  0  0  0  0  0  0
    7.1270    3.4605   -0.1469 H   0  0  0  0  0  0  0  0  0  0  0  0
    7.5333    1.9314   -0.9862 H   0  0  0  0  0  0  0  0  0  0  0  0
    8.7273    2.6086    0.1792 H   0  0  0  0  0  0  0  0  0  0  0  0
    5.6689    0.2662    2.6398 H   0  0  0  0  0  0  0  0  0  0  0  0
    1.8305   -1.1373    2.0851 H   0  0  0  0  0  0  0  0  0  0  0  0
    0.3158   -2.8003    2.7692 H   0  0  0  0  0  0  0  0  0  0  0  0
   -2.8811   -2.4786   -2.1955 H   0  0  0  0  0  0  0  0  0  0  0  0
   -4.4466   -1.7015   -2.4122 H   0  0  0  0  0  0  0  0  0  0  0  0
   -6.5127    1.6735    0.8065 H   0  0  0  0  0  0  0  0  0  0  0  0
   -5.9550    0.7233    2.2076 H   0  0  0  0  0  0  0  0  0  0  0  0
   -2.3260    2.2597   -1.3584 H   0  0  0  0  0  0  0  0  0  0  0  0
   -4.8762    0.6927   -2.1045 H   0  0  0  0  0  0  0  0  0  0  0  0
   -3.5830    1.2479   -3.3046 H   0  0  0  0  0  0  0  0  0  0  0  0
   -1.8691   -0.1380   -2.1280 H   0  0  0  0  0  0  0  0  0  0  0  0
   -0.8582   -0.1856   -0.3931 H   0  0  0  0  0  0  0  0  0  0  0  0
    1.3295    1.2110   -2.8129 H   0  0  0  0  0  0  0  0  0  0  0  0
    3.6289    2.0004   -2.4406 H   0  0  0  0  0  0  0  0  0  0  0  0
  1  2  1  0
  2  3  1  0
  3  4  2  0
  4  5  1  0
  5  6  2  0
  6  7  1  0
  7  8  1  0
  8  9  1  0
  9 10  2  0
 10 11  1  0
 11 12  1  0
 11 13  2  0
 13 14  1  0
 13 15  1  0
 15 16  1  0
 16 17  1  6
 17 18  1  0
 16 19  1  0
 19 20  2  0
 20 21  1  0
 20 22  1  0
 22 23  1  0
 23 24  1  0
 24 25  1  0
 15 26  2  0
  7 27  2  0
 27 28  1  0
 28 29  2  0
 29 30  1  0
 30 31  2  0
 31  3  1  0
 30  6  1  0
 26  9  1  0
 25 16  1  0
 25 23  1  0
  1 32  1  0
  1 33  1  0
  1 34  1  0
  4 35  1  0
  8 36  1  0
 10 37  1  0
 17 38  1  0
 17 39  1  0
 21 40  1  0
 21 41  1  0
 23 42  1  6
 24 43  1  0
 24 44  1  0
 25 45  1  6
 26 46  1  0
 28 47  1  0
 29 48  1  0
M  END
$$$$
