@<TRIPOS>MOLECULE
*****
 28 30 0 0 0
SMALL
GASTEIGER

@<TRIPOS>ATOM
      1 C          -3.6384    0.8664    1.3617 C.3     1  UNL1       -0.0394
      2 C          -2.4234    0.4835    0.6004 C.ar    1  UNL1       -0.0454
      3 C          -1.1731    0.7136    1.1764 C.ar    1  UNL1       -0.0310
      4 C           0.0036    0.3825    0.5256 C.ar    1  UNL1        0.0918
      5 N           1.1353    0.6502    1.1765 N.ar    1  UNL1       -0.2258
      6 C           2.3123    0.3513    0.5957 C.ar    1  UNL1        0.1664
      7 C           2.2896   -0.2245   -0.6596 C.ar    1  UNL1        0.1710
      8 N           1.1327   -0.4946   -1.3171 N.ar    1  UNL1       -0.2367
      9 C          -0.0414   -0.1915   -0.7272 C.ar    1  UNL1        0.0905
     10 C          -1.2747   -0.4218   -1.3026 C.ar    1  UNL1       -0.0310
     11 C          -2.4557   -0.0870   -0.6439 C.ar    1  UNL1       -0.0454
     12 C          -3.7680   -0.3481   -1.2911 C.3     1  UNL1       -0.0394
     13 C           3.5148   -0.5280   -1.2474 C.ar    1  UNL1        0.2817
     14 O           3.5907   -1.0566   -2.3940 O.2     1  UNL1       -0.2653
     15 N           4.6377   -0.2448   -0.5633 N.ar    1  UNL1       -0.2732
     16 C           4.6269    0.3162    0.6577 C.ar    1  UNL1        0.3283
     17 O           5.6469    0.6003    1.3375 O.2     1  UNL1       -0.2466
     18 N           3.4443    0.6214    1.2518 N.ar    1  UNL1       -0.2907
     19 H          -3.9257    0.0884    2.1021 H       1  UNL1        0.0278
     20 H          -3.3845    1.7848    1.9619 H       1  UNL1        0.0278
     21 H          -4.5007    1.0548    0.7081 H       1  UNL1        0.0278
     22 H          -1.1540    1.1648    2.1602 H       1  UNL1        0.0642
     23 H          -1.2816   -0.8746   -2.2892 H       1  UNL1        0.0642
     24 H          -3.5878   -0.5416   -2.3831 H       1  UNL1        0.0278
     25 H          -4.2417   -1.2133   -0.7942 H       1  UNL1        0.0278
     26 H          -4.4587    0.5121   -1.2613 H       1  UNL1        0.0278
     27 H           5.6015   -0.4436   -0.9386 H       1  UNL1        0.1735
     28 H           3.3732    1.0573    2.1968 H       1  UNL1        0.1719
@<TRIPOS>BOND
     1     1     2    1
     2     2     3   ar
     3     3     4   ar
     4     4     5   ar
     5     5     6   ar
     6     6     7   ar
     7     7     8   ar
     8     8     9   ar
     9     9    10   ar
    10    10    11   ar
    11    11    12    1
    12     7    13   ar
    13    13    14    2
    14    13    15   ar
    15    15    16   ar
    16    16    17    2
    17    16    18   ar
    18    11     2   ar
    19     9     4   ar
    20    18     6   ar
    21     1    19    1
    22     1    20    1
    23     1    21    1
    24     3    22    1
    25    10    23    1
    26    12    24    1
    27    12    25    1
    28    12    26    1
    29    15    27    1
    30    18    28    1
