
     RDKit          3D

 28 30  0  0  0  0  0  0  0  0999 V2000
   -3.6384    0.8664    1.3617 C   0  0  0  0  0  0  0  0  0  0  0  0
   -2.4234    0.4835    0.6004 C   0  0  0  0  0  0  0  0  0  0  0  0
   -1.1731    0.7136    1.1764 C   0  0  0  0  0  0  0  0  0  0  0  0
    0.0036    0.3825    0.5256 C   0  0  0  0  0  0  0  0  0  0  0  0
    1.1353    0.6502    1.1765 N   0  0  0  0  0  0  0  0  0  0  0  0
    2.3123    0.3513    0.5957 C   0  0  0  0  0  0  0  0  0  0  0  0
    2.2896   -0.2245   -0.6596 C   0  0  0  0  0  0  0  0  0  0  0  0
    1.1327   -0.4946   -1.3171 N   0  0  0  0  0  0  0  0  0  0  0  0
   -0.0414   -0.1915   -0.7272 C   0  0  0  0  0  0  0  0  0  0  0  0
   -1.2747   -0.4218   -1.3026 C   0  0  0  0  0  0  0  0  0  0  0  0
   -2.4557   -0.0870   -0.6439 C   0  0  0  0  0  0  0  0  0  0  0  0
   -3.7680   -0.3481   -1.2911 C   0  0  0  0  0  0  0  0  0  0  0  0
    3.5148   -0.5280   -1.2474 C   0  0  0  0  0  0  0  0  0  0  0  0
    3.5907   -1.0566   -2.3940 O   0  0  0  0  0  0  0  0  0  0  0  0
    4.6377   -0.2448   -0.5633 N   0  0  0  0  0  0  0  0  0  0  0  0
    4.6269    0.3162    0.6577 C   0  0  0  0  0  0  0  0  0  0  0  0
    5.6469    0.6003    1.3375 O   0  0  0  0  0  0  0  0  0  0  0  0
    3.4443    0.6214    1.2518 N   0  0  0  0  0  0  0  0  0  0  0  0
   -3.9257    0.0884    2.1021 H   0  0  0  0  0  0  0  0  0  0  0  0
   -3.3845    1.7848    1.9619 H   0  0  0  0  0  0  0  0  0  0  0  0
   -4.5007    1.0548    0.7081 H   0  0  0  0  0  0  0  0  0  0  0  0
   -1.1540    1.1648    2.1602 H   0  0  0  0  0  0  0  0  0  0  0  0
   -1.2816   -0.8746   -2.2892 H   0  0  0  0  0  0  0  0  0  0  0  0
   -3.5878   -0.5416   -2.3831 H   0  0  0  0  0  0  0  0  0  0  0  0
   -4.2417   -1.2133   -0.7942 H   0  0  0  0  0  0  0  0  0  0  0  0
   -4.4587    0.5121   -1.2613 H   0  0  0  0  0  0  0  0  0  0  0  0
    5.6015   -0.4436   -0.9386 H   0  0  0  0  0  0  0  0  0  0  0  0
    3.3732    1.0573    2.1968 H   0  0  0  0  0  0  0  0  0  0  0  0
  1  2  1  0
  2  3  2  0
  3  4  1  0
  4  5  2  0
  5  6  1  0
  6  7  2  0
  7  8  1  0
  8  9  2  0
  9 10  1  0
 10 11  2  0
 11 12  1  0
  7 13  1  0
 13 14  2  0
 13 15  1  0
 15 16  1  0
 16 17  2  0
 16 18  1  0
 11  2  1  0
  9  4  1  0
 18  6  1  0
  1 19  1  0
  1 20  1  0
  1 21  1  0
  3 22  1  0
 10 23  1  0
 12 24  1  0
 12 25  1  0
 12 26  1  0
 15 27  1  0
 18 28  1  0
M  END
$$$$
