
     RDKit          3D

 36 36  0  0  0  0  0  0  0  0999 V2000
    4.4585    0.3640   -0.4682 C   0  0  0  0  0  0  0  0  0  0  0  0
    2.9853    0.4608   -0.0052 C   0  0  0  0  0  0  0  0  0  0  0  0
    2.4024   -0.8977    0.1221 C   0  0  0  0  0  0  0  0  0  0  0  0
    1.0051   -1.0357    0.6089 C   0  0  0  0  0  0  0  0  0  0  0  0
    0.0368   -0.4109   -0.1839 N   0  0  0  0  0  0  0  0  0  0  0  0
   -0.0604    0.9837   -0.1917 C   0  0  0  0  0  0  0  0  0  0  0  0
   -1.4114    1.5976    0.0004 C   0  0  2  0  0  0  0  0  0  0  0  0
   -1.2517    2.6573    0.9348 O   0  0  0  0  0  0  0  0  0  0  0  0
   -2.4869    0.7295    0.5316 C   0  0  1  0  0  0  0  0  0  0  0  0
   -3.6625    0.8072   -0.2662 O   0  0  0  0  0  0  0  0  0  0  0  0
   -2.1900   -0.7190    0.6849 C   0  0  2  0  0  0  0  0  0  0  0  0
   -1.6333   -0.9985    1.9334 O   0  0  0  0  0  0  0  0  0  0  0  0
   -1.1893   -1.1367   -0.3541 C   0  0  1  0  0  0  0  0  0  0  0  0
   -1.6825   -1.0235   -1.7684 C   0  0  0  0  0  0  0  0  0  0  0  0
   -2.8802   -1.7301   -1.9453 O   0  0  0  0  0  0  0  0  0  0  0  0
    5.1290    0.5836    0.3923 H   0  0  0  0  0  0  0  0  0  0  0  0
    4.5988   -0.6698   -0.8347 H   0  0  0  0  0  0  0  0  0  0  0  0
    4.6862    1.0941   -1.2467 H   0  0  0  0  0  0  0  0  0  0  0  0
    2.9530    1.0555    0.9122 H   0  0  0  0  0  0  0  0  0  0  0  0
    2.4954    1.0825   -0.8160 H   0  0  0  0  0  0  0  0  0  0  0  0
    2.5277   -1.4190   -0.8906 H   0  0  0  0  0  0  0  0  0  0  0  0
    3.1193   -1.5003    0.7602 H   0  0  0  0  0  0  0  0  0  0  0  0
    1.0019   -0.6252    1.6858 H   0  0  0  0  0  0  0  0  0  0  0  0
    0.7830   -2.1314    0.8049 H   0  0  0  0  0  0  0  0  0  0  0  0
    0.2592    1.3244   -1.2287 H   0  0  0  0  0  0  0  0  0  0  0  0
    0.6519    1.4923    0.5204 H   0  0  0  0  0  0  0  0  0  0  0  0
   -1.7414    2.1767   -0.9241 H   0  0  0  0  0  0  0  0  0  0  0  0
   -0.6488    3.3037    0.4904 H   0  0  0  0  0  0  0  0  0  0  0  0
   -2.8644    1.0776    1.5411 H   0  0  0  0  0  0  0  0  0  0  0  0
   -3.5974    1.5510   -0.9096 H   0  0  0  0  0  0  0  0  0  0  0  0
   -3.1150   -1.3129    0.5853 H   0  0  0  0  0  0  0  0  0  0  0  0
   -2.0551   -0.4272    2.6424 H   0  0  0  0  0  0  0  0  0  0  0  0
   -0.9847   -2.2263   -0.1856 H   0  0  0  0  0  0  0  0  0  0  0  0
   -1.8461   -0.0088   -2.1224 H   0  0  0  0  0  0  0  0  0  0  0  0
   -0.8984   -1.4805   -2.4151 H   0  0  0  0  0  0  0  0  0  0  0  0
   -2.8940   -2.5879   -1.4590 H   0  0  0  0  0  0  0  0  0  0  0  0
  1  2  1  0
  2  3  1  0
  3  4  1  0
  4  5  1  0
  5  6  1  0
  6  7  1  0
  7  8  1  0
  7  9  1  0
  9 10  1  0
  9 11  1  0
 11 12  1  0
 11 13  1  0
 13 14  1  0
 14 15  1  0
 13  5  1  0
  1 16  1  0
  1 17  1  0
  1 18  1  0
  2 19  1  0
  2 20  1  0
  3 21  1  0
  3 22  1  0
  4 23  1  0
  4 24  1  0
  6 25  1  0
  6 26  1  0
  7 27  1  6
  8 28  1  0
  9 29  1  1
 10 30  1  0
 11 31  1  6
 12 32  1  0
 13 33  1  1
 14 34  1  0
 14 35  1  0
 15 36  1  0
M  END
$$$$
