@<TRIPOS>MOLECULE
*****
 36 36 0 0 0
SMALL
GASTEIGER

@<TRIPOS>ATOM
      1 C           4.4585    0.3640   -0.4682 C.3     1  UNL1       -0.0652
      2 C           2.9853    0.4608   -0.0052 C.3     1  UNL1       -0.0548
      3 C           2.4024   -0.8977    0.1221 C.3     1  UNL1       -0.0404
      4 C           1.0051   -1.0357    0.6089 C.3     1  UNL1       -0.0006
      5 N           0.0368   -0.4109   -0.1839 N.3     1  UNL1       -0.2923
      6 C          -0.0604    0.9837   -0.1917 C.3     1  UNL1        0.0279
      7 C          -1.4114    1.5976    0.0004 C.3     1  UNL1        0.0962
      8 O          -1.2517    2.6573    0.9348 O.3     1  UNL1       -0.3879
      9 C          -2.4869    0.7295    0.5316 C.3     1  UNL1        0.1095
     10 O          -3.6625    0.8072   -0.2662 O.3     1  UNL1       -0.3866
     11 C          -2.1900   -0.7190    0.6849 C.3     1  UNL1        0.1011
     12 O          -1.6333   -0.9985    1.9334 O.3     1  UNL1       -0.3875
     13 C          -1.1893   -1.1367   -0.3541 C.3     1  UNL1        0.0621
     14 C          -1.6825   -1.0235   -1.7684 C.3     1  UNL1        0.0622
     15 O          -2.8802   -1.7301   -1.9453 O.3     1  UNL1       -0.3934
     16 H           5.1290    0.5836    0.3923 H       1  UNL1        0.0230
     17 H           4.5988   -0.6698   -0.8347 H       1  UNL1        0.0230
     18 H           4.6862    1.0941   -1.2467 H       1  UNL1        0.0230
     19 H           2.9530    1.0555    0.9122 H       1  UNL1        0.0263
     20 H           2.4954    1.0825   -0.8160 H       1  UNL1        0.0263
     21 H           2.5277   -1.4190   -0.8906 H       1  UNL1        0.0277
     22 H           3.1193   -1.5003    0.7602 H       1  UNL1        0.0277
     23 H           1.0019   -0.6252    1.6858 H       1  UNL1        0.0427
     24 H           0.7830   -2.1314    0.8049 H       1  UNL1        0.0427
     25 H           0.2592    1.3244   -1.2287 H       1  UNL1        0.0453
     26 H           0.6519    1.4923    0.5204 H       1  UNL1        0.0453
     27 H          -1.7414    2.1767   -0.9241 H       1  UNL1        0.0633
     28 H          -0.6488    3.3037    0.4904 H       1  UNL1        0.2099
     29 H          -2.8644    1.0776    1.5411 H       1  UNL1        0.0646
     30 H          -3.5974    1.5510   -0.9096 H       1  UNL1        0.2100
     31 H          -3.1150   -1.3129    0.5853 H       1  UNL1        0.0636
     32 H          -2.0551   -0.4272    2.6424 H       1  UNL1        0.2100
     33 H          -0.9847   -2.2263   -0.1856 H       1  UNL1        0.0511
     34 H          -1.8461   -0.0088   -2.1224 H       1  UNL1        0.0573
     35 H          -0.8984   -1.4805   -2.4151 H       1  UNL1        0.0573
     36 H          -2.8940   -2.5879   -1.4590 H       1  UNL1        0.2095
@<TRIPOS>BOND
     1     1     2    1
     2     2     3    1
     3     3     4    1
     4     4     5    1
     5     5     6    1
     6     6     7    1
     7     7     8    1
     8     7     9    1
     9     9    10    1
    10     9    11    1
    11    11    12    1
    12    11    13    1
    13    13    14    1
    14    14    15    1
    15    13     5    1
    16     1    16    1
    17     1    17    1
    18     1    18    1
    19     2    19    1
    20     2    20    1
    21     3    21    1
    22     3    22    1
    23     4    23    1
    24     4    24    1
    25     6    25    1
    26     6    26    1
    27     7    27    1
    28     8    28    1
    29     9    29    1
    30    10    30    1
    31    11    31    1
    32    12    32    1
    33    13    33    1
    34    14    34    1
    35    14    35    1
    36    15    36    1
