@<TRIPOS>MOLECULE
*****
 32 34 0 0 0
SMALL
GASTEIGER

@<TRIPOS>ATOM
      1 N           3.8917   -0.6409   -0.0026 N.pl3   1  UNL1       -0.2309
      2 C           4.8653    0.3964   -0.1303 C.3     1  UNL1        0.1195
      3 C           4.0474    1.6181   -0.3614 C.3     1  UNL1        0.1673
      4 N           2.6861    1.1296   -0.3653 N.2     1  UNL1       -0.0805
      5 C           2.5796   -0.1147   -0.1689 C.2     1  UNL1        0.3188
      6 C           1.3450   -0.8905   -0.1182 C.3     1  UNL1        0.1910
      7 O           0.1731   -0.1190   -0.3159 O.3     1  UNL1       -0.4796
      8 C          -1.0257   -0.8279   -0.2738 C.ar    1  UNL1        0.1248
      9 C          -1.1099   -2.2054   -0.0543 C.ar    1  UNL1       -0.0196
     10 C          -2.3198   -2.8609   -0.0216 C.ar    1  UNL1       -0.0583
     11 C          -3.4888   -2.1552   -0.2085 C.ar    1  UNL1       -0.0613
     12 C          -3.4566   -0.7932   -0.4286 C.ar    1  UNL1       -0.0548
     13 C          -2.2260   -0.1338   -0.4607 C.ar    1  UNL1       -0.0026
     14 C          -2.1665    1.3307   -0.6959 C.3     1  UNL1       -0.0124
     15 C          -2.2269    2.1741    0.6048 C.3     1  UNL1       -0.0455
     16 C          -3.3396    2.1931   -0.3598 C.3     1  UNL1       -0.0455
     17 H           4.1450   -1.6333    0.1863 H       1  UNL1        0.2913
     18 H           5.5787    0.2123   -0.9833 H       1  UNL1        0.0765
     19 H           5.4161    0.5029    0.8268 H       1  UNL1        0.0765
     20 H           4.2180    2.0747   -1.3664 H       1  UNL1        0.0829
     21 H           4.2199    2.3629    0.4370 H       1  UNL1        0.0829
     22 H           1.2947   -1.7097   -0.8748 H       1  UNL1        0.0825
     23 H           1.1850   -1.4025    0.8591 H       1  UNL1        0.0825
     24 H          -0.1878   -2.7414    0.0897 H       1  UNL1        0.0654
     25 H          -2.2692   -3.9362    0.1569 H       1  UNL1        0.0619
     26 H          -4.3857   -2.7422   -0.1677 H       1  UNL1        0.0618
     27 H          -4.3937   -0.2708   -0.5713 H       1  UNL1        0.0622
     28 H          -1.5151    1.6957   -1.5113 H       1  UNL1        0.0350
     29 H          -2.3028    1.6329    1.5607 H       1  UNL1        0.0271
     30 H          -1.4840    2.9937    0.6159 H       1  UNL1        0.0271
     31 H          -4.2988    1.7139   -0.1100 H       1  UNL1        0.0271
     32 H          -3.4487    3.1466   -0.9215 H       1  UNL1        0.0271
@<TRIPOS>BOND
     1     1     2    1
     2     2     3    1
     3     3     4    1
     4     4     5    2
     5     5     6    1
     6     6     7    1
     7     7     8    1
     8     8     9   ar
     9     9    10   ar
    10    10    11   ar
    11    11    12   ar
    12    12    13   ar
    13    13    14    1
    14    14    15    1
    15    15    16    1
    16     5     1    1
    17    13     8   ar
    18    16    14    1
    19     1    17    1
    20     2    18    1
    21     2    19    1
    22     3    20    1
    23     3    21    1
    24     6    22    1
    25     6    23    1
    26     9    24    1
    27    10    25    1
    28    11    26    1
    29    12    27    1
    30    14    28    1
    31    15    29    1
    32    15    30    1
    33    16    31    1
    34    16    32    1
