@<TRIPOS>MOLECULE
*****
 60 62 0 0 0
SMALL
GASTEIGER

@<TRIPOS>ATOM
      1 C           5.5165    2.9790   -1.3175 C.3     1  UNL1       -0.0441
      2 N           4.9189    1.8266   -0.6447 N.3     1  UNL1        0.2139
      3 C           5.9244    0.8051   -0.4429 C.3     1  UNL1       -0.0441
      4 O           3.9799    1.3452   -1.4913 O.co2   1  UNL1       -0.7758
      5 C           4.3516    2.1855    0.6181 C.3     1  UNL1       -0.0174
      6 C           2.8864    1.9308    0.6583 C.3     1  UNL1        0.0491
      7 N           2.4781    0.5579    0.4549 N.pl3   1  UNL1       -0.3382
      8 C           1.0938    0.2394    0.4977 C.ar    1  UNL1        0.0390
      9 C           0.1707    1.2322    0.7380 C.ar    1  UNL1       -0.0384
     10 C          -1.1626    0.9847    0.7934 C.ar    1  UNL1       -0.0384
     11 C          -1.6767   -0.2767    0.6119 C.ar    1  UNL1        0.0390
     12 N          -3.0800   -0.4579    0.7119 N.pl3   1  UNL1       -0.3382
     13 C          -3.9852    0.6485    0.9417 C.3     1  UNL1        0.0491
     14 C          -4.1857    1.5438   -0.2349 C.3     1  UNL1       -0.0174
     15 N          -5.1133    2.5930    0.1992 N.3     1  UNL1        0.2139
     16 C          -4.9430    3.7880   -0.6185 C.3     1  UNL1       -0.0441
     17 C          -6.4663    2.1236   -0.0042 C.3     1  UNL1       -0.0441
     18 O          -4.9511    2.8955    1.5054 O.co2   1  UNL1       -0.7758
     19 C          -0.7611   -1.2714    0.3721 C.ar    1  UNL1        0.0558
     20 C           0.5934   -1.0276    0.3148 C.ar    1  UNL1        0.0558
     21 C           1.4819   -2.1391    0.0559 C.2     1  UNL1        0.1999
     22 O           2.7293   -2.0357   -0.0179 O.2     1  UNL1       -0.2864
     23 C           1.0311   -3.5104   -0.1497 C.ar    1  UNL1        0.0780
     24 C           1.8943   -4.5837   -0.4000 C.ar    1  UNL1        0.1286
     25 O           3.2588   -4.3154   -0.4537 O.3     1  UNL1       -0.5060
     26 C           1.4293   -5.8678   -0.5893 C.ar    1  UNL1       -0.0160
     27 C           0.0914   -6.1065   -0.5325 C.ar    1  UNL1       -0.0160
     28 C          -0.7838   -5.0703   -0.2877 C.ar    1  UNL1        0.1286
     29 O          -2.1463   -5.3153   -0.2301 O.3     1  UNL1       -0.5060
     30 C          -0.3461   -3.7566   -0.0912 C.ar    1  UNL1        0.0780
     31 C          -1.2362   -2.6313    0.1702 C.2     1  UNL1        0.1999
     32 O          -2.4350   -2.9840    0.1968 O.2     1  UNL1       -0.2864
     33 H           5.0037    3.9222   -1.0690 H       1  UNL1        0.0776
     34 H           5.5713    2.7880   -2.4096 H       1  UNL1        0.0776
     35 H           6.5622    3.0768   -0.9649 H       1  UNL1        0.0776
     36 H           6.8461    1.0204   -1.0264 H       1  UNL1        0.0776
     37 H           6.1519    0.7608    0.6384 H       1  UNL1        0.0776
     38 H           5.4889   -0.1781   -0.7229 H       1  UNL1        0.0776
     39 H           4.8131    1.6087    1.4710 H       1  UNL1        0.0829
     40 H           4.5173    3.2648    0.8140 H       1  UNL1        0.0829
     41 H           2.5321    2.2003    1.6940 H       1  UNL1        0.0514
     42 H           2.3188    2.5676   -0.0589 H       1  UNL1        0.0514
     43 H           3.3383    0.0138    0.3052 H       1  UNL1        0.1463
     44 H           0.5675    2.2478    0.8871 H       1  UNL1        0.0637
     45 H          -1.7506    1.8896    1.0083 H       1  UNL1        0.0637
     46 H          -3.6975   -1.2860    0.6531 H       1  UNL1        0.1463
     47 H          -3.5247    1.2725    1.7767 H       1  UNL1        0.0514
     48 H          -4.9724    0.3865    1.3324 H       1  UNL1        0.0514
     49 H          -4.7192    0.9846   -1.0419 H       1  UNL1        0.0829
     50 H          -3.3181    2.0006   -0.6839 H       1  UNL1        0.0829
     51 H          -3.8690    3.9038   -0.8632 H       1  UNL1        0.0776
     52 H          -5.3141    4.6823   -0.1029 H       1  UNL1        0.0776
     53 H          -5.4924    3.7219   -1.5892 H       1  UNL1        0.0776
     54 H          -6.5236    1.7642   -1.0641 H       1  UNL1        0.0776
     55 H          -7.1246    3.0265    0.0922 H       1  UNL1        0.0776
     56 H          -6.7419    1.3372    0.7304 H       1  UNL1        0.0776
     57 H           3.5997   -3.9547   -1.3411 H       1  UNL1        0.2922
     58 H           2.1453   -6.6533   -0.7788 H       1  UNL1        0.0655
     59 H          -0.3300   -7.0947   -0.6735 H       1  UNL1        0.0655
     60 H          -2.6355   -5.6031    0.5986 H       1  UNL1        0.2922
@<TRIPOS>UNITY_ATOM_ATTR
2 1
charge 1
4 1
charge -1
15 1
charge 1
18 1
charge -1
@<TRIPOS>BOND
     1     1     2    1
     2     2     3    1
     3     2     4    1
     4     2     5    1
     5     5     6    1
     6     6     7    1
     7     7     8    1
     8     8     9   ar
     9     9    10   ar
    10    10    11   ar
    11    11    12    1
    12    12    13    1
    13    13    14    1
    14    14    15    1
    15    15    16    1
    16    15    17    1
    17    15    18    1
    18    11    19   ar
    19    19    20   ar
    20    20    21    1
    21    21    22    2
    22    21    23    1
    23    23    24   ar
    24    24    25    1
    25    24    26   ar
    26    26    27   ar
    27    27    28   ar
    28    28    29    1
    29    28    30   ar
    30    30    31    1
    31    31    32    2
    32    20     8   ar
    33    30    23   ar
    34    31    19    1
    35     1    33    1
    36     1    34    1
    37     1    35    1
    38     3    36    1
    39     3    37    1
    40     3    38    1
    41     5    39    1
    42     5    40    1
    43     6    41    1
    44     6    42    1
    45     7    43    1
    46     9    44    1
    47    10    45    1
    48    12    46    1
    49    13    47    1
    50    13    48    1
    51    14    49    1
    52    14    50    1
    53    16    51    1
    54    16    52    1
    55    16    53    1
    56    17    54    1
    57    17    55    1
    58    17    56    1
    59    25    57    1
    60    26    58    1
    61    27    59    1
    62    29    60    1
