
     RDKit          3D

 57 61  0  0  0  0  0  0  0  0999 V2000
    2.5397   -0.5066    2.2582 C   0  0  0  0  0  0  0  0  0  0  0  0
    2.4908    0.4297    1.0849 C   0  0  2  0  0  0  0  0  0  0  0  0
    1.1438    0.6321    0.4900 C   0  0  0  0  0  0  0  0  0  0  0  0
    0.8554   -0.0766   -0.7080 N   0  0  0  0  0  0  0  0  0  0  0  0
   -0.5091   -0.2193   -1.0877 C   0  0  0  0  0  0  0  0  0  0  0  0
   -1.0154    0.5157   -2.1218 N   0  0  0  0  0  0  0  0  0  0  0  0
   -2.2745    0.4173   -2.4290 N   0  0  0  0  0  0  0  0  0  0  0  0
   -3.1243   -0.4062   -1.7462 C   0  0  0  0  0  0  0  0  0  0  0  0
   -4.5544   -0.3708   -2.1315 C   0  0  0  0  0  0  0  0  0  0  0  0
   -5.3312    0.5760   -1.3041 C   0  0  0  0  0  0  0  0  0  0  0  0
   -5.1457    1.9545   -1.4978 C   0  0  0  0  0  0  0  0  0  0  0  0
   -5.8216    2.9033   -0.7983 C   0  0  0  0  0  0  0  0  0  0  0  0
   -6.7449    2.4909    0.1586 C   0  0  0  0  0  0  0  0  0  0  0  0
   -6.9355    1.1524    0.3562 C   0  0  0  0  0  0  0  0  0  0  0  0
   -6.2315    0.1903   -0.3725 C   0  0  0  0  0  0  0  0  0  0  0  0
   -2.6570   -1.1578   -0.7112 C   0  0  0  0  0  0  0  0  0  0  0  0
   -3.4771   -2.0218   -0.0182 C   0  0  0  0  0  0  0  0  0  0  0  0
   -2.9418   -2.7720    1.0017 C   0  0  0  0  0  0  0  0  0  0  0  0
   -1.6033   -2.6762    1.3412 C   0  0  0  0  0  0  0  0  0  0  0  0
   -1.0988   -3.4760    2.4015 C   0  0  0  0  0  0  0  0  0  0  0  0
   -0.6959   -4.1106    3.2740 N   0  0  0  0  0  0  0  0  0  0  0  0
   -0.7695   -1.8201    0.6589 C   0  0  0  0  0  0  0  0  0  0  0  0
   -1.3089   -1.0682   -0.3635 C   0  0  0  0  0  0  0  0  0  0  0  0
    1.8698   -0.6396   -1.5462 C   0  0  0  0  0  0  0  0  0  0  0  0
    2.9673   -1.2180   -0.6681 C   0  0  0  0  0  0  0  0  0  0  0  0
    3.4511   -0.0860    0.1093 N   0  0  0  0  0  0  0  0  0  0  0  0
    4.7355    0.4881   -0.0379 C   0  0  0  0  0  0  0  0  0  0  0  0
    5.9107   -0.1093    0.3689 C   0  0  0  0  0  0  0  0  0  0  0  0
    7.1590    0.4850    0.1928 C   0  0  0  0  0  0  0  0  0  0  0  0
    7.1689    1.7225   -0.4189 C   0  0  0  0  0  0  0  0  0  0  0  0
    8.4292    2.3875   -0.6226 C   0  0  0  0  0  0  0  0  0  0  0  0
    9.4231    2.9291   -0.7713 N   0  0  0  0  0  0  0  0  0  0  0  0
    6.0003    2.3230   -0.8266 C   0  0  0  0  0  0  0  0  0  0  0  0
    4.8343    1.6962   -0.6266 N   0  0  0  0  0  0  0  0  0  0  0  0
    2.6458   -1.5858    1.9458 H   0  0  0  0  0  0  0  0  0  0  0  0
    3.4859   -0.2962    2.8166 H   0  0  0  0  0  0  0  0  0  0  0  0
    1.7165   -0.3750    2.9750 H   0  0  0  0  0  0  0  0  0  0  0  0
    2.9055    1.4110    1.4604 H   0  0  0  0  0  0  0  0  0  0  0  0
    0.3681    0.5604    1.2872 H   0  0  0  0  0  0  0  0  0  0  0  0
    1.0915    1.7395    0.2063 H   0  0  0  0  0  0  0  0  0  0  0  0
   -5.0186   -1.3813   -2.1509 H   0  0  0  0  0  0  0  0  0  0  0  0
   -4.6156   -0.0036   -3.1754 H   0  0  0  0  0  0  0  0  0  0  0  0
   -4.4225    2.2420   -2.2465 H   0  0  0  0  0  0  0  0  0  0  0  0
   -5.6951    3.9687   -0.9305 H   0  0  0  0  0  0  0  0  0  0  0  0
   -7.3134    3.2051    0.7487 H   0  0  0  0  0  0  0  0  0  0  0  0
   -7.6436    0.7996    1.0902 H   0  0  0  0  0  0  0  0  0  0  0  0
   -6.4213   -0.8553   -0.1942 H   0  0  0  0  0  0  0  0  0  0  0  0
   -4.5067   -2.0891   -0.3176 H   0  0  0  0  0  0  0  0  0  0  0  0
   -3.6067   -3.4404    1.5298 H   0  0  0  0  0  0  0  0  0  0  0  0
    0.3005   -1.7476    0.9200 H   0  0  0  0  0  0  0  0  0  0  0  0
    2.3549    0.1461   -2.1960 H   0  0  0  0  0  0  0  0  0  0  0  0
    1.4396   -1.4297   -2.2115 H   0  0  0  0  0  0  0  0  0  0  0  0
    3.7678   -1.6826   -1.2806 H   0  0  0  0  0  0  0  0  0  0  0  0
    2.4721   -1.9825   -0.0378 H   0  0  0  0  0  0  0  0  0  0  0  0
    5.8308   -1.0672    0.8400 H   0  0  0  0  0  0  0  0  0  0  0  0
    8.0722    0.0016    0.5206 H   0  0  0  0  0  0  0  0  0  0  0  0
    6.0539    3.3038   -1.3097 H   0  0  0  0  0  0  0  0  0  0  0  0
  1  2  1  0
  2  3  1  0
  3  4  1  0
  4  5  1  0
  5  6  2  0
  6  7  1  0
  7  8  2  0
  8  9  1  0
  9 10  1  0
 10 11  2  0
 11 12  1  0
 12 13  2  0
 13 14  1  0
 14 15  2  0
  8 16  1  0
 16 17  2  0
 17 18  1  0
 18 19  2  0
 19 20  1  0
 20 21  3  0
 19 22  1  0
 22 23  2  0
  4 24  1  0
 24 25  1  0
 25 26  1  0
 26 27  1  0
 27 28  2  0
 28 29  1  0
 29 30  2  0
 30 31  1  0
 31 32  3  0
 30 33  1  0
 33 34  2  0
 26  2  1  0
 34 27  1  0
 23  5  1  0
 15 10  1  0
 23 16  1  0
  1 35  1  0
  1 36  1  0
  1 37  1  0
  2 38  1  1
  3 39  1  0
  3 40  1  0
  9 41  1  0
  9 42  1  0
 11 43  1  0
 12 44  1  0
 13 45  1  0
 14 46  1  0
 15 47  1  0
 17 48  1  0
 18 49  1  0
 22 50  1  0
 24 51  1  0
 24 52  1  0
 25 53  1  0
 25 54  1  0
 28 55  1  0
 29 56  1  0
 33 57  1  0
M  END
$$$$
