@<TRIPOS>MOLECULE
*****
 57 61 0 0 0
SMALL
GASTEIGER

@<TRIPOS>ATOM
      1 C           2.5397   -0.5066    2.2582 C.3     1  UNL1       -0.0450
      2 C           2.4908    0.4297    1.0849 C.3     1  UNL1        0.0378
      3 C           1.1438    0.6321    0.4900 C.3     1  UNL1        0.0320
      4 N           0.8554   -0.0766   -0.7080 N.pl3   1  UNL1       -0.3100
      5 C          -0.5091   -0.2193   -1.0877 C.ar    1  UNL1        0.1517
      6 N          -1.0154    0.5157   -2.1218 N.ar    1  UNL1       -0.1333
      7 N          -2.2745    0.4173   -2.4290 N.ar    1  UNL1       -0.1515
      8 C          -3.1243   -0.4062   -1.7462 C.ar    1  UNL1        0.0757
      9 C          -4.5544   -0.3708   -2.1315 C.3     1  UNL1        0.0172
     10 C          -5.3312    0.5760   -1.3041 C.ar    1  UNL1       -0.0415
     11 C          -5.1457    1.9545   -1.4978 C.ar    1  UNL1       -0.0582
     12 C          -5.8216    2.9033   -0.7983 C.ar    1  UNL1       -0.0615
     13 C          -6.7449    2.4909    0.1586 C.ar    1  UNL1       -0.0617
     14 C          -6.9355    1.1524    0.3562 C.ar    1  UNL1       -0.0615
     15 C          -6.2315    0.1903   -0.3725 C.ar    1  UNL1       -0.0582
     16 C          -2.6570   -1.1578   -0.7112 C.ar    1  UNL1        0.0089
     17 C          -3.4771   -2.0218   -0.0182 C.ar    1  UNL1       -0.0509
     18 C          -2.9418   -2.7720    1.0017 C.ar    1  UNL1       -0.0437
     19 C          -1.6033   -2.6762    1.3412 C.ar    1  UNL1        0.0525
     20 C          -1.0988   -3.4760    2.4015 C.1     1  UNL1        0.0992
     21 N          -0.6959   -4.1106    3.2740 N.1     1  UNL1       -0.1909
     22 C          -0.7695   -1.8201    0.6589 C.ar    1  UNL1       -0.0332
     23 C          -1.3089   -1.0682   -0.3635 C.ar    1  UNL1        0.0268
     24 C           1.8698   -0.6396   -1.5462 C.3     1  UNL1        0.0294
     25 C           2.9673   -1.2180   -0.6681 C.3     1  UNL1        0.0296
     26 N           3.4511   -0.0860    0.1093 N.pl3   1  UNL1       -0.3094
     27 C           4.7355    0.4881   -0.0379 C.ar    1  UNL1        0.1216
     28 C           5.9107   -0.1093    0.3689 C.ar    1  UNL1       -0.0205
     29 C           7.1590    0.4850    0.1928 C.ar    1  UNL1       -0.0396
     30 C           7.1689    1.7225   -0.4189 C.ar    1  UNL1        0.0699
     31 C           8.4292    2.3875   -0.6226 C.1     1  UNL1        0.1007
     32 N           9.4231    2.9291   -0.7713 N.1     1  UNL1       -0.1908
     33 C           6.0003    2.3230   -0.8266 C.ar    1  UNL1        0.0470
     34 N           4.8343    1.6962   -0.6266 N.ar    1  UNL1       -0.2390
     35 H           2.6458   -1.5858    1.9458 H       1  UNL1        0.0248
     36 H           3.4859   -0.2962    2.8166 H       1  UNL1        0.0248
     37 H           1.7165   -0.3750    2.9750 H       1  UNL1        0.0248
     38 H           2.9055    1.4110    1.4604 H       1  UNL1        0.0513
     39 H           0.3681    0.5604    1.2872 H       1  UNL1        0.0482
     40 H           1.0915    1.7395    0.2063 H       1  UNL1        0.0482
     41 H          -5.0186   -1.3813   -2.1509 H       1  UNL1        0.0377
     42 H          -4.6156   -0.0036   -3.1754 H       1  UNL1        0.0377
     43 H          -4.4225    2.2420   -2.2465 H       1  UNL1        0.0620
     44 H          -5.6951    3.9687   -0.9305 H       1  UNL1        0.0618
     45 H          -7.3134    3.2051    0.7487 H       1  UNL1        0.0618
     46 H          -7.6436    0.7996    1.0902 H       1  UNL1        0.0618
     47 H          -6.4213   -0.8553   -0.1942 H       1  UNL1        0.0620
     48 H          -4.5067   -2.0891   -0.3176 H       1  UNL1        0.0625
     49 H          -3.6067   -3.4404    1.5298 H       1  UNL1        0.0631
     50 H           0.3005   -1.7476    0.9200 H       1  UNL1        0.0637
     51 H           2.3549    0.1461   -2.1960 H       1  UNL1        0.0480
     52 H           1.4396   -1.4297   -2.2115 H       1  UNL1        0.0480
     53 H           3.7678   -1.6826   -1.2806 H       1  UNL1        0.0480
     54 H           2.4721   -1.9825   -0.0378 H       1  UNL1        0.0480
     55 H           5.8308   -1.0672    0.8400 H       1  UNL1        0.0652
     56 H           8.0722    0.0016    0.5206 H       1  UNL1        0.0632
     57 H           6.0539    3.3038   -1.3097 H       1  UNL1        0.0843
@<TRIPOS>BOND
     1     1     2    1
     2     2     3    1
     3     3     4    1
     4     4     5    1
     5     5     6   ar
     6     6     7   ar
     7     7     8   ar
     8     8     9    1
     9     9    10    1
    10    10    11   ar
    11    11    12   ar
    12    12    13   ar
    13    13    14   ar
    14    14    15   ar
    15     8    16   ar
    16    16    17   ar
    17    17    18   ar
    18    18    19   ar
    19    19    20    1
    20    20    21    3
    21    19    22   ar
    22    22    23   ar
    23     4    24    1
    24    24    25    1
    25    25    26    1
    26    26    27    1
    27    27    28   ar
    28    28    29   ar
    29    29    30   ar
    30    30    31    1
    31    31    32    3
    32    30    33   ar
    33    33    34   ar
    34    26     2    1
    35    34    27   ar
    36    23     5   ar
    37    15    10   ar
    38    23    16   ar
    39     1    35    1
    40     1    36    1
    41     1    37    1
    42     2    38    1
    43     3    39    1
    44     3    40    1
    45     9    41    1
    46     9    42    1
    47    11    43    1
    48    12    44    1
    49    13    45    1
    50    14    46    1
    51    15    47    1
    52    17    48    1
    53    18    49    1
    54    22    50    1
    55    24    51    1
    56    24    52    1
    57    25    53    1
    58    25    54    1
    59    28    55    1
    60    29    56    1
    61    33    57    1
