
     RDKit          3D

 65 70  0  0  0  0  0  0  0  0999 V2000
   -6.1716    1.8704   -2.5127 C   0  0  0  0  0  0  0  0  0  0  0  0
   -6.9291    0.9383   -1.7177 N   0  0  0  0  0  0  0  0  0  0  0  0
   -8.2203    0.4861   -2.2172 C   0  0  0  0  0  0  0  0  0  0  0  0
   -6.4323    0.4808   -0.4895 C   0  0  0  0  0  0  0  0  0  0  0  0
   -7.1087   -0.3462    0.2110 O   0  0  0  0  0  0  0  0  0  0  0  0
   -5.1619    0.9232    0.0126 C   0  0  0  0  0  0  0  0  0  0  0  0
   -4.6638    2.1846   -0.0385 C   0  0  0  0  0  0  0  0  0  0  0  0
   -3.4383    2.1719    0.5689 C   0  0  0  0  0  0  0  0  0  0  0  0
   -2.4532    3.0946    0.8389 C   0  0  0  0  0  0  0  0  0  0  0  0
   -1.3355    2.7225    1.4810 N   0  0  0  0  0  0  0  0  0  0  0  0
   -1.1409    1.4364    1.8807 C   0  0  0  0  0  0  0  0  0  0  0  0
    0.0626    1.0963    2.5817 N   0  0  0  0  0  0  0  0  0  0  0  0
    1.2346    0.8479    1.8230 C   0  0  0  0  0  0  0  0  0  0  0  0
    1.2817    0.9181    0.4509 C   0  0  0  0  0  0  0  0  0  0  0  0
    2.4491    0.6746   -0.2414 C   0  0  0  0  0  0  0  0  0  0  0  0
    3.6305    0.3478    0.4178 C   0  0  0  0  0  0  0  0  0  0  0  0
    4.8550    0.0987   -0.2804 N   0  0  0  0  0  0  0  0  0  0  0  0
    5.0467   -1.2813   -0.6357 C   0  0  0  0  0  0  0  0  0  0  0  0
    6.4873   -1.7135   -0.6604 C   0  0  0  0  0  0  0  0  0  0  0  0
    7.1524   -1.3577    0.6462 C   0  0  0  0  0  0  0  0  0  0  0  0
    8.1916   -0.3080    0.3313 C   0  0  0  0  0  0  0  0  0  0  0  0
    7.8718    0.0552   -1.0882 C   0  0  0  0  0  0  0  0  0  0  0  0
    7.0008    1.2637   -1.2341 C   0  0  0  0  0  0  0  0  0  0  0  0
    5.7164    1.1854   -0.5369 C   0  0  0  0  0  0  0  0  0  0  0  0
    5.3026    2.2799   -0.0812 O   0  0  0  0  0  0  0  0  0  0  0  0
    7.2316   -1.0754   -1.7068 N   0  0  0  0  0  0  0  0  0  0  0  0
    3.5487    0.2852    1.7951 C   0  0  0  0  0  0  0  0  0  0  0  0
    2.4012    0.5258    2.4536 N   0  0  0  0  0  0  0  0  0  0  0  0
   -2.0932    0.5333    1.6206 N   0  0  0  0  0  0  0  0  0  0  0  0
   -3.2351    0.8713    0.9761 C   0  0  0  0  0  0  0  0  0  0  0  0
   -4.2812    0.0917    0.6435 N   0  0  0  0  0  0  0  0  0  0  0  0
   -4.4368   -1.2944    0.9118 C   0  0  0  0  0  0  0  0  0  0  0  0
   -4.4100   -2.2957   -0.0333 C   0  0  0  0  0  0  0  0  0  0  0  0
   -4.5722   -3.6285    0.3138 C   0  0  0  0  0  0  0  0  0  0  0  0
   -4.7654   -4.0150    1.6228 C   0  0  0  0  0  0  0  0  0  0  0  0
   -4.7941   -3.0192    2.5750 C   0  0  0  0  0  0  0  0  0  0  0  0
   -4.6338   -1.6860    2.2356 C   0  0  0  0  0  0  0  0  0  0  0  0
   -6.4969    2.9310   -2.3465 H   0  0  0  0  0  0  0  0  0  0  0  0
   -6.4148    1.7000   -3.6115 H   0  0  0  0  0  0  0  0  0  0  0  0
   -5.0841    1.7168   -2.4238 H   0  0  0  0  0  0  0  0  0  0  0  0
   -8.3536    0.8129   -3.2562 H   0  0  0  0  0  0  0  0  0  0  0  0
   -8.3486   -0.6099   -2.1630 H   0  0  0  0  0  0  0  0  0  0  0  0
   -8.9852    1.0199   -1.6014 H   0  0  0  0  0  0  0  0  0  0  0  0
   -5.0837    3.1060   -0.4602 H   0  0  0  0  0  0  0  0  0  0  0  0
   -2.6270    4.1229    0.5079 H   0  0  0  0  0  0  0  0  0  0  0  0
    0.0840    1.0314    3.6250 H   0  0  0  0  0  0  0  0  0  0  0  0
    0.3691    1.1715   -0.0704 H   0  0  0  0  0  0  0  0  0  0  0  0
    2.5158    0.7284   -1.3282 H   0  0  0  0  0  0  0  0  0  0  0  0
    4.5619   -1.4402   -1.6288 H   0  0  0  0  0  0  0  0  0  0  0  0
    4.5159   -1.9244    0.0847 H   0  0  0  0  0  0  0  0  0  0  0  0
    6.5084   -2.7957   -0.8227 H   0  0  0  0  0  0  0  0  0  0  0  0
    6.4370   -0.8863    1.3472 H   0  0  0  0  0  0  0  0  0  0  0  0
    7.6017   -2.2495    1.0981 H   0  0  0  0  0  0  0  0  0  0  0  0
    8.1539    0.5421    1.0352 H   0  0  0  0  0  0  0  0  0  0  0  0
    9.1898   -0.8118    0.4025 H   0  0  0  0  0  0  0  0  0  0  0  0
    8.8212    0.2689   -1.6047 H   0  0  0  0  0  0  0  0  0  0  0  0
    6.8161    1.4159   -2.3080 H   0  0  0  0  0  0  0  0  0  0  0  0
    7.5858    2.1561   -0.8981 H   0  0  0  0  0  0  0  0  0  0  0  0
    7.8862   -1.7112   -2.2102 H   0  0  0  0  0  0  0  0  0  0  0  0
    4.4502    0.0270    2.3331 H   0  0  0  0  0  0  0  0  0  0  0  0
   -4.2618   -2.0026   -1.0523 H   0  0  0  0  0  0  0  0  0  0  0  0
   -4.5479   -4.3917   -0.4461 H   0  0  0  0  0  0  0  0  0  0  0  0
   -4.8874   -5.0599    1.8664 H   0  0  0  0  0  0  0  0  0  0  0  0
   -4.9421   -3.3206    3.6029 H   0  0  0  0  0  0  0  0  0  0  0  0
   -4.6514   -0.9101    2.9931 H   0  0  0  0  0  0  0  0  0  0  0  0
  1  2  1  0
  2  3  1  0
  2  4  1  0
  4  5  2  0
  4  6  1  0
  6  7  2  0
  7  8  1  0
  8  9  2  0
  9 10  1  0
 10 11  2  0
 11 12  1  0
 12 13  1  0
 13 14  2  0
 14 15  1  0
 15 16  2  0
 16 17  1  0
 17 18  1  0
 18 19  1  0
 19 20  1  0
 20 21  1  0
 21 22  1  0
 22 23  1  0
 23 24  1  0
 24 25  2  0
 22 26  1  0
 16 27  1  0
 27 28  2  0
 11 29  1  0
 29 30  2  0
 30 31  1  0
 31 32  1  0
 32 33  2  0
 33 34  1  0
 34 35  2  0
 35 36  1  0
 36 37  2  0
 31  6  1  0
 37 32  1  0
 30  8  1  0
 28 13  1  0
 24 17  1  0
 26 19  1  0
  1 38  1  0
  1 39  1  0
  1 40  1  0
  3 41  1  0
  3 42  1  0
  3 43  1  0
  7 44  1  0
  9 45  1  0
 12 46  1  0
 14 47  1  0
 15 48  1  0
 18 49  1  0
 18 50  1  0
 19 51  1  0
 20 52  1  0
 20 53  1  0
 21 54  1  0
 21 55  1  0
 22 56  1  0
 23 57  1  0
 23 58  1  0
 26 59  1  0
 27 60  1  0
 33 61  1  0
 34 62  1  0
 35 63  1  0
 36 64  1  0
 37 65  1  0
M  END
$$$$
