@<TRIPOS>MOLECULE
*****
 65 70 0 0 0
SMALL
GASTEIGER

@<TRIPOS>ATOM
      1 C          -6.1716    1.8704   -2.5127 C.3     1  UNL1        0.0032
      2 N          -6.9291    0.9383   -1.7177 N.am    1  UNL1       -0.3024
      3 C          -8.2203    0.4861   -2.2172 C.3     1  UNL1        0.0032
      4 C          -6.4323    0.4808   -0.4895 C.2     1  UNL1        0.2630
      5 O          -7.1087   -0.3462    0.2110 O.2     1  UNL1       -0.2684
      6 C          -5.1619    0.9232    0.0126 C.ar    1  UNL1        0.1113
      7 C          -4.6638    2.1846   -0.0385 C.ar    1  UNL1       -0.0206
      8 C          -3.4383    2.1719    0.5689 C.ar    1  UNL1        0.0382
      9 C          -2.4532    3.0946    0.8389 C.ar    1  UNL1        0.0419
     10 N          -1.3355    2.7225    1.4810 N.ar    1  UNL1       -0.2219
     11 C          -1.1409    1.4364    1.8807 C.ar    1  UNL1        0.2224
     12 N           0.0626    1.0963    2.5817 N.pl3   1  UNL1       -0.2684
     13 C           1.2346    0.8479    1.8230 C.ar    1  UNL1        0.1251
     14 C           1.2817    0.9181    0.4509 C.ar    1  UNL1       -0.0197
     15 C           2.4491    0.6746   -0.2414 C.ar    1  UNL1       -0.0355
     16 C           3.6305    0.3478    0.4178 C.ar    1  UNL1        0.0545
     17 N           4.8550    0.0987   -0.2804 N.am    1  UNL1       -0.2685
     18 C           5.0467   -1.2813   -0.6357 C.3     1  UNL1        0.0352
     19 C           6.4873   -1.7135   -0.6604 C.3     1  UNL1        0.0241
     20 C           7.1524   -1.3577    0.6462 C.3     1  UNL1       -0.0347
     21 C           8.1916   -0.3080    0.3313 C.3     1  UNL1       -0.0356
     22 C           7.8718    0.0552   -1.0882 C.3     1  UNL1        0.0162
     23 C           7.0008    1.2637   -1.2341 C.3     1  UNL1        0.0399
     24 C           5.7164    1.1854   -0.5369 C.2     1  UNL1        0.2213
     25 O           5.3026    2.2799   -0.0812 O.2     1  UNL1       -0.2752
     26 N           7.2316   -1.0754   -1.7068 N.3     1  UNL1       -0.3086
     27 C           3.5487    0.2852    1.7951 C.ar    1  UNL1        0.0511
     28 N           2.4012    0.5258    2.4536 N.ar    1  UNL1       -0.2383
     29 N          -2.0932    0.5333    1.6206 N.ar    1  UNL1       -0.1958
     30 C          -3.2351    0.8713    0.9761 C.ar    1  UNL1        0.1509
     31 N          -4.2812    0.0917    0.6435 N.ar    1  UNL1       -0.2893
     32 C          -4.4368   -1.2944    0.9118 C.ar    1  UNL1        0.0487
     33 C          -4.4100   -2.2957   -0.0333 C.ar    1  UNL1       -0.0378
     34 C          -4.5722   -3.6285    0.3138 C.ar    1  UNL1       -0.0598
     35 C          -4.7654   -4.0150    1.6228 C.ar    1  UNL1       -0.0616
     36 C          -4.7941   -3.0192    2.5750 C.ar    1  UNL1       -0.0598
     37 C          -4.6338   -1.6860    2.2356 C.ar    1  UNL1       -0.0378
     38 H          -6.4969    2.9310   -2.3465 H       1  UNL1        0.0428
     39 H          -6.4148    1.7000   -3.6115 H       1  UNL1        0.0428
     40 H          -5.0841    1.7168   -2.4238 H       1  UNL1        0.0428
     41 H          -8.3536    0.8129   -3.2562 H       1  UNL1        0.0428
     42 H          -8.3486   -0.6099   -2.1630 H       1  UNL1        0.0428
     43 H          -8.9852    1.0199   -1.6014 H       1  UNL1        0.0428
     44 H          -5.0837    3.1060   -0.4602 H       1  UNL1        0.0647
     45 H          -2.6270    4.1229    0.5079 H       1  UNL1        0.0838
     46 H           0.0840    1.0314    3.6250 H       1  UNL1        0.1564
     47 H           0.3691    1.1715   -0.0704 H       1  UNL1        0.0652
     48 H           2.5158    0.7284   -1.3282 H       1  UNL1        0.0638
     49 H           4.5619   -1.4402   -1.6288 H       1  UNL1        0.0484
     50 H           4.5159   -1.9244    0.0847 H       1  UNL1        0.0484
     51 H           6.5084   -2.7957   -0.8227 H       1  UNL1        0.0476
     52 H           6.4370   -0.8863    1.3472 H       1  UNL1        0.0281
     53 H           7.6017   -2.2495    1.0981 H       1  UNL1        0.0281
     54 H           8.1539    0.5421    1.0352 H       1  UNL1        0.0281
     55 H           9.1898   -0.8118    0.4025 H       1  UNL1        0.0281
     56 H           8.8212    0.2689   -1.6047 H       1  UNL1        0.0465
     57 H           6.8161    1.4159   -2.3080 H       1  UNL1        0.0374
     58 H           7.5858    2.1561   -0.8981 H       1  UNL1        0.0374
     59 H           7.8862   -1.7112   -2.2102 H       1  UNL1        0.1225
     60 H           4.4502    0.0270    2.3331 H       1  UNL1        0.0849
     61 H          -4.2618   -2.0026   -1.0523 H       1  UNL1        0.0638
     62 H          -4.5479   -4.3917   -0.4461 H       1  UNL1        0.0618
     63 H          -4.8874   -5.0599    1.8664 H       1  UNL1        0.0618
     64 H          -4.9421   -3.3206    3.6029 H       1  UNL1        0.0618
     65 H          -4.6514   -0.9101    2.9931 H       1  UNL1        0.0638
@<TRIPOS>BOND
     1     1     2    1
     2     2     3    1
     3     2     4   am
     4     4     5    2
     5     4     6    1
     6     6     7   ar
     7     7     8   ar
     8     8     9   ar
     9     9    10   ar
    10    10    11   ar
    11    11    12    1
    12    12    13    1
    13    13    14   ar
    14    14    15   ar
    15    15    16   ar
    16    16    17    1
    17    17    18    1
    18    18    19    1
    19    19    20    1
    20    20    21    1
    21    21    22    1
    22    22    23    1
    23    23    24    1
    24    24    25    2
    25    22    26    1
    26    16    27   ar
    27    27    28   ar
    28    11    29   ar
    29    29    30   ar
    30    30    31   ar
    31    31    32    1
    32    32    33   ar
    33    33    34   ar
    34    34    35   ar
    35    35    36   ar
    36    36    37   ar
    37    31     6   ar
    38    37    32   ar
    39    30     8   ar
    40    28    13   ar
    41    24    17   am
    42    26    19    1
    43     1    38    1
    44     1    39    1
    45     1    40    1
    46     3    41    1
    47     3    42    1
    48     3    43    1
    49     7    44    1
    50     9    45    1
    51    12    46    1
    52    14    47    1
    53    15    48    1
    54    18    49    1
    55    18    50    1
    56    19    51    1
    57    20    52    1
    58    20    53    1
    59    21    54    1
    60    21    55    1
    61    22    56    1
    62    23    57    1
    63    23    58    1
    64    26    59    1
    65    27    60    1
    66    33    61    1
    67    34    62    1
    68    35    63    1
    69    36    64    1
    70    37    65    1
