@<TRIPOS>MOLECULE
*****
 84 91 0 0 0
SMALL
GASTEIGER

@<TRIPOS>ATOM
      1 O          12.3957    0.4443   -0.8458 O.3     1  UNL1       -0.3938
      2 C          11.7310    1.6423   -1.1656 C.3     1  UNL1        0.0567
      3 C          10.6807    1.8390   -0.0779 C.3     1  UNL1        0.0195
      4 N           9.9083    3.0487   -0.2794 N.3     1  UNL1       -0.3072
      5 C           9.0604    2.9668   -1.4368 C.3     1  UNL1        0.0569
      6 C           8.0691    1.8628   -1.3555 C.ar    1  UNL1        0.1517
      7 N           8.2083    0.5896   -1.7748 N.ar    1  UNL1       -0.1323
      8 N           7.0862   -0.0618   -1.5102 N.ar    1  UNL1       -0.1287
      9 C           6.2211    0.7631   -0.9271 C.ar    1  UNL1        0.1704
     10 C           4.9345    0.5207   -0.4787 C.ar    1  UNL1        0.0456
     11 C           4.3574   -0.7162   -0.5977 C.ar    1  UNL1       -0.0392
     12 C           3.0589   -0.8931   -0.1238 C.ar    1  UNL1        0.0088
     13 C           2.4300   -2.2067   -0.2439 C.ar    1  UNL1       -0.0158
     14 C           3.0358   -3.2624    0.3999 C.ar    1  UNL1       -0.0540
     15 C           2.4541   -4.4992    0.2919 C.ar    1  UNL1       -0.0612
     16 C           1.3053   -4.6845   -0.4329 C.ar    1  UNL1       -0.0617
     17 C           0.7139   -3.5944   -1.0745 C.ar    1  UNL1       -0.0612
     18 C           1.2756   -2.3481   -0.9823 C.ar    1  UNL1       -0.0540
     19 C           2.3734    0.1541    0.4514 C.ar    1  UNL1        0.0794
     20 C           1.0173   -0.0368    0.9501 C.ar    1  UNL1        0.0010
     21 C           0.7732   -0.9184    1.9812 C.ar    1  UNL1       -0.0522
     22 C          -0.4972   -1.1152    2.4712 C.ar    1  UNL1       -0.0567
     23 C          -1.6063   -0.4416    1.9591 C.ar    1  UNL1       -0.0333
     24 C          -2.9556   -0.6798    2.5310 C.3     1  UNL1        0.0240
     25 N          -3.5657   -1.7826    1.8796 N.3     1  UNL1       -0.2981
     26 C          -4.8632   -2.1284    2.4146 C.3     1  UNL1       -0.0001
     27 C          -5.8892   -2.2025    1.3046 C.3     1  UNL1       -0.0304
     28 C          -5.7642   -0.8671    0.5496 C.3     1  UNL1        0.0212
     29 C          -6.9644   -0.6320   -0.2811 C.ar    1  UNL1        0.1344
     30 N          -7.4311   -1.3423   -1.3206 N.ar    1  UNL1       -0.1339
     31 N          -8.5350   -0.7616   -1.7503 N.ar    1  UNL1       -0.1278
     32 C          -8.8079    0.3273   -1.0094 C.ar    1  UNL1        0.1800
     33 C          -9.9465    1.2228   -1.1856 C.ar    1  UNL1        0.1077
     34 C         -10.1465    2.3170   -0.3769 C.ar    1  UNL1       -0.0326
     35 C         -11.2369    3.1673   -0.5529 C.ar    1  UNL1       -0.0582
     36 C         -12.1347    2.9097   -1.5572 C.ar    1  UNL1       -0.0436
     37 C         -11.9156    1.8076   -2.3575 C.ar    1  UNL1        0.0284
     38 N         -10.8386    0.9907   -2.1622 N.ar    1  UNL1       -0.2519
     39 N          -7.8187    0.3855   -0.1050 N.ar    1  UNL1       -0.3237
     40 C          -4.4880   -0.9669   -0.2462 C.3     1  UNL1       -0.0304
     41 C          -3.4882   -1.8454    0.4683 C.3     1  UNL1       -0.0001
     42 C          -1.3525    0.4423    0.9229 C.ar    1  UNL1       -0.0567
     43 C          -0.0703    0.6333    0.4374 C.ar    1  UNL1       -0.0522
     44 N           3.0008    1.3438    0.5364 N.ar    1  UNL1       -0.2459
     45 C           4.2417    1.5885    0.1046 C.ar    1  UNL1        0.0766
     46 C           4.8574    2.8084    0.2054 C.ar    1  UNL1       -0.0190
     47 C           6.1318    2.9651   -0.2624 C.ar    1  UNL1        0.0150
     48 N           6.8267    1.9514   -0.8314 N.ar    1  UNL1       -0.2847
     49 H          12.5661    0.4302    0.1449 H       1  UNL1        0.2095
     50 H          12.4447    2.4888   -1.1198 H       1  UNL1        0.0570
     51 H          11.2658    1.5622   -2.1651 H       1  UNL1        0.0570
     52 H           9.9474    0.9830   -0.1300 H       1  UNL1        0.0446
     53 H          11.1550    1.8423    0.9069 H       1  UNL1        0.0446
     54 H           9.2833    3.1303    0.5558 H       1  UNL1        0.1224
     55 H           8.5520    3.9549   -1.5510 H       1  UNL1        0.0505
     56 H           9.6832    2.8254   -2.3367 H       1  UNL1        0.0505
     57 H           4.8798   -1.5533   -1.0475 H       1  UNL1        0.0632
     58 H           3.9467   -3.1350    0.9792 H       1  UNL1        0.0624
     59 H           2.8806   -5.3778    0.7756 H       1  UNL1        0.0618
     60 H           0.8536   -5.6642   -0.5111 H       1  UNL1        0.0618
     61 H          -0.1882   -3.7790   -1.6344 H       1  UNL1        0.0618
     62 H           0.8065   -1.5172   -1.4848 H       1  UNL1        0.0624
     63 H           1.6188   -1.4515    2.3927 H       1  UNL1        0.0624
     64 H          -0.6882   -1.8197    3.2947 H       1  UNL1        0.0621
     65 H          -3.5151    0.2769    2.4162 H       1  UNL1        0.0476
     66 H          -2.8050   -0.8782    3.6178 H       1  UNL1        0.0476
     67 H          -4.8480   -3.0606    3.0056 H       1  UNL1        0.0427
     68 H          -5.1819   -1.3032    3.0893 H       1  UNL1        0.0427
     69 H          -6.9122   -2.2836    1.7001 H       1  UNL1        0.0284
     70 H          -5.6033   -3.0262    0.6354 H       1  UNL1        0.0284
     71 H          -5.6414   -0.0502    1.2880 H       1  UNL1        0.0380
     72 H          -9.4431    2.5186    0.4078 H       1  UNL1        0.0640
     73 H         -11.4128    4.0320    0.0714 H       1  UNL1        0.0619
     74 H         -13.0070    3.5368   -1.7471 H       1  UNL1        0.0633
     75 H         -12.6152    1.5881   -3.1572 H       1  UNL1        0.0830
     76 H          -7.7702    1.1489    0.6217 H       1  UNL1        0.1686
     77 H          -4.7634   -1.5197   -1.1914 H       1  UNL1        0.0284
     78 H          -4.0935   -0.0026   -0.5753 H       1  UNL1        0.0284
     79 H          -2.4811   -1.5454    0.1322 H       1  UNL1        0.0427
     80 H          -3.6245   -2.9247    0.1764 H       1  UNL1        0.0427
     81 H          -2.2019    0.9907    0.4959 H       1  UNL1        0.0621
     82 H           0.0758    1.3315   -0.3696 H       1  UNL1        0.0624
     83 H           4.3389    3.6299    0.6470 H       1  UNL1        0.0654
     84 H           6.6656    3.9169   -0.2053 H       1  UNL1        0.0814
@<TRIPOS>BOND
     1     1     2    1
     2     2     3    1
     3     3     4    1
     4     4     5    1
     5     5     6    1
     6     6     7   ar
     7     7     8   ar
     8     8     9   ar
     9     9    10   ar
    10    10    11   ar
    11    11    12   ar
    12    12    13    1
    13    13    14   ar
    14    14    15   ar
    15    15    16   ar
    16    16    17   ar
    17    17    18   ar
    18    12    19   ar
    19    19    20    1
    20    20    21   ar
    21    21    22   ar
    22    22    23   ar
    23    23    24    1
    24    24    25    1
    25    25    26    1
    26    26    27    1
    27    27    28    1
    28    28    29    1
    29    29    30   ar
    30    30    31   ar
    31    31    32   ar
    32    32    33    1
    33    33    34   ar
    34    34    35   ar
    35    35    36   ar
    36    36    37   ar
    37    37    38   ar
    38    32    39   ar
    39    28    40    1
    40    40    41    1
    41    23    42   ar
    42    42    43   ar
    43    19    44   ar
    44    44    45   ar
    45    45    46   ar
    46    46    47   ar
    47    47    48   ar
    48    48     6   ar
    49    48     9   ar
    50    45    10   ar
    51    18    13   ar
    52    43    20   ar
    53    41    25    1
    54    39    29   ar
    55    38    33   ar
    56     1    49    1
    57     2    50    1
    58     2    51    1
    59     3    52    1
    60     3    53    1
    61     4    54    1
    62     5    55    1
    63     5    56    1
    64    11    57    1
    65    14    58    1
    66    15    59    1
    67    16    60    1
    68    17    61    1
    69    18    62    1
    70    21    63    1
    71    22    64    1
    72    24    65    1
    73    24    66    1
    74    26    67    1
    75    26    68    1
    76    27    69    1
    77    27    70    1
    78    28    71    1
    79    34    72    1
    80    35    73    1
    81    36    74    1
    82    37    75    1
    83    39    76    1
    84    40    77    1
    85    40    78    1
    86    41    79    1
    87    41    80    1
    88    42    81    1
    89    43    82    1
    90    46    83    1
    91    47    84    1
