@<TRIPOS>MOLECULE
*****
 49 54 0 0 0
SMALL
GASTEIGER

@<TRIPOS>ATOM
      1 C          -8.0853    0.1954    0.5985 C.3     1  UNL1        0.0085
      2 N          -6.7091    0.0120    1.0159 N.am    1  UNL1       -0.2674
      3 C          -6.3472   -0.5927    2.2415 C.2     1  UNL1        0.2573
      4 O          -7.1879   -1.3131    2.8357 O.2     1  UNL1       -0.2715
      5 C          -4.9683   -0.3476    2.7834 C.3     1  UNL1        0.1658
      6 O          -4.0133   -0.2918    1.7256 O.3     1  UNL1       -0.4802
      7 C          -4.3651    0.2998    0.5263 C.ar    1  UNL1        0.1531
      8 C          -5.6857    0.4665    0.1430 C.ar    1  UNL1        0.0970
      9 C          -6.0238    1.0559   -1.0517 C.ar    1  UNL1        0.0532
     10 N          -5.0764    1.4928   -1.8923 N.ar    1  UNL1       -0.2529
     11 C          -3.7870    1.3378   -1.5334 C.ar    1  UNL1        0.0747
     12 C          -2.7620    1.7791   -2.3785 C.ar    1  UNL1       -0.0346
     13 C          -1.4405    1.6300   -2.0283 C.ar    1  UNL1       -0.0458
     14 C          -1.0448    1.0463   -0.8430 C.ar    1  UNL1        0.0164
     15 S           0.6759    0.8622   -0.4026 S.3     1  UNL1       -0.0496
     16 C           1.3116   -0.6920   -0.9946 C.ar    1  UNL1        0.2007
     17 N           0.6735   -1.6544   -1.6817 N.ar    1  UNL1       -0.1214
     18 N           1.5028   -2.6535   -1.9310 N.ar    1  UNL1       -0.1256
     19 C           2.6955   -2.3665   -1.4144 C.ar    1  UNL1        0.1972
     20 C           3.8887   -3.0580   -1.3941 C.ar    1  UNL1        0.1684
     21 F           3.9381   -4.2655   -1.9920 F       1  UNL1       -0.2016
     22 C           4.9521   -2.4571   -0.7581 C.ar    1  UNL1       -0.0135
     23 C           4.8212   -1.2038   -0.1627 C.ar    1  UNL1        0.0045
     24 C           5.9744   -0.6159    0.4950 C.ar    1  UNL1        0.0210
     25 C           6.9943   -1.2712    1.1515 C.ar    1  UNL1        0.0571
     26 N           7.8454   -0.3342    1.6035 N.ar    1  UNL1       -0.1793
     27 N           7.4446    0.8711    1.2844 N.ar    1  UNL1       -0.2739
     28 C           8.1320    2.0995    1.6186 C.3     1  UNL1        0.0302
     29 C           6.2969    0.7338    0.6022 C.ar    1  UNL1        0.0329
     30 C           3.6133   -0.5404   -0.2018 C.ar    1  UNL1        0.0216
     31 N           2.5619   -1.1364   -0.8315 N.ar    1  UNL1       -0.2744
     32 C          -2.0440    0.6084   -0.0039 C.ar    1  UNL1       -0.0351
     33 C          -3.3910    0.7566   -0.3532 C.ar    1  UNL1        0.0450
     34 H          -8.2938    1.2614    0.3392 H       1  UNL1        0.0433
     35 H          -8.7813   -0.1223    1.4006 H       1  UNL1        0.0433
     36 H          -8.2313   -0.4448   -0.2938 H       1  UNL1        0.0433
     37 H          -4.9898    0.5958    3.3344 H       1  UNL1        0.0795
     38 H          -4.7050   -1.2085    3.4189 H       1  UNL1        0.0795
     39 H          -7.0643    1.1676   -1.3146 H       1  UNL1        0.0850
     40 H          -3.0431    2.2395   -3.3124 H       1  UNL1        0.0639
     41 H          -0.6240    1.9679   -2.6741 H       1  UNL1        0.0629
     42 H           5.8953   -2.9778   -0.7289 H       1  UNL1        0.0654
     43 H           7.1025   -2.3243    1.2852 H       1  UNL1        0.0854
     44 H           9.2424    1.9948    1.5516 H       1  UNL1        0.0473
     45 H           7.8384    2.9174    0.9478 H       1  UNL1        0.0473
     46 H           7.8839    2.3730    2.6571 H       1  UNL1        0.0473
     47 H           5.6885    1.5206    0.1851 H       1  UNL1        0.0832
     48 H           3.4839    0.4465    0.2588 H       1  UNL1        0.0820
     49 H          -1.7931    0.1399    0.9449 H       1  UNL1        0.0636
@<TRIPOS>BOND
     1     1     2    1
     2     2     3   am
     3     3     4    2
     4     3     5    1
     5     5     6    1
     6     6     7    1
     7     7     8   ar
     8     8     9   ar
     9     9    10   ar
    10    10    11   ar
    11    11    12   ar
    12    12    13   ar
    13    13    14   ar
    14    14    15    1
    15    15    16    1
    16    16    17   ar
    17    17    18   ar
    18    18    19   ar
    19    19    20   ar
    20    20    21    1
    21    20    22   ar
    22    22    23   ar
    23    23    24    1
    24    24    25   ar
    25    25    26   ar
    26    26    27   ar
    27    27    28    1
    28    27    29   ar
    29    23    30   ar
    30    30    31   ar
    31    14    32   ar
    32    32    33   ar
    33     8     2    1
    34    33    11   ar
    35    33     7   ar
    36    31    16   ar
    37    31    19   ar
    38    29    24   ar
    39     1    34    1
    40     1    35    1
    41     1    36    1
    42     5    37    1
    43     5    38    1
    44     9    39    1
    45    12    40    1
    46    13    41    1
    47    22    42    1
    48    25    43    1
    49    28    44    1
    50    28    45    1
    51    28    46    1
    52    29    47    1
    53    30    48    1
    54    32    49    1
