@<TRIPOS>MOLECULE
*****
 41 43 0 0 0
SMALL
GASTEIGER

@<TRIPOS>ATOM
      1 O           1.6980    0.4351    0.5338 O.2     1  UNL1       -0.2750
      2 C           2.0117    0.5427   -0.6650 C.2     1  UNL1        0.2245
      3 C           1.0267    1.1361   -1.6156 C.3     1  UNL1        0.0824
      4 C          -0.2308    1.5125   -0.8990 C.ar    1  UNL1        0.1206
      5 N          -1.2441    0.6396   -0.7725 N.ar    1  UNL1       -0.2186
      6 C          -2.3963    0.9302   -0.1368 C.ar    1  UNL1        0.1285
      7 N          -3.4540   -0.0149   -0.0177 N.pl3   1  UNL1       -0.3106
      8 C          -3.2622   -1.3257   -0.6061 C.3     1  UNL1        0.0370
      9 C          -4.1861   -2.2736    0.1688 C.3     1  UNL1        0.0634
     10 O          -5.4674   -1.7809    0.0123 O.3     1  UNL1       -0.3767
     11 C          -5.7221   -0.6262    0.7089 C.3     1  UNL1        0.0634
     12 C          -4.6394    0.3904    0.6757 C.3     1  UNL1        0.0370
     13 C          -2.4766    2.2038    0.3880 C.ar    1  UNL1        0.0427
     14 C          -1.4341    3.0941    0.2548 C.ar    1  UNL1        0.2533
     15 O          -1.5454    4.2472    0.7475 O.2     1  UNL1       -0.2677
     16 N          -0.3071    2.7524   -0.3889 N.ar    1  UNL1       -0.3104
     17 N           3.2793    0.1059   -1.0957 N.am    1  UNL1       -0.2851
     18 C           4.3010   -0.4690   -0.3155 C.ar    1  UNL1        0.0346
     19 C           5.4825   -0.8251   -0.9746 C.ar    1  UNL1       -0.0377
     20 C           6.5552   -1.3931   -0.3356 C.ar    1  UNL1       -0.0236
     21 C           6.4660   -1.6266    1.0311 C.ar    1  UNL1        0.1374
     22 F           7.5339   -2.1872    1.6427 F       1  UNL1       -0.2043
     23 C           5.3137   -1.2848    1.7016 C.ar    1  UNL1        0.0548
     24 BR          5.1910   -1.6060    3.5816 Br      1  UNL1       -0.0473
     25 C           4.2288   -0.7057    1.0321 C.ar    1  UNL1       -0.0237
     26 H           1.4517    2.0034   -2.1636 H       1  UNL1        0.0438
     27 H           0.7682    0.3810   -2.3658 H       1  UNL1        0.0438
     28 H          -3.6683   -1.3437   -1.6597 H       1  UNL1        0.0487
     29 H          -2.2234   -1.6548   -0.5934 H       1  UNL1        0.0487
     30 H          -3.8390   -2.2627    1.2176 H       1  UNL1        0.0575
     31 H          -4.1441   -3.2895   -0.2592 H       1  UNL1        0.0575
     32 H          -6.0424   -0.9072    1.7423 H       1  UNL1        0.0575
     33 H          -6.6368   -0.1607    0.2371 H       1  UNL1        0.0575
     34 H          -4.3478    0.6275    1.7291 H       1  UNL1        0.0487
     35 H          -4.9716    1.3591    0.2101 H       1  UNL1        0.0487
     36 H          -3.3993    2.4581    0.9053 H       1  UNL1        0.0706
     37 H           0.4999    3.4425   -0.4916 H       1  UNL1        0.1700
     38 H           3.4549    0.2390   -2.1352 H       1  UNL1        0.1548
     39 H           5.5680   -0.6464   -2.0568 H       1  UNL1        0.0637
     40 H           7.4676   -1.6645   -0.8628 H       1  UNL1        0.0647
     41 H           3.3400   -0.4523    1.6010 H       1  UNL1        0.0648
@<TRIPOS>BOND
     1     1     2    2
     2     2     3    1
     3     3     4    1
     4     4     5   ar
     5     5     6   ar
     6     6     7    1
     7     7     8    1
     8     8     9    1
     9     9    10    1
    10    10    11    1
    11    11    12    1
    12     6    13   ar
    13    13    14   ar
    14    14    15    2
    15    14    16   ar
    16     2    17   am
    17    17    18    1
    18    18    19   ar
    19    19    20   ar
    20    20    21   ar
    21    21    22    1
    22    21    23   ar
    23    23    24    1
    24    23    25   ar
    25    16     4   ar
    26    25    18   ar
    27    12     7    1
    28     3    26    1
    29     3    27    1
    30     8    28    1
    31     8    29    1
    32     9    30    1
    33     9    31    1
    34    11    32    1
    35    11    33    1
    36    12    34    1
    37    12    35    1
    38    13    36    1
    39    16    37    1
    40    17    38    1
    41    19    39    1
    42    20    40    1
    43    25    41    1
