
     RDKit          3D

 41 43  0  0  0  0  0  0  0  0999 V2000
    1.6980    0.4351    0.5338 O   0  0  0  0  0  0  0  0  0  0  0  0
    2.0117    0.5427   -0.6650 C   0  0  0  0  0  0  0  0  0  0  0  0
    1.0267    1.1361   -1.6156 C   0  0  0  0  0  0  0  0  0  0  0  0
   -0.2308    1.5125   -0.8990 C   0  0  0  0  0  0  0  0  0  0  0  0
   -1.2441    0.6396   -0.7725 N   0  0  0  0  0  0  0  0  0  0  0  0
   -2.3963    0.9302   -0.1368 C   0  0  0  0  0  0  0  0  0  0  0  0
   -3.4540   -0.0149   -0.0177 N   0  0  0  0  0  0  0  0  0  0  0  0
   -3.2622   -1.3257   -0.6061 C   0  0  0  0  0  0  0  0  0  0  0  0
   -4.1861   -2.2736    0.1688 C   0  0  0  0  0  0  0  0  0  0  0  0
   -5.4674   -1.7809    0.0123 O   0  0  0  0  0  0  0  0  0  0  0  0
   -5.7221   -0.6262    0.7089 C   0  0  0  0  0  0  0  0  0  0  0  0
   -4.6394    0.3904    0.6757 C   0  0  0  0  0  0  0  0  0  0  0  0
   -2.4766    2.2038    0.3880 C   0  0  0  0  0  0  0  0  0  0  0  0
   -1.4341    3.0941    0.2548 C   0  0  0  0  0  0  0  0  0  0  0  0
   -1.5454    4.2472    0.7475 O   0  0  0  0  0  0  0  0  0  0  0  0
   -0.3071    2.7524   -0.3889 N   0  0  0  0  0  0  0  0  0  0  0  0
    3.2793    0.1059   -1.0957 N   0  0  0  0  0  0  0  0  0  0  0  0
    4.3010   -0.4690   -0.3155 C   0  0  0  0  0  0  0  0  0  0  0  0
    5.4825   -0.8251   -0.9746 C   0  0  0  0  0  0  0  0  0  0  0  0
    6.5552   -1.3931   -0.3356 C   0  0  0  0  0  0  0  0  0  0  0  0
    6.4660   -1.6266    1.0311 C   0  0  0  0  0  0  0  0  0  0  0  0
    7.5339   -2.1872    1.6427 F   0  0  0  0  0  0  0  0  0  0  0  0
    5.3137   -1.2848    1.7016 C   0  0  0  0  0  0  0  0  0  0  0  0
    5.1910   -1.6060    3.5816 Br  0  0  0  0  0  0  0  0  0  0  0  0
    4.2288   -0.7057    1.0321 C   0  0  0  0  0  0  0  0  0  0  0  0
    1.4517    2.0034   -2.1636 H   0  0  0  0  0  0  0  0  0  0  0  0
    0.7682    0.3810   -2.3658 H   0  0  0  0  0  0  0  0  0  0  0  0
   -3.6683   -1.3437   -1.6597 H   0  0  0  0  0  0  0  0  0  0  0  0
   -2.2234   -1.6548   -0.5934 H   0  0  0  0  0  0  0  0  0  0  0  0
   -3.8390   -2.2627    1.2176 H   0  0  0  0  0  0  0  0  0  0  0  0
   -4.1441   -3.2895   -0.2592 H   0  0  0  0  0  0  0  0  0  0  0  0
   -6.0424   -0.9072    1.7423 H   0  0  0  0  0  0  0  0  0  0  0  0
   -6.6368   -0.1607    0.2371 H   0  0  0  0  0  0  0  0  0  0  0  0
   -4.3478    0.6275    1.7291 H   0  0  0  0  0  0  0  0  0  0  0  0
   -4.9716    1.3591    0.2101 H   0  0  0  0  0  0  0  0  0  0  0  0
   -3.3993    2.4581    0.9053 H   0  0  0  0  0  0  0  0  0  0  0  0
    0.4999    3.4425   -0.4916 H   0  0  0  0  0  0  0  0  0  0  0  0
    3.4549    0.2390   -2.1352 H   0  0  0  0  0  0  0  0  0  0  0  0
    5.5680   -0.6464   -2.0568 H   0  0  0  0  0  0  0  0  0  0  0  0
    7.4676   -1.6645   -0.8628 H   0  0  0  0  0  0  0  0  0  0  0  0
    3.3400   -0.4523    1.6010 H   0  0  0  0  0  0  0  0  0  0  0  0
  1  2  2  0
  2  3  1  0
  3  4  1  0
  4  5  2  0
  5  6  1  0
  6  7  1  0
  7  8  1  0
  8  9  1  0
  9 10  1  0
 10 11  1  0
 11 12  1  0
  6 13  2  0
 13 14  1  0
 14 15  2  0
 14 16  1  0
  2 17  1  0
 17 18  1  0
 18 19  2  0
 19 20  1  0
 20 21  2  0
 21 22  1  0
 21 23  1  0
 23 24  1  0
 23 25  2  0
 16  4  1  0
 25 18  1  0
 12  7  1  0
  3 26  1  0
  3 27  1  0
  8 28  1  0
  8 29  1  0
  9 30  1  0
  9 31  1  0
 11 32  1  0
 11 33  1  0
 12 34  1  0
 12 35  1  0
 13 36  1  0
 16 37  1  0
 17 38  1  0
 19 39  1  0
 20 40  1  0
 25 41  1  0
M  END
$$$$
