@<TRIPOS>MOLECULE
*****
 54 58 0 0 0
SMALL
GASTEIGER

@<TRIPOS>ATOM
      1 C          -6.5871   -0.6914   -1.7384 C.3     1  UNL1       -0.0199
      2 C          -6.1077    0.2989   -0.7456 C.ar    1  UNL1        0.0706
      3 N          -6.8832    1.2234   -0.1630 N.ar    1  UNL1       -0.1760
      4 N          -6.1511    1.9594    0.6805 N.ar    1  UNL1       -0.2735
      5 C          -6.6887    3.0470    1.4714 C.3     1  UNL1        0.0302
      6 C          -4.8875    1.4801    0.6208 C.ar    1  UNL1        0.0361
      7 C          -4.8300    0.4440   -0.2605 C.ar    1  UNL1        0.0576
      8 C          -3.6356   -0.3308   -0.5956 C.ar    1  UNL1        0.1443
      9 N          -3.5624   -1.3656   -1.4715 N.ar    1  UNL1       -0.2082
     10 C          -2.3227   -1.8584   -1.5496 C.ar    1  UNL1        0.1802
     11 N          -1.7299   -2.8573   -2.2483 N.ar    1  UNL1       -0.2329
     12 C          -0.4172   -3.1137   -2.1010 C.ar    1  UNL1        0.0502
     13 C           0.3833   -2.3949   -1.2529 C.ar    1  UNL1        0.0821
     14 CL          2.0778   -2.6874   -1.0295 Cl      1  UNL1       -0.0800
     15 C          -0.2097   -1.3758   -0.5368 C.ar    1  UNL1        0.0772
     16 N           0.5203   -0.5621    0.3736 N.pl3   1  UNL1       -0.3246
     17 C           0.5929   -1.0075    1.7491 C.3     1  UNL1        0.0251
     18 C           2.0318   -1.0646    2.1942 C.3     1  UNL1        0.0150
     19 N           2.9467   -0.4127    1.3645 N.3     1  UNL1       -0.2952
     20 C           4.2821   -0.8551    1.3368 C.3     1  UNL1        0.0241
     21 C           5.1178   -0.0559    0.4072 C.ar    1  UNL1       -0.0333
     22 C           5.7950    1.0853    0.8299 C.ar    1  UNL1       -0.0560
     23 C           6.5685    1.8182   -0.0459 C.ar    1  UNL1       -0.0431
     24 C           6.6874    1.4340   -1.3642 C.ar    1  UNL1        0.0410
     25 CL          7.6713    2.3522   -2.5119 Cl      1  UNL1       -0.0835
     26 C           6.0268    0.3043   -1.8159 C.ar    1  UNL1       -0.0431
     27 C           5.2692   -0.3983   -0.9217 C.ar    1  UNL1       -0.0560
     28 C           2.5631    0.7009    0.6118 C.3     1  UNL1        0.0150
     29 C           1.1828    0.6566    0.0286 C.3     1  UNL1        0.0251
     30 C          -1.5738   -1.0954   -0.6777 C.ar    1  UNL1        0.1083
     31 N          -2.3885   -0.1859   -0.1190 N.ar    1  UNL1       -0.3350
     32 H          -7.5936   -1.0766   -1.5078 H       1  UNL1        0.0293
     33 H          -6.5851   -0.2662   -2.7791 H       1  UNL1        0.0293
     34 H          -5.9166   -1.5832   -1.7997 H       1  UNL1        0.0293
     35 H          -5.9559    3.8751    1.6002 H       1  UNL1        0.0473
     36 H          -7.1149    2.6875    2.4149 H       1  UNL1        0.0473
     37 H          -7.5526    3.4979    0.9014 H       1  UNL1        0.0473
     38 H          -4.0788    1.8863    1.2002 H       1  UNL1        0.0833
     39 H           0.0763   -3.9189   -2.6598 H       1  UNL1        0.0846
     40 H           0.0878   -0.2042    2.3585 H       1  UNL1        0.0476
     41 H           0.0423   -1.9484    1.9225 H       1  UNL1        0.0476
     42 H           2.2967   -2.1618    2.2372 H       1  UNL1        0.0442
     43 H           2.1372   -0.6898    3.2413 H       1  UNL1        0.0442
     44 H           4.7331   -0.7102    2.3609 H       1  UNL1        0.0476
     45 H           4.4281   -1.9213    1.0568 H       1  UNL1        0.0476
     46 H           5.7049    1.3871    1.8545 H       1  UNL1        0.0621
     47 H           7.0887    2.6952    0.2794 H       1  UNL1        0.0632
     48 H           6.1110   -0.0124   -2.8559 H       1  UNL1        0.0632
     49 H           4.7289   -1.2993   -1.2366 H       1  UNL1        0.0621
     50 H           3.2722    0.8688   -0.2282 H       1  UNL1        0.0442
     51 H           2.6439    1.6217    1.2604 H       1  UNL1        0.0442
     52 H           0.5751    1.5306    0.3694 H       1  UNL1        0.0476
     53 H           1.1928    0.7364   -1.0893 H       1  UNL1        0.0476
     54 H          -2.0634    0.5143    0.5793 H       1  UNL1        0.1675
@<TRIPOS>BOND
     1     1     2    1
     2     2     3   ar
     3     3     4   ar
     4     4     5    1
     5     4     6   ar
     6     6     7   ar
     7     7     8    1
     8     8     9   ar
     9     9    10   ar
    10    10    11   ar
    11    11    12   ar
    12    12    13   ar
    13    13    14    1
    14    13    15   ar
    15    15    16    1
    16    16    17    1
    17    17    18    1
    18    18    19    1
    19    19    20    1
    20    20    21    1
    21    21    22   ar
    22    22    23   ar
    23    23    24   ar
    24    24    25    1
    25    24    26   ar
    26    26    27   ar
    27    19    28    1
    28    28    29    1
    29    15    30   ar
    30    30    31   ar
    31     7     2   ar
    32    31     8   ar
    33    30    10   ar
    34    29    16    1
    35    27    21   ar
    36     1    32    1
    37     1    33    1
    38     1    34    1
    39     5    35    1
    40     5    36    1
    41     5    37    1
    42     6    38    1
    43    12    39    1
    44    17    40    1
    45    17    41    1
    46    18    42    1
    47    18    43    1
    48    20    44    1
    49    20    45    1
    50    22    46    1
    51    23    47    1
    52    26    48    1
    53    27    49    1
    54    28    50    1
    55    28    51    1
    56    29    52    1
    57    29    53    1
    58    31    54    1
