@<TRIPOS>MOLECULE
*****
 36 37 0 0 0
SMALL
GASTEIGER

@<TRIPOS>ATOM
      1 O          -5.6615   -1.5573    0.1600 O.2     1  UNL1       -0.2723
      2 C          -5.1649   -0.4477   -0.1026 C.2     1  UNL1        0.2510
      3 C          -3.9337   -0.0075    0.5726 C.3     1  UNL1        0.0957
      4 N          -3.5010   -1.0217    1.4807 N.3     1  UNL1       -0.1811
      5 S          -2.0772   -0.6393    2.3343 S.O2    1  UNL1        0.0588
      6 O          -1.7605   -1.7416    3.2892 O.2     1  UNL1       -0.1530
      7 O          -2.3124    0.6713    3.0561 O.2     1  UNL1       -0.1530
      8 C          -0.7809   -0.4281    1.1534 C.ar    1  UNL1        0.1055
      9 C          -0.0103   -1.5043    0.7721 C.ar    1  UNL1       -0.0319
     10 C           1.0129   -1.3679   -0.1519 C.ar    1  UNL1       -0.0175
     11 C           1.2409   -0.1260   -0.6811 C.ar    1  UNL1        0.1286
     12 O           2.2663    0.0074   -1.6062 O.3     1  UNL1       -0.4560
     13 C           3.5376    0.3126   -1.1362 C.ar    1  UNL1        0.1284
     14 C           4.4199   -0.7009   -0.7991 C.ar    1  UNL1       -0.0193
     15 C           5.6888   -0.3977   -0.3301 C.ar    1  UNL1       -0.0583
     16 C           6.1078    0.9104   -0.1860 C.ar    1  UNL1       -0.0615
     17 C           5.2352    1.9365   -0.5196 C.ar    1  UNL1       -0.0583
     18 C           3.9697    1.6095   -0.9872 C.ar    1  UNL1       -0.0193
     19 C           0.4735    0.9451   -0.3013 C.ar    1  UNL1       -0.0175
     20 C          -0.5596    0.8221    0.6277 C.ar    1  UNL1       -0.0319
     21 N          -5.7741    0.4016   -1.0491 N.am    1  UNL1       -0.1964
     22 O          -6.9165   -0.0390   -1.6571 O.3     1  UNL1       -0.2952
     23 H          -4.0647    0.9427    1.1284 H       1  UNL1        0.0537
     24 H          -3.1002    0.1333   -0.1779 H       1  UNL1        0.0537
     25 H          -3.5659   -1.9818    1.1322 H       1  UNL1        0.1485
     26 H          -0.2115   -2.4893    1.2096 H       1  UNL1        0.0638
     27 H           1.5935   -2.2353   -0.4240 H       1  UNL1        0.0655
     28 H           4.0685   -1.7179   -0.9207 H       1  UNL1        0.0654
     29 H           6.3807   -1.2030   -0.0657 H       1  UNL1        0.0619
     30 H           7.0930    1.1373    0.1782 H       1  UNL1        0.0618
     31 H           5.5675    2.9584   -0.4052 H       1  UNL1        0.0619
     32 H           3.2798    2.4091   -1.2509 H       1  UNL1        0.0654
     33 H           0.6523    1.9179   -0.7161 H       1  UNL1        0.0655
     34 H          -1.1651    1.6674    0.9273 H       1  UNL1        0.0638
     35 H          -5.4256    1.3411   -1.3257 H       1  UNL1        0.1822
     36 H          -6.6026   -0.5171   -2.4707 H       1  UNL1        0.2414
@<TRIPOS>BOND
     1     1     2    2
     2     2     3    1
     3     3     4    1
     4     4     5    1
     5     5     6    2
     6     5     7    2
     7     5     8    1
     8     8     9   ar
     9     9    10   ar
    10    10    11   ar
    11    11    12    1
    12    12    13    1
    13    13    14   ar
    14    14    15   ar
    15    15    16   ar
    16    16    17   ar
    17    17    18   ar
    18    11    19   ar
    19    19    20   ar
    20     2    21   am
    21    21    22    1
    22    20     8   ar
    23    18    13   ar
    24     3    23    1
    25     3    24    1
    26     4    25    1
    27     9    26    1
    28    10    27    1
    29    14    28    1
    30    15    29    1
    31    16    30    1
    32    17    31    1
    33    18    32    1
    34    19    33    1
    35    20    34    1
    36    21    35    1
    37    22    36    1
