@<TRIPOS>MOLECULE
*****
 32 32 0 0 0
SMALL
GASTEIGER

@<TRIPOS>ATOM
      1 C          -3.3983   -0.9783   -1.1677 C.3     1  UNL1       -0.0119
      2 N          -3.0625   -0.6205    0.1895 N.3     1  UNL1       -0.2945
      3 C          -1.6526   -0.4035    0.4162 C.3     1  UNL1        0.0026
      4 C          -0.9043   -1.7039    0.2513 C.3     1  UNL1       -0.0058
      5 C           0.5560   -1.4209    0.5458 C.3     1  UNL1        0.0908
      6 O           1.0866   -0.4271   -0.2730 O.3     1  UNL1       -0.4905
      7 C           2.4111   -0.0310   -0.1269 C.ar    1  UNL1        0.1388
      8 C           3.3820   -0.4961    0.7546 C.ar    1  UNL1       -0.0171
      9 C           4.6476    0.0402    0.7302 C.ar    1  UNL1       -0.0398
     10 C           5.0032    1.0515   -0.1590 C.ar    1  UNL1        0.0426
     11 CL          6.6261    1.7114   -0.1553 Cl      1  UNL1       -0.0835
     12 C           4.0253    1.5118   -1.0389 C.ar    1  UNL1       -0.0215
     13 C           2.7374    0.9823   -1.0311 C.ar    1  UNL1        0.0839
     14 CL          1.6358    1.6726   -2.1947 Cl      1  UNL1       -0.0797
     15 C          -3.8474    0.5243    0.6355 C.3     1  UNL1        0.0604
     16 C          -3.4545    1.7087   -0.1104 C.1     1  UNL1       -0.0900
     17 C          -3.1286    2.7019   -0.7115 C.1     1  UNL1       -0.1179
     18 H          -4.0152   -1.9215   -1.0766 H       1  UNL1        0.0391
     19 H          -4.0926   -0.2075   -1.6033 H       1  UNL1        0.0391
     20 H          -2.5603   -1.0824   -1.8544 H       1  UNL1        0.0391
     21 H          -1.5379   -0.0135    1.4499 H       1  UNL1        0.0428
     22 H          -1.2326    0.3711   -0.2612 H       1  UNL1        0.0428
     23 H          -1.0638   -2.0922   -0.7846 H       1  UNL1        0.0310
     24 H          -1.3051   -2.4871    0.9198 H       1  UNL1        0.0310
     25 H           0.6693   -1.2259    1.6256 H       1  UNL1        0.0697
     26 H           1.0901   -2.4106    0.3930 H       1  UNL1        0.0697
     27 H           3.0129   -1.2790    1.3987 H       1  UNL1        0.0655
     28 H           5.3597   -0.3647    1.4432 H       1  UNL1        0.0633
     29 H           4.3362    2.2955   -1.7105 H       1  UNL1        0.0648
     30 H          -3.5834    0.6821    1.7228 H       1  UNL1        0.0563
     31 H          -4.9156    0.3269    0.5708 H       1  UNL1        0.0563
     32 H          -2.8245    3.5854   -1.2396 H       1  UNL1        0.1228
@<TRIPOS>BOND
     1     1     2    1
     2     2     3    1
     3     3     4    1
     4     4     5    1
     5     5     6    1
     6     6     7    1
     7     7     8   ar
     8     8     9   ar
     9     9    10   ar
    10    10    11    1
    11    10    12   ar
    12    12    13   ar
    13    13    14    1
    14     2    15    1
    15    15    16    1
    16    16    17    3
    17    13     7   ar
    18     1    18    1
    19     1    19    1
    20     1    20    1
    21     3    21    1
    22     3    22    1
    23     4    23    1
    24     4    24    1
    25     5    25    1
    26     5    26    1
    27     8    27    1
    28     9    28    1
    29    12    29    1
    30    15    30    1
    31    15    31    1
    32    17    32    1
