
     RDKit          3D

 27 29  0  0  0  0  0  0  0  0999 V2000
   -2.1873    2.5424   -1.0404 O   0  0  0  0  0  0  0  0  0  0  0  0
   -1.5968    1.5187   -0.6191 C   0  0  0  0  0  0  0  0  0  0  0  0
   -0.2404    1.5352   -0.5557 N   0  0  0  0  0  0  0  0  0  0  0  0
    0.3683    0.4295   -0.1021 C   0  0  0  0  0  0  0  0  0  0  0  0
    1.8075    0.3051    0.0194 C   0  0  0  0  0  0  0  0  0  0  0  0
    2.6162    1.3511   -0.3386 C   0  0  0  0  0  0  0  0  0  0  0  0
    4.0026    1.1732   -0.1994 C   0  0  0  0  0  0  0  0  0  0  0  0
    4.5413    0.0008    0.2760 C   0  0  0  0  0  0  0  0  0  0  0  0
    6.4422   -0.2162    0.4566 Br  0  0  0  0  0  0  0  0  0  0  0  0
    3.7191   -1.0345    0.6292 C   0  0  0  0  0  0  0  0  0  0  0  0
    2.3469   -0.8681    0.4952 C   0  0  0  0  0  0  0  0  0  0  0  0
   -0.3695   -0.6581    0.2755 N   0  0  0  0  0  0  0  0  0  0  0  0
   -1.7061   -0.6943    0.2206 C   0  0  0  0  0  0  0  0  0  0  0  0
   -2.4354   -1.8067    0.6080 C   0  0  0  0  0  0  0  0  0  0  0  0
   -3.8125   -1.8452    0.5520 C   0  0  0  0  0  0  0  0  0  0  0  0
   -4.4545   -0.7165    0.0879 C   0  0  0  0  0  0  0  0  0  0  0  0
   -3.7296    0.4018   -0.3020 C   0  0  0  0  0  0  0  0  0  0  0  0
   -2.3539    0.4328   -0.2432 C   0  0  0  0  0  0  0  0  0  0  0  0
    0.3084    2.3690   -0.8460 H   0  0  0  0  0  0  0  0  0  0  0  0
    2.2597    2.3044   -0.7210 H   0  0  0  0  0  0  0  0  0  0  0  0
    4.6579    1.9751   -0.4720 H   0  0  0  0  0  0  0  0  0  0  0  0
    4.1445   -1.9635    1.0059 H   0  0  0  0  0  0  0  0  0  0  0  0
    1.7278   -1.6996    0.7809 H   0  0  0  0  0  0  0  0  0  0  0  0
   -1.9100   -2.6937    0.9738 H   0  0  0  0  0  0  0  0  0  0  0  0
   -4.3839   -2.7212    0.8572 H   0  0  0  0  0  0  0  0  0  0  0  0
   -5.5431   -0.7184    0.0327 H   0  0  0  0  0  0  0  0  0  0  0  0
   -4.2194    1.2968   -0.6691 H   0  0  0  0  0  0  0  0  0  0  0  0
  1  2  2  0
  2  3  1  0
  3  4  1  0
  4  5  1  0
  5  6  2  0
  6  7  1  0
  7  8  2  0
  8  9  1  0
  8 10  1  0
 10 11  2  0
  4 12  2  0
 12 13  1  0
 13 14  2  0
 14 15  1  0
 15 16  2  0
 16 17  1  0
 17 18  2  0
 18  2  1  0
 11  5  1  0
 18 13  1  0
  3 19  1  0
  6 20  1  0
  7 21  1  0
 10 22  1  0
 11 23  1  0
 14 24  1  0
 15 25  1  0
 16 26  1  0
 17 27  1  0
M  END
$$$$
