@<TRIPOS>MOLECULE
*****
 27 29 0 0 0
SMALL
GASTEIGER

@<TRIPOS>ATOM
      1 O          -2.1873    2.5424   -1.0404 O.2     1  UNL1       -0.2671
      2 C          -1.5968    1.5187   -0.6191 C.ar    1  UNL1        0.2595
      3 N          -0.2404    1.5352   -0.5557 N.ar    1  UNL1       -0.3064
      4 C           0.3683    0.4295   -0.1021 C.ar    1  UNL1        0.1414
      5 C           1.8075    0.3051    0.0194 C.ar    1  UNL1        0.0174
      6 C           2.6162    1.3511   -0.3386 C.ar    1  UNL1       -0.0501
      7 C           4.0026    1.1732   -0.1994 C.ar    1  UNL1       -0.0471
      8 C           4.5413    0.0008    0.2760 C.ar    1  UNL1        0.0179
      9 BR          6.4422   -0.2162    0.4566 Br      1  UNL1       -0.0503
     10 C           3.7191   -1.0345    0.6292 C.ar    1  UNL1       -0.0471
     11 C           2.3469   -0.8681    0.4952 C.ar    1  UNL1       -0.0501
     12 N          -0.3695   -0.6581    0.2755 N.ar    1  UNL1       -0.2290
     13 C          -1.7061   -0.6943    0.2206 C.ar    1  UNL1        0.0785
     14 C          -2.4354   -1.8067    0.6080 C.ar    1  UNL1       -0.0355
     15 C          -3.8125   -1.8452    0.5520 C.ar    1  UNL1       -0.0597
     16 C          -4.4545   -0.7165    0.0879 C.ar    1  UNL1       -0.0609
     17 C          -3.7296    0.4018   -0.3020 C.ar    1  UNL1       -0.0474
     18 C          -2.3539    0.4328   -0.2432 C.ar    1  UNL1        0.0647
     19 H           0.3084    2.3690   -0.8460 H       1  UNL1        0.1704
     20 H           2.2597    2.3044   -0.7210 H       1  UNL1        0.0625
     21 H           4.6579    1.9751   -0.4720 H       1  UNL1        0.0629
     22 H           4.1445   -1.9635    1.0059 H       1  UNL1        0.0629
     23 H           1.7278   -1.6996    0.7809 H       1  UNL1        0.0625
     24 H          -1.9100   -2.6937    0.9738 H       1  UNL1        0.0639
     25 H          -4.3839   -2.7212    0.8572 H       1  UNL1        0.0618
     26 H          -5.5431   -0.7184    0.0327 H       1  UNL1        0.0618
     27 H          -4.2194    1.2968   -0.6691 H       1  UNL1        0.0626
@<TRIPOS>BOND
     1     1     2    2
     2     2     3   ar
     3     3     4   ar
     4     4     5    1
     5     5     6   ar
     6     6     7   ar
     7     7     8   ar
     8     8     9    1
     9     8    10   ar
    10    10    11   ar
    11     4    12   ar
    12    12    13   ar
    13    13    14   ar
    14    14    15   ar
    15    15    16   ar
    16    16    17   ar
    17    17    18   ar
    18    18     2   ar
    19    11     5   ar
    20    18    13   ar
    21     3    19    1
    22     6    20    1
    23     7    21    1
    24    10    22    1
    25    11    23    1
    26    14    24    1
    27    15    25    1
    28    16    26    1
    29    17    27    1
