@<TRIPOS>MOLECULE
*****
 62 66 0 0 0
SMALL
GASTEIGER

@<TRIPOS>ATOM
      1 C           2.2071   -3.8604   -0.3794 C.3     1  UNL1        0.0789
      2 O           1.4285   -2.7128   -0.2300 O.3     1  UNL1       -0.4932
      3 C           1.9996   -1.4593   -0.0292 C.ar    1  UNL1        0.1429
      4 C           3.3738   -1.3717    0.0203 C.ar    1  UNL1        0.0029
      5 C           4.0078   -0.1655    0.2157 C.ar    1  UNL1        0.0334
      6 N           5.4230   -0.0901    0.2615 N.pl3   1  UNL1       -0.3274
      7 C           6.2268   -1.2690    0.0215 C.3     1  UNL1        0.0250
      8 C           7.6253   -0.9046   -0.4312 C.3     1  UNL1        0.0144
      9 N           8.2508    0.1111    0.3577 N.3     1  UNL1       -0.3024
     10 C           8.7982    1.1777   -0.4819 C.3     1  UNL1       -0.0126
     11 C           7.3809    0.7438    1.3145 C.3     1  UNL1        0.0144
     12 C           6.1121    1.1480    0.5489 C.3     1  UNL1        0.0250
     13 C           3.2344    0.9633    0.3624 C.ar    1  UNL1       -0.0387
     14 C           1.8392    0.8429    0.3075 C.ar    1  UNL1       -0.0351
     15 C           1.1777   -0.3270    0.1167 C.ar    1  UNL1        0.0759
     16 N          -0.1996   -0.5242    0.0512 N.pl3   1  UNL1       -0.2807
     17 C          -1.1953    0.4751    0.1733 C.ar    1  UNL1        0.2201
     18 N          -0.9266    1.7701    0.3715 N.ar    1  UNL1       -0.2226
     19 C          -1.8268    2.7172    0.4895 C.ar    1  UNL1        0.0332
     20 C          -3.1742    2.3757    0.4059 C.ar    1  UNL1       -0.0173
     21 C          -3.5066    1.0705    0.2028 C.ar    1  UNL1        0.0780
     22 C          -4.8760    0.5616    0.1516 C.ar    1  UNL1        0.0258
     23 C          -5.2507   -0.7514    0.4290 C.ar    1  UNL1        0.0146
     24 N          -6.5721   -0.9241    0.2539 N.ar    1  UNL1       -0.3477
     25 C          -7.3298   -2.1496    0.4458 C.3     1  UNL1        0.0119
     26 C          -7.1016    0.2476   -0.1387 C.ar    1  UNL1        0.0708
     27 C          -8.3807    0.6231   -0.4656 C.ar    1  UNL1        0.0622
     28 C          -9.5065   -0.3700   -0.3901 C.3     1  UNL1       -0.0203
     29 N          -8.6529    1.8991   -0.8622 N.ar    1  UNL1       -0.2581
     30 C          -7.6739    2.8008   -0.9379 C.ar    1  UNL1        0.0286
     31 C          -6.3772    2.4566   -0.6158 C.ar    1  UNL1       -0.0338
     32 C          -6.0308    1.1777   -0.2025 C.ar    1  UNL1        0.0122
     33 N          -2.4942    0.1567    0.0933 N.ar    1  UNL1       -0.2142
     34 H           2.9489   -3.7322   -1.2109 H       1  UNL1        0.0660
     35 H           1.5896   -4.7554   -0.5813 H       1  UNL1        0.0660
     36 H           2.7790   -4.0965    0.5656 H       1  UNL1        0.0660
     37 H           3.9461   -2.3052   -0.1014 H       1  UNL1        0.0673
     38 H           5.8031   -1.8921   -0.7945 H       1  UNL1        0.0476
     39 H           6.3515   -1.8811    0.9501 H       1  UNL1        0.0476
     40 H           8.2515   -1.8314   -0.3329 H       1  UNL1        0.0442
     41 H           7.6404   -0.6496   -1.5048 H       1  UNL1        0.0442
     42 H           8.8125    2.1483    0.0186 H       1  UNL1        0.0391
     43 H           9.8388    0.9085   -0.7449 H       1  UNL1        0.0391
     44 H           8.1649    1.2518   -1.4037 H       1  UNL1        0.0391
     45 H           7.1074    0.0072    2.0964 H       1  UNL1        0.0442
     46 H           7.8753    1.6446    1.7082 H       1  UNL1        0.0442
     47 H           6.3863    1.6555   -0.3934 H       1  UNL1        0.0476
     48 H           5.5660    1.8107    1.2489 H       1  UNL1        0.0476
     49 H           3.6822    1.9342    0.5170 H       1  UNL1        0.0637
     50 H           1.2941    1.7462    0.4268 H       1  UNL1        0.0638
     51 H          -0.5616   -1.5153   -0.1054 H       1  UNL1        0.1551
     52 H          -1.5991    3.7425    0.6468 H       1  UNL1        0.0831
     53 H          -3.9260    3.1458    0.5375 H       1  UNL1        0.0654
     54 H          -4.5491   -1.5261    0.7460 H       1  UNL1        0.0816
     55 H          -6.5437   -2.9764    0.4685 H       1  UNL1        0.0456
     56 H          -7.9711   -2.4207   -0.4013 H       1  UNL1        0.0456
     57 H          -7.8005   -2.2235    1.4462 H       1  UNL1        0.0456
     58 H          -9.5955   -0.9836   -1.2983 H       1  UNL1        0.0293
     59 H         -10.4600    0.2513   -0.3849 H       1  UNL1        0.0293
     60 H          -9.5193   -0.8944    0.5593 H       1  UNL1        0.0293
     61 H          -7.9178    3.8011   -1.2554 H       1  UNL1        0.0830
     62 H          -5.6034    3.1967   -0.7139 H       1  UNL1        0.0639
@<TRIPOS>BOND
     1     1     2    1
     2     2     3    1
     3     3     4   ar
     4     4     5   ar
     5     5     6    1
     6     6     7    1
     7     7     8    1
     8     8     9    1
     9     9    10    1
    10     9    11    1
    11    11    12    1
    12     5    13   ar
    13    13    14   ar
    14    14    15   ar
    15    15    16    1
    16    16    17    1
    17    17    18   ar
    18    18    19   ar
    19    19    20   ar
    20    20    21   ar
    21    21    22    1
    22    22    23   ar
    23    23    24   ar
    24    24    25    1
    25    24    26   ar
    26    26    27   ar
    27    27    28    1
    28    27    29   ar
    29    29    30   ar
    30    30    31   ar
    31    31    32   ar
    32    21    33   ar
    33    15     3   ar
    34    33    17   ar
    35    12     6    1
    36    32    22   ar
    37    32    26   ar
    38     1    34    1
    39     1    35    1
    40     1    36    1
    41     4    37    1
    42     7    38    1
    43     7    39    1
    44     8    40    1
    45     8    41    1
    46    10    42    1
    47    10    43    1
    48    10    44    1
    49    11    45    1
    50    11    46    1
    51    12    47    1
    52    12    48    1
    53    13    49    1
    54    14    50    1
    55    16    51    1
    56    19    52    1
    57    20    53    1
    58    23    54    1
    59    25    55    1
    60    25    56    1
    61    25    57    1
    62    28    58    1
    63    28    59    1
    64    28    60    1
    65    30    61    1
    66    31    62    1
