
     RDKit          3D

 44 46  0  0  0  0  0  0  0  0999 V2000
    4.8458    3.8980   -0.2712 N   0  0  0  0  0  0  0  0  0  0  0  0
    5.4265    2.6269    0.1202 C   0  0  0  0  0  0  0  0  0  0  0  0
    4.3636    1.5951    0.0878 C   0  0  0  0  0  0  0  0  0  0  0  0
    3.6105    1.3483    1.2121 C   0  0  0  0  0  0  0  0  0  0  0  0
    2.6007    0.3916    1.2372 C   0  0  0  0  0  0  0  0  0  0  0  0
    2.3573   -0.3261    0.0898 C   0  0  0  0  0  0  0  0  0  0  0  0
    1.3351   -1.3508   -0.0177 C   0  0  0  0  0  0  0  0  0  0  0  0
    1.1664   -1.9780   -1.1184 O   0  0  0  0  0  0  0  0  0  0  0  0
    0.4834   -1.7057    1.0725 N   0  0  0  0  0  0  0  0  0  0  0  0
   -0.4991   -2.7153    0.9107 C   0  0  0  0  0  0  0  0  0  0  0  0
   -0.2042   -4.0298    1.1756 C   0  0  0  0  0  0  0  0  0  0  0  0
   -1.1107   -5.0425    1.0371 C   0  0  0  0  0  0  0  0  0  0  0  0
   -2.3815   -4.7514    0.6142 C   0  0  0  0  0  0  0  0  0  0  0  0
   -3.5716   -6.0024    0.4219 Cl  0  0  0  0  0  0  0  0  0  0  0  0
   -2.6971   -3.4125    0.3398 C   0  0  0  0  0  0  0  0  0  0  0  0
   -1.7787   -2.3980    0.4816 C   0  0  0  0  0  0  0  0  0  0  0  0
   -2.1296   -1.0041    0.1892 C   0  0  0  0  0  0  0  0  0  0  0  0
   -1.2448   -0.0935    0.3352 O   0  0  0  0  0  0  0  0  0  0  0  0
   -3.4090   -0.6157   -0.2497 N   0  0  0  0  0  0  0  0  0  0  0  0
   -3.7289    0.7590   -0.5301 C   0  0  0  0  0  0  0  0  0  0  0  0
   -4.2187    1.5921    0.4189 C   0  0  0  0  0  0  0  0  0  0  0  0
   -4.4991    2.9046    0.0568 C   0  0  0  0  0  0  0  0  0  0  0  0
   -4.2864    3.3547   -1.2350 C   0  0  0  0  0  0  0  0  0  0  0  0
   -4.6215    4.9879   -1.7378 Cl  0  0  0  0  0  0  0  0  0  0  0  0
   -3.7861    2.4640   -2.1611 C   0  0  0  0  0  0  0  0  0  0  0  0
   -3.5253    1.2012   -1.7789 N   0  0  0  0  0  0  0  0  0  0  0  0
    3.1258   -0.0600   -1.0236 C   0  0  0  0  0  0  0  0  0  0  0  0
    4.1250    0.8877   -1.0460 C   0  0  0  0  0  0  0  0  0  0  0  0
    3.9086    3.7529   -0.6803 H   0  0  0  0  0  0  0  0  0  0  0  0
    4.8793    4.5239    0.5448 H   0  0  0  0  0  0  0  0  0  0  0  0
    5.8079    2.6597    1.1655 H   0  0  0  0  0  0  0  0  0  0  0  0
    6.2851    2.3930   -0.5236 H   0  0  0  0  0  0  0  0  0  0  0  0
    3.7938    1.9110    2.1288 H   0  0  0  0  0  0  0  0  0  0  0  0
    2.0245    0.2183    2.1343 H   0  0  0  0  0  0  0  0  0  0  0  0
    0.6133   -1.1952    1.9852 H   0  0  0  0  0  0  0  0  0  0  0  0
    0.8054   -4.2917    1.5157 H   0  0  0  0  0  0  0  0  0  0  0  0
   -0.8144   -6.0457    1.2608 H   0  0  0  0  0  0  0  0  0  0  0  0
   -3.7134   -3.2399    0.0096 H   0  0  0  0  0  0  0  0  0  0  0  0
   -4.1350   -1.3502   -0.3711 H   0  0  0  0  0  0  0  0  0  0  0  0
   -4.3929    1.2604    1.4367 H   0  0  0  0  0  0  0  0  0  0  0  0
   -4.8906    3.6161    0.7656 H   0  0  0  0  0  0  0  0  0  0  0  0
   -3.6103    2.7802   -3.1684 H   0  0  0  0  0  0  0  0  0  0  0  0
    2.9708   -0.6056   -1.9641 H   0  0  0  0  0  0  0  0  0  0  0  0
    4.7202    1.0871   -1.9241 H   0  0  0  0  0  0  0  0  0  0  0  0
  1  2  1  0
  2  3  1  0
  3  4  2  0
  4  5  1  0
  5  6  2  0
  6  7  1  0
  7  8  2  0
  7  9  1  0
  9 10  1  0
 10 11  2  0
 11 12  1  0
 12 13  2  0
 13 14  1  0
 13 15  1  0
 15 16  2  0
 16 17  1  0
 17 18  2  0
 17 19  1  0
 19 20  1  0
 20 21  2  0
 21 22  1  0
 22 23  2  0
 23 24  1  0
 23 25  1  0
 25 26  2  0
  6 27  1  0
 27 28  2  0
 28  3  1  0
 16 10  1  0
 26 20  1  0
  1 29  1  0
  1 30  1  0
  2 31  1  0
  2 32  1  0
  4 33  1  0
  5 34  1  0
  9 35  1  0
 11 36  1  0
 12 37  1  0
 15 38  1  0
 19 39  1  0
 21 40  1  0
 22 41  1  0
 25 42  1  0
 27 43  1  0
 28 44  1  0
M  END
$$$$
