@<TRIPOS>MOLECULE
*****
 44 46 0 0 0
SMALL
GASTEIGER

@<TRIPOS>ATOM
      1 N           4.8458    3.8980   -0.2712 N.3     1  UNL1       -0.3261
      2 C           5.4265    2.6269    0.1202 C.3     1  UNL1        0.0185
      3 C           4.3636    1.5951    0.0878 C.ar    1  UNL1       -0.0337
      4 C           3.6105    1.3483    1.2121 C.ar    1  UNL1       -0.0566
      5 C           2.6007    0.3916    1.2372 C.ar    1  UNL1       -0.0493
      6 C           2.3573   -0.3261    0.0898 C.ar    1  UNL1        0.0370
      7 C           1.3351   -1.3508   -0.0177 C.2     1  UNL1        0.2483
      8 O           1.1664   -1.9780   -1.1184 O.2     1  UNL1       -0.2699
      9 N           0.4834   -1.7057    1.0725 N.am    1  UNL1       -0.2808
     10 C          -0.4991   -2.7153    0.9107 C.ar    1  UNL1        0.0459
     11 C          -0.2042   -4.0298    1.1756 C.ar    1  UNL1       -0.0384
     12 C          -1.1107   -5.0425    1.0371 C.ar    1  UNL1       -0.0416
     13 C          -2.3815   -4.7514    0.6142 C.ar    1  UNL1        0.0418
     14 CL         -3.5716   -6.0024    0.4219 Cl      1  UNL1       -0.0835
     15 C          -2.6971   -3.4125    0.3398 C.ar    1  UNL1       -0.0295
     16 C          -1.7787   -2.3980    0.4816 C.ar    1  UNL1        0.0596
     17 C          -2.1296   -1.0041    0.1892 C.2     1  UNL1        0.2511
     18 O          -1.2448   -0.0935    0.3352 O.2     1  UNL1       -0.2697
     19 N          -3.4090   -0.6157   -0.2497 N.am    1  UNL1       -0.2663
     20 C          -3.7289    0.7590   -0.5301 C.ar    1  UNL1        0.1252
     21 C          -4.2187    1.5921    0.4189 C.ar    1  UNL1       -0.0201
     22 C          -4.4991    2.9046    0.0568 C.ar    1  UNL1       -0.0387
     23 C          -4.2864    3.3547   -1.2350 C.ar    1  UNL1        0.0592
     24 CL         -4.6215    4.9879   -1.7378 Cl      1  UNL1       -0.0820
     25 C          -3.7861    2.4640   -2.1611 C.ar    1  UNL1        0.0480
     26 N          -3.5253    1.2012   -1.7789 N.ar    1  UNL1       -0.2387
     27 C           3.1258   -0.0600   -1.0236 C.ar    1  UNL1       -0.0493
     28 C           4.1250    0.8877   -1.0460 C.ar    1  UNL1       -0.0566
     29 H           3.9086    3.7529   -0.6803 H       1  UNL1        0.1185
     30 H           4.8793    4.5239    0.5448 H       1  UNL1        0.1185
     31 H           5.8079    2.6597    1.1655 H       1  UNL1        0.0471
     32 H           6.2851    2.3930   -0.5236 H       1  UNL1        0.0471
     33 H           3.7938    1.9110    2.1288 H       1  UNL1        0.0621
     34 H           2.0245    0.2183    2.1343 H       1  UNL1        0.0625
     35 H           0.6133   -1.1952    1.9852 H       1  UNL1        0.1552
     36 H           0.8054   -4.2917    1.5157 H       1  UNL1        0.0637
     37 H          -0.8144   -6.0457    1.2608 H       1  UNL1        0.0633
     38 H          -3.7134   -3.2399    0.0096 H       1  UNL1        0.0640
     39 H          -4.1350   -1.3502   -0.3711 H       1  UNL1        0.1566
     40 H          -4.3929    1.2604    1.4367 H       1  UNL1        0.0652
     41 H          -4.8906    3.6161    0.7656 H       1  UNL1        0.0634
     42 H          -3.6103    2.7802   -3.1684 H       1  UNL1        0.0845
     43 H           2.9708   -0.6056   -1.9641 H       1  UNL1        0.0625
     44 H           4.7202    1.0871   -1.9241 H       1  UNL1        0.0621
@<TRIPOS>BOND
     1     1     2    1
     2     2     3    1
     3     3     4   ar
     4     4     5   ar
     5     5     6   ar
     6     6     7    1
     7     7     8    2
     8     7     9   am
     9     9    10    1
    10    10    11   ar
    11    11    12   ar
    12    12    13   ar
    13    13    14    1
    14    13    15   ar
    15    15    16   ar
    16    16    17    1
    17    17    18    2
    18    17    19   am
    19    19    20    1
    20    20    21   ar
    21    21    22   ar
    22    22    23   ar
    23    23    24    1
    24    23    25   ar
    25    25    26   ar
    26     6    27   ar
    27    27    28   ar
    28    28     3   ar
    29    16    10   ar
    30    26    20   ar
    31     1    29    1
    32     1    30    1
    33     2    31    1
    34     2    32    1
    35     4    33    1
    36     5    34    1
    37     9    35    1
    38    11    36    1
    39    12    37    1
    40    15    38    1
    41    19    39    1
    42    21    40    1
    43    22    41    1
    44    25    42    1
    45    27    43    1
    46    28    44    1
