
     RDKit          3D

 48 51  0  0  0  0  0  0  0  0999 V2000
    8.7664    0.4297   -1.5888 C   0  0  0  0  0  0  0  0  0  0  0  0
    7.2874    0.5563   -1.4969 C   0  0  0  0  0  0  0  0  0  0  0  0
    6.5761    0.1279   -0.4353 N   0  0  0  0  0  0  0  0  0  0  0  0
    5.2790    0.3785   -0.6452 C   0  0  0  0  0  0  0  0  0  0  0  0
    4.2135    0.0443    0.3056 C   0  0  0  0  0  0  0  0  0  0  0  0
    4.5302   -0.5076    1.3765 O   0  0  0  0  0  0  0  0  0  0  0  0
    2.8633    0.3214    0.0544 N   0  0  0  0  0  0  0  0  0  0  0  0
    1.7486    0.0478    0.8912 C   0  0  0  0  0  0  0  0  0  0  0  0
    1.7928   -0.5479    2.1191 C   0  0  0  0  0  0  0  0  0  0  0  0
    0.6537   -0.7870    2.8899 C   0  0  0  0  0  0  0  0  0  0  0  0
   -0.5921   -0.4242    2.4353 C   0  0  0  0  0  0  0  0  0  0  0  0
   -1.7088   -0.6409    3.1631 F   0  0  0  0  0  0  0  0  0  0  0  0
   -0.6517    0.1779    1.1975 C   0  0  0  0  0  0  0  0  0  0  0  0
   -2.0062    0.5760    0.6848 C   0  0  2  0  0  0  0  0  0  0  0  0
   -2.7040    1.5457    1.5801 C   0  0  0  0  0  0  0  0  0  0  0  0
   -2.8249   -0.6655    0.5131 C   0  0  0  0  0  0  0  0  0  0  0  0
   -4.0804   -0.4248   -0.2970 C   0  0  0  0  0  0  0  0  0  0  0  0
   -4.8511   -1.7261   -0.4277 C   0  0  0  0  0  0  0  0  0  0  0  0
   -6.1250   -0.9181   -0.2118 C   0  0  0  0  0  0  0  0  0  0  0  0
   -5.2402    0.1409    0.4559 C   0  0  0  0  0  0  0  0  0  0  0  0
   -3.7731    0.2016   -1.5039 O   0  0  0  0  0  0  0  0  0  0  0  0
   -2.6441    1.0351   -1.6101 C   0  0  0  0  0  0  0  0  0  0  0  0
   -2.4743    1.6537   -2.8751 N   0  0  0  0  0  0  0  0  0  0  0  0
   -1.8594    1.1968   -0.6265 N   0  0  0  0  0  0  0  0  0  0  0  0
    0.4696    0.4139    0.4373 C   0  0  0  0  0  0  0  0  0  0  0  0
    5.2019    0.9818   -1.8814 C   0  0  0  0  0  0  0  0  0  0  0  0
    6.4381    1.0572   -2.3351 O   0  0  0  0  0  0  0  0  0  0  0  0
    9.1392    0.8783   -2.5395 H   0  0  0  0  0  0  0  0  0  0  0  0
    9.1053   -0.6115   -1.5085 H   0  0  0  0  0  0  0  0  0  0  0  0
    9.2322    1.0159   -0.7594 H   0  0  0  0  0  0  0  0  0  0  0  0
    2.6891    0.7961   -0.8903 H   0  0  0  0  0  0  0  0  0  0  0  0
    2.7348   -0.8575    2.5362 H   0  0  0  0  0  0  0  0  0  0  0  0
    0.7087   -1.2577    3.8553 H   0  0  0  0  0  0  0  0  0  0  0  0
   -3.3054    1.0951    2.3740 H   0  0  0  0  0  0  0  0  0  0  0  0
   -3.4025    2.1447    0.9471 H   0  0  0  0  0  0  0  0  0  0  0  0
   -2.0099    2.2878    2.0349 H   0  0  0  0  0  0  0  0  0  0  0  0
   -2.2029   -1.3788   -0.1021 H   0  0  0  0  0  0  0  0  0  0  0  0
   -3.0777   -1.1943    1.4336 H   0  0  0  0  0  0  0  0  0  0  0  0
   -4.6828   -2.3742    0.4327 H   0  0  0  0  0  0  0  0  0  0  0  0
   -4.8025   -2.1886   -1.4250 H   0  0  0  0  0  0  0  0  0  0  0  0
   -6.6234   -0.5875   -1.1298 H   0  0  0  0  0  0  0  0  0  0  0  0
   -6.8384   -1.4089    0.4998 H   0  0  0  0  0  0  0  0  0  0  0  0
   -5.5874    1.1405    0.1045 H   0  0  0  0  0  0  0  0  0  0  0  0
   -5.2589   -0.0228    1.5412 H   0  0  0  0  0  0  0  0  0  0  0  0
   -3.1310    2.3492   -3.2754 H   0  0  0  0  0  0  0  0  0  0  0  0
   -1.6403    1.3932   -3.4343 H   0  0  0  0  0  0  0  0  0  0  0  0
    0.3859    0.8870   -0.5261 H   0  0  0  0  0  0  0  0  0  0  0  0
    4.2827    1.3073   -2.3377 H   0  0  0  0  0  0  0  0  0  0  0  0
  1  2  1  0
  2  3  2  0
  3  4  1  0
  4  5  1  0
  5  6  2  0
  5  7  1  0
  7  8  1  0
  8  9  2  0
  9 10  1  0
 10 11  2  0
 11 12  1  0
 11 13  1  0
 13 14  1  0
 14 15  1  1
 14 16  1  0
 16 17  1  0
 17 18  1  0
 18 19  1  0
 19 20  1  0
 17 21  1  0
 21 22  1  0
 22 23  1  0
 22 24  2  0
 13 25  2  0
  4 26  2  0
 26 27  1  0
 27  2  1  0
 25  8  1  0
 24 14  1  0
 20 17  1  0
  1 28  1  0
  1 29  1  0
  1 30  1  0
  7 31  1  0
  9 32  1  0
 10 33  1  0
 15 34  1  0
 15 35  1  0
 15 36  1  0
 16 37  1  0
 16 38  1  0
 18 39  1  0
 18 40  1  0
 19 41  1  0
 19 42  1  0
 20 43  1  0
 20 44  1  0
 23 45  1  0
 23 46  1  0
 25 47  1  0
 26 48  1  0
M  END
$$$$
