@<TRIPOS>MOLECULE
*****
 48 51 0 0 0
SMALL
GASTEIGER

@<TRIPOS>ATOM
      1 C           8.7664    0.4297   -1.5888 C.3     1  UNL1        0.0121
      2 C           7.2874    0.5563   -1.4969 C.ar    1  UNL1        0.1929
      3 N           6.5761    0.1279   -0.4353 N.ar    1  UNL1       -0.2089
      4 C           5.2790    0.3785   -0.6452 C.ar    1  UNL1        0.1638
      5 C           4.2135    0.0443    0.3056 C.2     1  UNL1        0.2697
      6 O           4.5302   -0.5076    1.3765 O.2     1  UNL1       -0.2681
      7 N           2.8633    0.3214    0.0544 N.am    1  UNL1       -0.2802
      8 C           1.7486    0.0478    0.8912 C.ar    1  UNL1        0.0342
      9 C           1.7928   -0.5479    2.1191 C.ar    1  UNL1       -0.0377
     10 C           0.6537   -0.7870    2.8899 C.ar    1  UNL1       -0.0243
     11 C          -0.5921   -0.4242    2.4353 C.ar    1  UNL1        0.1290
     12 F          -1.7088   -0.6409    3.1631 F       1  UNL1       -0.2051
     13 C          -0.6517    0.1779    1.1975 C.ar    1  UNL1        0.0168
     14 C          -2.0062    0.5760    0.6848 C.3     1  UNL1        0.0950
     15 C          -2.7040    1.5457    1.5801 C.3     1  UNL1       -0.0352
     16 C          -2.8249   -0.6655    0.5131 C.3     1  UNL1        0.0166
     17 C          -4.0804   -0.4248   -0.2970 C.3     1  UNL1        0.1160
     18 C          -4.8511   -1.7261   -0.4277 C.3     1  UNL1       -0.0126
     19 C          -6.1250   -0.9181   -0.2118 C.3     1  UNL1       -0.0458
     20 C          -5.2402    0.1409    0.4559 C.3     1  UNL1       -0.0126
     21 O          -3.7731    0.2016   -1.5039 O.2     1  UNL1       -0.4592
     22 C          -2.6441    1.0351   -1.6101 C.2     1  UNL1        0.2765
     23 N          -2.4743    1.6537   -2.8751 N.pl3   1  UNL1       -0.3133
     24 N          -1.8594    1.1968   -0.6265 N.2     1  UNL1       -0.2257
     25 C           0.4696    0.4139    0.4373 C.ar    1  UNL1       -0.0323
     26 C           5.2019    0.9818   -1.8814 C.ar    1  UNL1        0.1245
     27 O           6.4381    1.0572   -2.3351 O.2     1  UNL1       -0.4474
     28 H           9.1392    0.8783   -2.5395 H       1  UNL1        0.0324
     29 H           9.1053   -0.6115   -1.5085 H       1  UNL1        0.0324
     30 H           9.2322    1.0159   -0.7594 H       1  UNL1        0.0324
     31 H           2.6891    0.7961   -0.8903 H       1  UNL1        0.1552
     32 H           2.7348   -0.8575    2.5362 H       1  UNL1        0.0637
     33 H           0.7087   -1.2577    3.8553 H       1  UNL1        0.0647
     34 H          -3.3054    1.0951    2.3740 H       1  UNL1        0.0256
     35 H          -3.4025    2.1447    0.9471 H       1  UNL1        0.0256
     36 H          -2.0099    2.2878    2.0349 H       1  UNL1        0.0256
     37 H          -2.2029   -1.3788   -0.1021 H       1  UNL1        0.0330
     38 H          -3.0777   -1.1943    1.4336 H       1  UNL1        0.0330
     39 H          -4.6828   -2.3742    0.4327 H       1  UNL1        0.0304
     40 H          -4.8025   -2.1886   -1.4250 H       1  UNL1        0.0304
     41 H          -6.6234   -0.5875   -1.1298 H       1  UNL1        0.0268
     42 H          -6.8384   -1.4089    0.4998 H       1  UNL1        0.0268
     43 H          -5.5874    1.1405    0.1045 H       1  UNL1        0.0304
     44 H          -5.2589   -0.0228    1.5412 H       1  UNL1        0.0304
     45 H          -3.1310    2.3492   -3.2754 H       1  UNL1        0.1466
     46 H          -1.6403    1.3932   -3.4343 H       1  UNL1        0.1466
     47 H           0.3859    0.8870   -0.5261 H       1  UNL1        0.0640
     48 H           4.2827    1.3073   -2.3377 H       1  UNL1        0.1054
@<TRIPOS>BOND
     1     1     2    1
     2     2     3   ar
     3     3     4   ar
     4     4     5    1
     5     5     6    2
     6     5     7   am
     7     7     8    1
     8     8     9   ar
     9     9    10   ar
    10    10    11   ar
    11    11    12    1
    12    11    13   ar
    13    13    14    1
    14    14    15    1
    15    14    16    1
    16    16    17    1
    17    17    18    1
    18    18    19    1
    19    19    20    1
    20    17    21    1
    21    21    22    1
    22    22    23    1
    23    22    24    2
    24    13    25   ar
    25     4    26   ar
    26    26    27   ar
    27    27     2   ar
    28    25     8   ar
    29    24    14    1
    30    20    17    1
    31     1    28    1
    32     1    29    1
    33     1    30    1
    34     7    31    1
    35     9    32    1
    36    10    33    1
    37    15    34    1
    38    15    35    1
    39    15    36    1
    40    16    37    1
    41    16    38    1
    42    18    39    1
    43    18    40    1
    44    19    41    1
    45    19    42    1
    46    20    43    1
    47    20    44    1
    48    23    45    1
    49    23    46    1
    50    25    47    1
    51    26    48    1
