
     RDKit          3D

 26 25  0  0  0  0  0  0  0  0999 V2000
    3.0962    0.6062   -1.6484 N   0  0  0  0  0  0  0  0  0  0  0  0
    1.9196    0.5812   -0.7708 C   0  0  1  0  0  0  0  0  0  0  0  0
    1.5757   -0.8838   -0.5984 C   0  0  0  0  0  0  0  0  0  0  0  0
    0.3862   -1.1195    0.2763 C   0  0  0  0  0  0  0  0  0  0  0  0
   -0.8090   -0.4205   -0.3589 C   0  0  0  0  0  0  0  0  0  0  0  0
   -1.9380   -0.6799    0.5287 N   0  0  0  0  0  0  0  0  0  0  0  0
   -3.1962   -0.1400    0.1768 C   0  0  0  0  0  0  0  0  0  0  0  0
   -4.1526    0.0362    1.2279 N   0  0  0  0  0  0  0  0  0  0  0  0
   -3.4262    0.1661   -1.0562 N   0  0  0  0  0  0  0  0  0  0  0  0
    2.3184    1.1774    0.5270 C   0  0  0  0  0  0  0  0  0  0  0  0
    3.5259    1.6930    0.9556 O   0  0  0  0  0  0  0  0  0  0  0  0
    1.5890    1.3350    1.5413 O   0  0  0  0  0  0  0  0  0  0  0  0
    3.1794    1.5561   -2.0980 H   0  0  0  0  0  0  0  0  0  0  0  0
    3.0019   -0.1733   -2.3281 H   0  0  0  0  0  0  0  0  0  0  0  0
    1.1140    1.1450   -1.2420 H   0  0  0  0  0  0  0  0  0  0  0  0
    2.4571   -1.3678   -0.1291 H   0  0  0  0  0  0  0  0  0  0  0  0
    1.4138   -1.3904   -1.5650 H   0  0  0  0  0  0  0  0  0  0  0  0
    0.2320   -2.2041    0.3393 H   0  0  0  0  0  0  0  0  0  0  0  0
    0.5703   -0.7545    1.2979 H   0  0  0  0  0  0  0  0  0  0  0  0
   -1.0185   -0.8528   -1.3366 H   0  0  0  0  0  0  0  0  0  0  0  0
   -0.6598    0.6785   -0.3441 H   0  0  0  0  0  0  0  0  0  0  0  0
   -1.8752   -1.2431    1.4140 H   0  0  0  0  0  0  0  0  0  0  0  0
   -4.6035    0.9863    1.2153 H   0  0  0  0  0  0  0  0  0  0  0  0
   -4.4195   -0.6617    1.9589 H   0  0  0  0  0  0  0  0  0  0  0  0
   -4.3347    0.5635   -1.3528 H   0  0  0  0  0  0  0  0  0  0  0  0
    4.0539    1.3668    1.7382 H   0  0  0  0  0  0  0  0  0  0  0  0
  1  2  1  0
  2  3  1  0
  3  4  1  0
  4  5  1  0
  5  6  1  0
  6  7  1  0
  7  8  1  0
  7  9  2  3
  2 10  1  0
 10 11  1  0
 10 12  2  0
  1 13  1  0
  1 14  1  0
  2 15  1  6
  3 16  1  0
  3 17  1  0
  4 18  1  0
  4 19  1  0
  5 20  1  0
  5 21  1  0
  6 22  1  0
  8 23  1  0
  8 24  1  0
  9 25  1  0
 11 26  1  0
M  END
$$$$
