@<TRIPOS>MOLECULE
*****
 67 70 0 0 0
SMALL
GASTEIGER

@<TRIPOS>ATOM
      1 C          -5.0889   -0.6144   -1.9480 C.3     1  UNL1        0.0029
      2 N          -3.7106   -0.4671   -2.4374 N.am    1  UNL1       -0.3066
      3 C          -3.7252   -0.6266   -3.9050 C.3     1  UNL1        0.0029
      4 C          -2.4388   -0.2105   -1.8347 C.2     1  UNL1        0.2300
      5 O          -1.4330   -0.1661   -2.6359 O.2     1  UNL1       -0.2743
      6 C          -2.1521    0.0085   -0.3897 C.3     1  UNL1        0.0979
      7 C          -0.6368   -0.0394   -0.2457 C.3     1  UNL1       -0.0181
      8 C          -0.1703    0.1670    1.1728 C.3     1  UNL1        0.0004
      9 N           1.2469    0.1318    1.1838 N.3     1  UNL1       -0.3021
     10 C           1.9621    1.1870    0.5730 C.3     1  UNL1        0.0018
     11 C           3.3247    1.2548    1.2893 C.3     1  UNL1       -0.0070
     12 C           4.0882    0.0120    0.9884 C.3     1  UNL1        0.0933
     13 O           4.6344   -0.4252    2.2206 O.3     1  UNL1       -0.3839
     14 C           3.1672   -1.1333    0.5574 C.3     1  UNL1       -0.0070
     15 C           1.9124   -1.0739    1.4190 C.3     1  UNL1        0.0018
     16 C           5.2093    0.1508    0.0614 C.ar    1  UNL1       -0.0160
     17 C           5.8492   -1.0626   -0.1965 C.ar    1  UNL1       -0.0545
     18 C           6.9454   -1.0809   -1.0669 C.ar    1  UNL1       -0.0430
     19 C           7.4130    0.0690   -1.6785 C.ar    1  UNL1        0.0410
     20 CL          8.7758    0.0890   -2.7696 Cl      1  UNL1       -0.0835
     21 C           6.7920    1.2783   -1.4350 C.ar    1  UNL1       -0.0430
     22 C           5.7192    1.2490   -0.5733 C.ar    1  UNL1       -0.0545
     23 C          -2.6499   -1.1364    0.4316 C.ar    1  UNL1       -0.0281
     24 C          -2.8777   -2.4308    0.0094 C.ar    1  UNL1       -0.0573
     25 C          -3.3454   -3.3951    0.8746 C.ar    1  UNL1       -0.0615
     26 C          -3.6084   -3.1180    2.1986 C.ar    1  UNL1       -0.0617
     27 C          -3.3901   -1.8343    2.6466 C.ar    1  UNL1       -0.0615
     28 C          -2.9226   -0.8907    1.7621 C.ar    1  UNL1       -0.0573
     29 C          -2.6886    1.3123    0.0479 C.ar    1  UNL1       -0.0281
     30 C          -1.7950    2.3786   -0.1151 C.ar    1  UNL1       -0.0573
     31 C          -2.1116    3.6701    0.2485 C.ar    1  UNL1       -0.0615
     32 C          -3.3479    3.9638    0.7981 C.ar    1  UNL1       -0.0617
     33 C          -4.2560    2.9226    0.9714 C.ar    1  UNL1       -0.0615
     34 C          -3.8960    1.6501    0.5937 C.ar    1  UNL1       -0.0573
     35 H          -5.5179   -1.5146   -2.4716 H       1  UNL1        0.0428
     36 H          -5.7006    0.2711   -2.1296 H       1  UNL1        0.0428
     37 H          -5.1227   -0.8354   -0.8561 H       1  UNL1        0.0428
     38 H          -2.7157   -0.5296   -4.3396 H       1  UNL1        0.0428
     39 H          -4.4314    0.1229   -4.3115 H       1  UNL1        0.0428
     40 H          -4.1886   -1.6183   -4.1417 H       1  UNL1        0.0428
     41 H          -0.3791   -1.1207   -0.4722 H       1  UNL1        0.0294
     42 H          -0.0982    0.5324   -0.9982 H       1  UNL1        0.0294
     43 H          -0.6211    1.0337    1.6671 H       1  UNL1        0.0427
     44 H          -0.5154   -0.7322    1.7630 H       1  UNL1        0.0427
     45 H           2.1910    0.9188   -0.4769 H       1  UNL1        0.0427
     46 H           1.4471    2.1472    0.6702 H       1  UNL1        0.0427
     47 H           3.8557    2.1827    1.1098 H       1  UNL1        0.0309
     48 H           3.0341    1.2899    2.3827 H       1  UNL1        0.0309
     49 H           4.8350   -1.3785    2.2271 H       1  UNL1        0.2106
     50 H           3.6639   -2.1250    0.7226 H       1  UNL1        0.0309
     51 H           2.8906   -0.9845   -0.5055 H       1  UNL1        0.0309
     52 H           2.1929   -1.2965    2.4745 H       1  UNL1        0.0427
     53 H           1.2367   -1.9136    1.1121 H       1  UNL1        0.0427
     54 H           5.6382   -2.0752    0.1818 H       1  UNL1        0.0622
     55 H           7.5071   -1.9872   -1.3278 H       1  UNL1        0.0632
     56 H           7.0777    2.2441   -1.8620 H       1  UNL1        0.0632
     57 H           5.2088    2.1747   -0.3596 H       1  UNL1        0.0622
     58 H          -2.6645   -2.6186   -1.0333 H       1  UNL1        0.0621
     59 H          -3.5131   -4.3992    0.5101 H       1  UNL1        0.0618
     60 H          -3.9772   -3.8377    2.9238 H       1  UNL1        0.0618
     61 H          -3.5855   -1.5683    3.6935 H       1  UNL1        0.0618
     62 H          -2.7716    0.1018    2.1743 H       1  UNL1        0.0621
     63 H          -0.7809    2.3725   -0.5247 H       1  UNL1        0.0621
     64 H          -1.4943    4.5443    0.1615 H       1  UNL1        0.0618
     65 H          -3.6780    4.9446    1.1105 H       1  UNL1        0.0618
     66 H          -5.2459    3.0413    1.3897 H       1  UNL1        0.0618
     67 H          -4.5711    0.8235    0.7187 H       1  UNL1        0.0621
@<TRIPOS>BOND
     1     1     2    1
     2     2     3    1
     3     2     4   am
     4     4     5    2
     5     4     6    1
     6     6     7    1
     7     7     8    1
     8     8     9    1
     9     9    10    1
    10    10    11    1
    11    11    12    1
    12    12    13    1
    13    12    14    1
    14    14    15    1
    15    12    16    1
    16    16    17   ar
    17    17    18   ar
    18    18    19   ar
    19    19    20    1
    20    19    21   ar
    21    21    22   ar
    22     6    23    1
    23    23    24   ar
    24    24    25   ar
    25    25    26   ar
    26    26    27   ar
    27    27    28   ar
    28     6    29    1
    29    29    30   ar
    30    30    31   ar
    31    31    32   ar
    32    32    33   ar
    33    33    34   ar
    34    15     9    1
    35    22    16   ar
    36    28    23   ar
    37    34    29   ar
    38     1    35    1
    39     1    36    1
    40     1    37    1
    41     3    38    1
    42     3    39    1
    43     3    40    1
    44     7    41    1
    45     7    42    1
    46     8    43    1
    47     8    44    1
    48    10    45    1
    49    10    46    1
    50    11    47    1
    51    11    48    1
    52    13    49    1
    53    14    50    1
    54    14    51    1
    55    15    52    1
    56    15    53    1
    57    17    54    1
    58    18    55    1
    59    21    56    1
    60    22    57    1
    61    24    58    1
    62    25    59    1
    63    26    60    1
    64    27    61    1
    65    28    62    1
    66    30    63    1
    67    31    64    1
    68    32    65    1
    69    33    66    1
    70    34    67    1
