@<TRIPOS>MOLECULE
*****
 28 28 0 0 0
SMALL
GASTEIGER

@<TRIPOS>ATOM
      1 C           1.3666   -1.0417   -0.1656 C.3     1  UNL1        0.1119
      2 O           2.1897   -1.7541    0.7452 O.3     1  UNL1       -0.3865
      3 C           0.0332   -1.6816   -0.3282 C.3     1  UNL1        0.1149
      4 O          -0.2131   -2.0144   -1.6820 O.3     1  UNL1       -0.3864
      5 C          -1.1172   -0.9614    0.2705 C.3     1  UNL1        0.1462
      6 O          -1.6403   -1.6556    1.3923 O.3     1  UNL1       -0.3832
      7 C          -0.9347    0.4518    0.6169 C.3     1  UNL1        0.2747
      8 O          -1.2909    0.6993    1.9496 O.3     1  UNL1       -0.3556
      9 O           0.2594    1.0335    0.4734 O.3     1  UNL1       -0.3312
     10 C           1.3730    0.4086    0.1020 C.3     1  UNL1        0.1137
     11 C           1.9409    1.2265   -1.0708 C.3     1  UNL1        0.0730
     12 O           2.2218    2.5183   -0.7003 O.3     1  UNL1       -0.3924
     13 C          -1.8869    1.3420   -0.1483 C.2     1  UNL1        0.2442
     14 O          -1.9063    1.4122   -1.5198 O.2     1  UNL1       -0.4921
     15 N          -2.7789    2.1291    0.3617 N.2     1  UNL1       -0.2665
     16 H           1.9342   -1.1925   -1.1298 H       1  UNL1        0.0647
     17 H           1.9020   -1.4965    1.6455 H       1  UNL1        0.2100
     18 H           0.0969   -2.6904    0.1659 H       1  UNL1        0.0648
     19 H           0.2269   -2.8608   -1.9272 H       1  UNL1        0.2100
     20 H          -1.9845   -1.0433   -0.4527 H       1  UNL1        0.0680
     21 H          -0.8821   -1.6531    2.0464 H       1  UNL1        0.2101
     22 H          -2.1444    0.2644    2.1864 H       1  UNL1        0.2133
     23 H           2.1084    0.6020    0.9293 H       1  UNL1        0.0647
     24 H           1.2414    1.2577   -1.9306 H       1  UNL1        0.0584
     25 H           2.8421    0.6884   -1.3982 H       1  UNL1        0.0584
     26 H           2.6686    2.4829    0.1906 H       1  UNL1        0.2095
     27 H          -2.7892    1.3871   -2.0178 H       1  UNL1        0.2936
     28 H          -2.8363    2.1414    1.3955 H       1  UNL1        0.1897
@<TRIPOS>BOND
     1     1     2    1
     2     1     3    1
     3     3     4    1
     4     3     5    1
     5     5     6    1
     6     5     7    1
     7     7     8    1
     8     7     9    1
     9     9    10    1
    10    10    11    1
    11    11    12    1
    12     7    13    1
    13    13    14    1
    14    13    15    2
    15    10     1    1
    16     1    16    1
    17     2    17    1
    18     3    18    1
    19     4    19    1
    20     5    20    1
    21     6    21    1
    22     8    22    1
    23    10    23    1
    24    11    24    1
    25    11    25    1
    26    12    26    1
    27    14    27    1
    28    15    28    1
