
     RDKit          3D

 28 28  0  0  0  0  0  0  0  0999 V2000
    1.3666   -1.0417   -0.1656 C   0  0  1  0  0  0  0  0  0  0  0  0
    2.1897   -1.7541    0.7452 O   0  0  0  0  0  0  0  0  0  0  0  0
    0.0332   -1.6816   -0.3282 C   0  0  2  0  0  0  0  0  0  0  0  0
   -0.2131   -2.0144   -1.6820 O   0  0  0  0  0  0  0  0  0  0  0  0
   -1.1172   -0.9614    0.2705 C   0  0  1  0  0  0  0  0  0  0  0  0
   -1.6403   -1.6556    1.3923 O   0  0  0  0  0  0  0  0  0  0  0  0
   -0.9347    0.4518    0.6169 C   0  0  1  0  0  0  0  0  0  0  0  0
   -1.2909    0.6993    1.9496 O   0  0  0  0  0  0  0  0  0  0  0  0
    0.2594    1.0335    0.4734 O   0  0  0  0  0  0  0  0  0  0  0  0
    1.3730    0.4086    0.1020 C   0  0  2  0  0  0  0  0  0  0  0  0
    1.9409    1.2265   -1.0708 C   0  0  0  0  0  0  0  0  0  0  0  0
    2.2218    2.5183   -0.7003 O   0  0  0  0  0  0  0  0  0  0  0  0
   -1.8869    1.3420   -0.1483 C   0  0  0  0  0  0  0  0  0  0  0  0
   -1.9063    1.4122   -1.5198 O   0  0  0  0  0  0  0  0  0  0  0  0
   -2.7789    2.1291    0.3617 N   0  0  0  0  0  0  0  0  0  0  0  0
    1.9342   -1.1925   -1.1298 H   0  0  0  0  0  0  0  0  0  0  0  0
    1.9020   -1.4965    1.6455 H   0  0  0  0  0  0  0  0  0  0  0  0
    0.0969   -2.6904    0.1659 H   0  0  0  0  0  0  0  0  0  0  0  0
    0.2269   -2.8608   -1.9272 H   0  0  0  0  0  0  0  0  0  0  0  0
   -1.9845   -1.0433   -0.4527 H   0  0  0  0  0  0  0  0  0  0  0  0
   -0.8821   -1.6531    2.0464 H   0  0  0  0  0  0  0  0  0  0  0  0
   -2.1444    0.2644    2.1864 H   0  0  0  0  0  0  0  0  0  0  0  0
    2.1084    0.6020    0.9293 H   0  0  0  0  0  0  0  0  0  0  0  0
    1.2414    1.2577   -1.9306 H   0  0  0  0  0  0  0  0  0  0  0  0
    2.8421    0.6884   -1.3982 H   0  0  0  0  0  0  0  0  0  0  0  0
    2.6686    2.4829    0.1906 H   0  0  0  0  0  0  0  0  0  0  0  0
   -2.7892    1.3871   -2.0178 H   0  0  0  0  0  0  0  0  0  0  0  0
   -2.8363    2.1414    1.3955 H   0  0  0  0  0  0  0  0  0  0  0  0
  1  2  1  0
  1  3  1  0
  3  4  1  0
  3  5  1  0
  5  6  1  0
  5  7  1  0
  7  8  1  1
  7  9  1  0
  9 10  1  0
 10 11  1  0
 11 12  1  0
  7 13  1  0
 13 14  1  0
 13 15  2  3
 10  1  1  0
  1 16  1  6
  2 17  1  0
  3 18  1  1
  4 19  1  0
  5 20  1  6
  6 21  1  0
  8 22  1  0
 10 23  1  1
 11 24  1  0
 11 25  1  0
 12 26  1  0
 14 27  1  0
 15 28  1  0
M  END
$$$$
