@<TRIPOS>MOLECULE
*****
 59 64 0 0 0
SMALL
GASTEIGER

@<TRIPOS>ATOM
      1 C           8.2078    1.7648   -1.8756 C.ar    1  UNL1       -0.0591
      2 C           7.2304    0.8214   -1.9732 C.ar    1  UNL1       -0.0532
      3 C           6.7575    0.1870   -0.8286 C.ar    1  UNL1       -0.0037
      4 C           5.7126   -0.8356   -0.9298 C.ar    1  UNL1        0.0466
      5 C           5.8667   -2.1834   -1.1393 C.ar    1  UNL1        0.0597
      6 N           4.6564   -2.7333   -1.1656 N.ar    1  UNL1       -0.1727
      7 N           3.7498   -1.7870   -0.9814 N.ar    1  UNL1       -0.2206
      8 C           2.3937   -1.8061   -0.9165 C.ar    1  UNL1        0.0406
      9 C           1.6163   -0.6898   -0.7082 C.ar    1  UNL1        0.0199
     10 C           0.1411   -0.8007   -0.6381 C.ar    1  UNL1        0.0034
     11 C          -0.5222   -1.7546   -1.3803 C.ar    1  UNL1       -0.0475
     12 C          -1.8802   -1.9267   -1.3408 C.ar    1  UNL1        0.0006
     13 C          -2.6017   -1.0746   -0.4944 C.ar    1  UNL1        0.2147
     14 O          -3.9650   -1.2871   -0.4865 O.3     1  UNL1       -0.4751
     15 C          -4.7664   -0.4619    0.3529 C.3     1  UNL1        0.1039
     16 C          -6.2215   -0.8466    0.2431 C.3     1  UNL1        0.0333
     17 N          -6.9955    0.0072    1.1053 N.3     1  UNL1       -0.2967
     18 C          -8.3980   -0.3857    1.1304 C.3     1  UNL1        0.0116
     19 C          -9.1114   -0.0166   -0.1439 C.3     1  UNL1        0.0087
     20 N          -9.0894    1.4034   -0.3631 N.3     1  UNL1       -0.3136
     21 C          -8.2466    2.0552    0.6250 C.3     1  UNL1        0.0087
     22 C          -6.8689    1.3773    0.6647 C.3     1  UNL1        0.0116
     23 N          -1.9711   -0.1426    0.2320 N.ar    1  UNL1       -0.2207
     24 C          -0.6303    0.0016    0.1706 C.ar    1  UNL1        0.0392
     25 C           2.2766    0.5057   -0.5596 C.ar    1  UNL1        0.0392
     26 N           3.6157    0.5205   -0.6245 N.ar    1  UNL1       -0.2350
     27 C           4.3621   -0.5974   -0.8310 C.ar    1  UNL1        0.1632
     28 C           7.2976    0.5343    0.3880 C.ar    1  UNL1        0.0082
     29 C           6.8570   -0.0680    1.5546 C.ar    1  UNL1       -0.0506
     30 C           7.4251    0.3137    2.7507 C.ar    1  UNL1       -0.0430
     31 C           8.4187    1.2750    2.8300 C.ar    1  UNL1        0.0283
     32 N           8.8220    1.8408    1.6615 N.ar    1  UNL1       -0.2550
     33 C           8.2877    1.4902    0.4815 C.ar    1  UNL1        0.0715
     34 C           8.7528    2.1181   -0.6682 C.ar    1  UNL1       -0.0357
     35 H           8.6113    2.2936   -2.7489 H       1  UNL1        0.0618
     36 H           6.8030    0.5475   -2.9278 H       1  UNL1        0.0624
     37 H           6.8421   -2.6706   -1.2585 H       1  UNL1        0.0855
     38 H           1.8777   -2.7599   -1.0367 H       1  UNL1        0.0837
     39 H           0.0701   -2.3891   -2.0191 H       1  UNL1        0.0626
     40 H          -2.3955   -2.6912   -1.9390 H       1  UNL1        0.0671
     41 H          -4.6469    0.5812    0.0643 H       1  UNL1        0.0710
     42 H          -4.3781   -0.6564    1.3940 H       1  UNL1        0.0710
     43 H          -6.3630   -1.9180    0.4516 H       1  UNL1        0.0460
     44 H          -6.5980   -0.6709   -0.7987 H       1  UNL1        0.0460
     45 H          -8.4942   -1.4897    1.2505 H       1  UNL1        0.0439
     46 H          -8.8564    0.0899    2.0177 H       1  UNL1        0.0439
     47 H          -8.6120   -0.5443   -0.9794 H       1  UNL1        0.0437
     48 H         -10.1685   -0.3530   -0.0547 H       1  UNL1        0.0437
     49 H          -8.6413    1.5970   -1.2940 H       1  UNL1        0.1220
     50 H          -8.0467    3.1125    0.3246 H       1  UNL1        0.0437
     51 H          -8.6516    2.0694    1.6334 H       1  UNL1        0.0437
     52 H          -6.2478    2.0078    1.3136 H       1  UNL1        0.0439
     53 H          -6.4347    1.3729   -0.3637 H       1  UNL1        0.0439
     54 H          -0.1497    0.7676    0.7733 H       1  UNL1        0.0837
     55 H           1.7608    1.4346   -0.3932 H       1  UNL1        0.0837
     56 H           6.0814   -0.8175    1.4861 H       1  UNL1        0.0625
     57 H           7.0757   -0.1626    3.6675 H       1  UNL1        0.0633
     58 H           8.8434    1.5550    3.7814 H       1  UNL1        0.0830
     59 H           9.5398    2.8761   -0.5823 H       1  UNL1        0.0639
@<TRIPOS>BOND
     1     1     2   ar
     2     2     3   ar
     3     3     4    1
     4     4     5   ar
     5     5     6   ar
     6     6     7   ar
     7     7     8   ar
     8     8     9   ar
     9     9    10    1
    10    10    11   ar
    11    11    12   ar
    12    12    13   ar
    13    13    14    1
    14    14    15    1
    15    15    16    1
    16    16    17    1
    17    17    18    1
    18    18    19    1
    19    19    20    1
    20    20    21    1
    21    21    22    1
    22    13    23   ar
    23    23    24   ar
    24     9    25   ar
    25    25    26   ar
    26    26    27   ar
    27     3    28   ar
    28    28    29   ar
    29    29    30   ar
    30    30    31   ar
    31    31    32   ar
    32    32    33   ar
    33    33    34   ar
    34    34     1   ar
    35    27     4   ar
    36    33    28   ar
    37    27     7   ar
    38    24    10   ar
    39    22    17    1
    40     1    35    1
    41     2    36    1
    42     5    37    1
    43     8    38    1
    44    11    39    1
    45    12    40    1
    46    15    41    1
    47    15    42    1
    48    16    43    1
    49    16    44    1
    50    18    45    1
    51    18    46    1
    52    19    47    1
    53    19    48    1
    54    20    49    1
    55    21    50    1
    56    21    51    1
    57    22    52    1
    58    22    53    1
    59    24    54    1
    60    25    55    1
    61    29    56    1
    62    30    57    1
    63    31    58    1
    64    34    59    1
