@<TRIPOS>MOLECULE
*****
 40 40 0 0 0
SMALL
GASTEIGER

@<TRIPOS>ATOM
      1 CA         -0.9713    0.7085   -1.2660 C.3     1  UNL1        0.0843
      2 N           0.1882    1.0845   -0.4710 N.am    1  UNL1       -0.2715
      3 C           1.3961    0.3435   -0.5284 C.2     1  UNL1        0.4013
      4 O           1.6693   -0.6775   -1.2085 O.2     1  UNL1       -0.2264
      5 O           2.5273    0.6612    0.2087 O.3     1  UNL1       -0.4447
      6 C           3.7186   -0.1325    0.1030 C.3     1  UNL1        0.1068
      7 C           4.2710   -0.1661   -1.2927 C.3     1  UNL1       -0.0253
      8 C           4.7292    0.5895    0.9756 C.3     1  UNL1       -0.0253
      9 C           3.5022   -1.5373    0.6184 C.3     1  UNL1       -0.0253
     10 C          -1.2982    1.8788   -2.1086 C.2     1  UNL1        0.1408
     11 O          -1.9039    2.5267   -2.9330 O.2     1  UNL1       -0.2991
     12 C          -2.1148    0.4470   -0.2874 C.3     1  UNL1       -0.0159
     13 C          -3.3759    0.0457   -1.0265 C.3     1  UNL1       -0.0481
     14 C          -4.4891   -0.0162    0.0043 C.3     1  UNL1       -0.0527
     15 C          -4.1751   -1.0471    1.0545 C.3     1  UNL1       -0.0530
     16 C          -2.8843   -0.6911    1.7168 C.3     1  UNL1       -0.0527
     17 C          -1.7793   -0.6475    0.6766 C.3     1  UNL1       -0.0481
     18 HA         -0.7493   -0.1871   -1.8703 H       1  UNL1        0.0578
     19 H           0.1226    1.9185    0.1526 H       1  UNL1        0.1527
     20 H           4.1844    0.8539   -1.7249 H       1  UNL1        0.0268
     21 H           5.3746   -0.3320   -1.2024 H       1  UNL1        0.0268
     22 H           3.8959   -0.9752   -1.9270 H       1  UNL1        0.0268
     23 H           5.7611    0.4305    0.6426 H       1  UNL1        0.0268
     24 H           4.5149    0.2886    2.0144 H       1  UNL1        0.0268
     25 H           4.5553    1.6923    0.9039 H       1  UNL1        0.0268
     26 H           2.6776   -1.4941    1.3853 H       1  UNL1        0.0268
     27 H           3.2158   -2.2544   -0.1664 H       1  UNL1        0.0268
     28 H           4.4114   -1.8506    1.1723 H       1  UNL1        0.0268
     29 H          -0.8443    2.8591   -2.2011 H       1  UNL1        0.1046
     30 H          -2.3508    1.3944    0.2386 H       1  UNL1        0.0323
     31 H          -3.6456    0.7711   -1.8155 H       1  UNL1        0.0269
     32 H          -3.1854   -0.9589   -1.4718 H       1  UNL1        0.0269
     33 H          -5.4452   -0.2332   -0.4732 H       1  UNL1        0.0265
     34 H          -4.4679    0.9730    0.5200 H       1  UNL1        0.0265
     35 H          -4.9729   -0.9850    1.8344 H       1  UNL1        0.0265
     36 H          -4.0675   -2.0730    0.6512 H       1  UNL1        0.0265
     37 H          -2.8965    0.3113    2.1913 H       1  UNL1        0.0265
     38 H          -2.5807   -1.4342    2.4883 H       1  UNL1        0.0265
     39 H          -0.8430   -0.4874    1.2347 H       1  UNL1        0.0269
     40 H          -1.6746   -1.5978    0.1241 H       1  UNL1        0.0269
@<TRIPOS>BOND
     1     1     2    1
     2     2     3   am
     3     3     4    2
     4     3     5    1
     5     5     6    1
     6     6     7    1
     7     6     8    1
     8     6     9    1
     9     1    10    1
    10    10    11    2
    11     1    12    1
    12    12    13    1
    13    13    14    1
    14    14    15    1
    15    15    16    1
    16    16    17    1
    17    17    12    1
    18     1    18    1
    19     2    19    1
    20     7    20    1
    21     7    21    1
    22     7    22    1
    23     8    23    1
    24     8    24    1
    25     8    25    1
    26     9    26    1
    27     9    27    1
    28     9    28    1
    29    10    29    1
    30    12    30    1
    31    13    31    1
    32    13    32    1
    33    14    33    1
    34    14    34    1
    35    15    35    1
    36    15    36    1
    37    16    37    1
    38    16    38    1
    39    17    39    1
    40    17    40    1
