
     RDKit          3D

 40 40  0  0  0  0  0  0  0  0999 V2000
   -0.9713    0.7085   -1.2660 C   0  0  2  0  0  0  0  0  0  0  0  0
    0.1882    1.0845   -0.4710 N   0  0  0  0  0  0  0  0  0  0  0  0
    1.3961    0.3435   -0.5284 C   0  0  0  0  0  0  0  0  0  0  0  0
    1.6693   -0.6775   -1.2085 O   0  0  0  0  0  0  0  0  0  0  0  0
    2.5273    0.6612    0.2087 O   0  0  0  0  0  0  0  0  0  0  0  0
    3.7186   -0.1325    0.1030 C   0  0  0  0  0  0  0  0  0  0  0  0
    4.2710   -0.1661   -1.2927 C   0  0  0  0  0  0  0  0  0  0  0  0
    4.7292    0.5895    0.9756 C   0  0  0  0  0  0  0  0  0  0  0  0
    3.5022   -1.5373    0.6184 C   0  0  0  0  0  0  0  0  0  0  0  0
   -1.2982    1.8788   -2.1086 C   0  0  0  0  0  0  0  0  0  0  0  0
   -1.9039    2.5267   -2.9330 O   0  0  0  0  0  0  0  0  0  0  0  0
   -2.1148    0.4470   -0.2874 C   0  0  0  0  0  0  0  0  0  0  0  0
   -3.3759    0.0457   -1.0265 C   0  0  0  0  0  0  0  0  0  0  0  0
   -4.4891   -0.0162    0.0043 C   0  0  0  0  0  0  0  0  0  0  0  0
   -4.1751   -1.0471    1.0545 C   0  0  0  0  0  0  0  0  0  0  0  0
   -2.8843   -0.6911    1.7168 C   0  0  0  0  0  0  0  0  0  0  0  0
   -1.7793   -0.6475    0.6766 C   0  0  0  0  0  0  0  0  0  0  0  0
   -0.7493   -0.1871   -1.8703 H   0  0  0  0  0  0  0  0  0  0  0  0
    0.1226    1.9185    0.1526 H   0  0  0  0  0  0  0  0  0  0  0  0
    4.1844    0.8539   -1.7249 H   0  0  0  0  0  0  0  0  0  0  0  0
    5.3746   -0.3320   -1.2024 H   0  0  0  0  0  0  0  0  0  0  0  0
    3.8959   -0.9752   -1.9270 H   0  0  0  0  0  0  0  0  0  0  0  0
    5.7611    0.4305    0.6426 H   0  0  0  0  0  0  0  0  0  0  0  0
    4.5149    0.2886    2.0144 H   0  0  0  0  0  0  0  0  0  0  0  0
    4.5553    1.6923    0.9039 H   0  0  0  0  0  0  0  0  0  0  0  0
    2.6776   -1.4941    1.3853 H   0  0  0  0  0  0  0  0  0  0  0  0
    3.2158   -2.2544   -0.1664 H   0  0  0  0  0  0  0  0  0  0  0  0
    4.4114   -1.8506    1.1723 H   0  0  0  0  0  0  0  0  0  0  0  0
   -0.8443    2.8591   -2.2011 H   0  0  0  0  0  0  0  0  0  0  0  0
   -2.3508    1.3944    0.2386 H   0  0  0  0  0  0  0  0  0  0  0  0
   -3.6456    0.7711   -1.8155 H   0  0  0  0  0  0  0  0  0  0  0  0
   -3.1854   -0.9589   -1.4718 H   0  0  0  0  0  0  0  0  0  0  0  0
   -5.4452   -0.2332   -0.4732 H   0  0  0  0  0  0  0  0  0  0  0  0
   -4.4679    0.9730    0.5200 H   0  0  0  0  0  0  0  0  0  0  0  0
   -4.9729   -0.9850    1.8344 H   0  0  0  0  0  0  0  0  0  0  0  0
   -4.0675   -2.0730    0.6512 H   0  0  0  0  0  0  0  0  0  0  0  0
   -2.8965    0.3113    2.1913 H   0  0  0  0  0  0  0  0  0  0  0  0
   -2.5807   -1.4342    2.4883 H   0  0  0  0  0  0  0  0  0  0  0  0
   -0.8430   -0.4874    1.2347 H   0  0  0  0  0  0  0  0  0  0  0  0
   -1.6746   -1.5978    0.1241 H   0  0  0  0  0  0  0  0  0  0  0  0
  1  2  1  0
  2  3  1  0
  3  4  2  0
  3  5  1  0
  5  6  1  0
  6  7  1  0
  6  8  1  0
  6  9  1  0
  1 10  1  0
 10 11  2  0
  1 12  1  0
 12 13  1  0
 13 14  1  0
 14 15  1  0
 15 16  1  0
 16 17  1  0
 17 12  1  0
  1 18  1  6
  2 19  1  0
  7 20  1  0
  7 21  1  0
  7 22  1  0
  8 23  1  0
  8 24  1  0
  8 25  1  0
  9 26  1  0
  9 27  1  0
  9 28  1  0
 10 29  1  0
 12 30  1  0
 13 31  1  0
 13 32  1  0
 14 33  1  0
 14 34  1  0
 15 35  1  0
 15 36  1  0
 16 37  1  0
 16 38  1  0
 17 39  1  0
 17 40  1  0
M  END
$$$$
