@<TRIPOS>MOLECULE
*****
 68 72 0 0 0
SMALL
GASTEIGER

@<TRIPOS>ATOM
      1 C           1.4605    3.5692    0.1250 C.3     1  UNL1        0.0154
      2 N           1.5680    2.2028   -0.3320 N.ar    1  UNL1       -0.3083
      3 C           2.6730    1.7751   -1.0162 C.ar    1  UNL1        0.2732
      4 O           3.5902    2.5982   -1.2381 O.2     1  UNL1       -0.2657
      5 C           2.7692    0.4745   -1.4473 C.ar    1  UNL1        0.1105
      6 C           3.9535   -0.0266   -2.1909 C.3     1  UNL1        0.0201
      7 C           5.1301   -0.2874   -1.3700 C.ar    1  UNL1       -0.0414
      8 C           5.3266   -1.4649   -0.6627 C.ar    1  UNL1       -0.0574
      9 C           6.4709   -1.6400    0.0838 C.ar    1  UNL1       -0.0466
     10 C           7.4490   -0.6776    0.1606 C.ar    1  UNL1        0.0647
     11 C           8.6771   -0.8526    0.9559 C.2     1  UNL1        0.3081
     12 N           9.7397   -0.2772    0.5589 N.2     1  UNL1       -0.0994
     13 N           8.7083   -1.6344    2.1379 N.pl3   1  UNL1       -0.2466
     14 C           7.2698    0.4983   -0.5362 C.ar    1  UNL1       -0.0466
     15 C           6.1147    0.6691   -1.2869 C.ar    1  UNL1       -0.0574
     16 N           1.7205   -0.3394   -1.1568 N.ar    1  UNL1       -0.2444
     17 C           0.6269    0.0767   -0.4819 C.ar    1  UNL1        0.0882
     18 C          -0.4249   -0.7921   -0.2072 C.ar    1  UNL1       -0.0291
     19 C          -1.5606   -0.4275    0.4728 C.ar    1  UNL1       -0.0218
     20 C          -2.6729   -1.3979    0.7964 C.3     1  UNL1        0.0630
     21 N          -3.9484   -0.7672    0.9772 N.am    1  UNL1       -0.2882
     22 C          -4.4611   -0.5351    2.2745 C.2     1  UNL1        0.2272
     23 O          -3.7935   -0.7667    3.3310 O.2     1  UNL1       -0.2750
     24 C          -5.8392    0.0030    2.5324 C.3     1  UNL1        0.1212
     25 C          -5.8766    1.4837    2.5436 C.2     1  UNL1        0.3136
     26 O          -4.8554    2.1911    2.3642 O.2     1  UNL1       -0.2505
     27 O          -7.0653    2.1627    2.7570 O.3     1  UNL1       -0.4803
     28 C          -4.7949   -0.3554   -0.1191 C.3     1  UNL1        0.0269
     29 C          -5.1260   -1.5137   -1.0490 C.3     1  UNL1       -0.0343
     30 C          -5.3642   -0.8586   -2.4092 C.3     1  UNL1       -0.0513
     31 C          -4.9421    0.5869   -2.2824 C.3     1  UNL1       -0.0513
     32 C          -4.0178    0.5210   -1.0636 C.3     1  UNL1       -0.0343
     33 C          -2.4172   -2.8246    0.6788 C.3     1  UNL1       -0.0250
     34 C          -2.3052   -2.2709    2.0347 C.3     1  UNL1       -0.0250
     35 C          -1.6163    0.8964    0.8904 C.ar    1  UNL1       -0.0545
     36 C          -0.5897    1.7795    0.6325 C.ar    1  UNL1       -0.0357
     37 C           0.5493    1.3704   -0.0622 C.ar    1  UNL1        0.0700
     38 H           1.4975    3.5692    1.2345 H       1  UNL1        0.0457
     39 H           0.4951    4.0383   -0.1759 H       1  UNL1        0.0457
     40 H           2.2856    4.1483   -0.3239 H       1  UNL1        0.0457
     41 H           3.7094   -0.9837   -2.7317 H       1  UNL1        0.0378
     42 H           4.2416    0.6807   -3.0155 H       1  UNL1        0.0378
     43 H           4.5559   -2.2322   -0.7186 H       1  UNL1        0.0621
     44 H           6.6369   -2.5649    0.6462 H       1  UNL1        0.0626
     45 H           9.8003    0.3152   -0.2991 H       1  UNL1        0.3633
     46 H           9.2158   -2.5328    2.1724 H       1  UNL1        0.2884
     47 H           8.2087   -1.2903    2.9818 H       1  UNL1        0.2884
     48 H           8.0234    1.2923   -0.5031 H       1  UNL1        0.0626
     49 H           6.0555    1.6275   -1.8122 H       1  UNL1        0.0621
     50 H          -0.2869   -1.7873   -0.5744 H       1  UNL1        0.0643
     51 H          -6.1348   -0.3017    3.5906 H       1  UNL1        0.0473
     52 H          -6.5964   -0.3962    1.8607 H       1  UNL1        0.0473
     53 H          -7.1441    3.1685    2.7317 H       1  UNL1        0.2951
     54 H          -5.7137    0.1121    0.2044 H       1  UNL1        0.0501
     55 H          -6.0739   -2.0075   -0.7682 H       1  UNL1        0.0283
     56 H          -4.3028   -2.2132   -1.1803 H       1  UNL1        0.0283
     57 H          -4.7923   -1.3582   -3.2093 H       1  UNL1        0.0266
     58 H          -6.4365   -0.8657   -2.6904 H       1  UNL1        0.0266
     59 H          -5.7859    1.2543   -2.0244 H       1  UNL1        0.0266
     60 H          -4.4260    0.9596   -3.1722 H       1  UNL1        0.0266
     61 H          -3.0660    0.0787   -1.3943 H       1  UNL1        0.0283
     62 H          -3.8693    1.5477   -0.7437 H       1  UNL1        0.0283
     63 H          -3.2182   -3.5707    0.4731 H       1  UNL1        0.0290
     64 H          -1.4595   -3.1514    0.2281 H       1  UNL1        0.0290
     65 H          -1.3283   -2.0795    2.5188 H       1  UNL1        0.0290
     66 H          -3.0587   -2.6249    2.7295 H       1  UNL1        0.0290
     67 H          -2.4898    1.2230    1.4278 H       1  UNL1        0.0622
     68 H          -0.6680    2.7957    0.9712 H       1  UNL1        0.0639
@<TRIPOS>BOND
     1     1     2    1
     2     2     3   ar
     3     3     4    2
     4     3     5   ar
     5     5     6    1
     6     6     7    1
     7     7     8   ar
     8     8     9   ar
     9     9    10   ar
    10    10    11    1
    11    11    12    2
    12    11    13    1
    13    10    14   ar
    14    14    15   ar
    15     5    16   ar
    16    16    17   ar
    17    17    18   ar
    18    18    19   ar
    19    19    20    1
    20    20    21    1
    21    21    22   am
    22    22    23    2
    23    22    24    1
    24    24    25    1
    25    25    26    2
    26    25    27    1
    27    21    28    1
    28    28    29    1
    29    29    30    1
    30    30    31    1
    31    31    32    1
    32    20    33    1
    33    33    34    1
    34    19    35   ar
    35    35    36   ar
    36    36    37   ar
    37    37     2   ar
    38    15     7   ar
    39    37    17   ar
    40    34    20    1
    41    32    28    1
    42     1    38    1
    43     1    39    1
    44     1    40    1
    45     6    41    1
    46     6    42    1
    47     8    43    1
    48     9    44    1
    49    12    45    1
    50    13    46    1
    51    13    47    1
    52    14    48    1
    53    15    49    1
    54    18    50    1
    55    24    51    1
    56    24    52    1
    57    27    53    1
    58    28    54    1
    59    29    55    1
    60    29    56    1
    61    30    57    1
    62    30    58    1
    63    31    59    1
    64    31    60    1
    65    32    61    1
    66    32    62    1
    67    33    63    1
    68    33    64    1
    69    34    65    1
    70    34    66    1
    71    35    67    1
    72    36    68    1
