
     RDKit          3D

 68 72  0  0  0  0  0  0  0  0999 V2000
    1.4605    3.5692    0.1250 C   0  0  0  0  0  0  0  0  0  0  0  0
    1.5680    2.2028   -0.3320 N   0  0  0  0  0  0  0  0  0  0  0  0
    2.6730    1.7751   -1.0162 C   0  0  0  0  0  0  0  0  0  0  0  0
    3.5902    2.5982   -1.2381 O   0  0  0  0  0  0  0  0  0  0  0  0
    2.7692    0.4745   -1.4473 C   0  0  0  0  0  0  0  0  0  0  0  0
    3.9535   -0.0266   -2.1909 C   0  0  0  0  0  0  0  0  0  0  0  0
    5.1301   -0.2874   -1.3700 C   0  0  0  0  0  0  0  0  0  0  0  0
    5.3266   -1.4649   -0.6627 C   0  0  0  0  0  0  0  0  0  0  0  0
    6.4709   -1.6400    0.0838 C   0  0  0  0  0  0  0  0  0  0  0  0
    7.4490   -0.6776    0.1606 C   0  0  0  0  0  0  0  0  0  0  0  0
    8.6771   -0.8526    0.9559 C   0  0  0  0  0  0  0  0  0  0  0  0
    9.7397   -0.2772    0.5589 N   0  0  0  0  0  0  0  0  0  0  0  0
    8.7083   -1.6344    2.1379 N   0  0  0  0  0  0  0  0  0  0  0  0
    7.2698    0.4983   -0.5362 C   0  0  0  0  0  0  0  0  0  0  0  0
    6.1147    0.6691   -1.2869 C   0  0  0  0  0  0  0  0  0  0  0  0
    1.7205   -0.3394   -1.1568 N   0  0  0  0  0  0  0  0  0  0  0  0
    0.6269    0.0767   -0.4819 C   0  0  0  0  0  0  0  0  0  0  0  0
   -0.4249   -0.7921   -0.2072 C   0  0  0  0  0  0  0  0  0  0  0  0
   -1.5606   -0.4275    0.4728 C   0  0  0  0  0  0  0  0  0  0  0  0
   -2.6729   -1.3979    0.7964 C   0  0  0  0  0  0  0  0  0  0  0  0
   -3.9484   -0.7672    0.9772 N   0  0  0  0  0  0  0  0  0  0  0  0
   -4.4611   -0.5351    2.2745 C   0  0  0  0  0  0  0  0  0  0  0  0
   -3.7935   -0.7667    3.3310 O   0  0  0  0  0  0  0  0  0  0  0  0
   -5.8392    0.0030    2.5324 C   0  0  0  0  0  0  0  0  0  0  0  0
   -5.8766    1.4837    2.5436 C   0  0  0  0  0  0  0  0  0  0  0  0
   -4.8554    2.1911    2.3642 O   0  0  0  0  0  0  0  0  0  0  0  0
   -7.0653    2.1627    2.7570 O   0  0  0  0  0  0  0  0  0  0  0  0
   -4.7949   -0.3554   -0.1191 C   0  0  0  0  0  0  0  0  0  0  0  0
   -5.1260   -1.5137   -1.0490 C   0  0  0  0  0  0  0  0  0  0  0  0
   -5.3642   -0.8586   -2.4092 C   0  0  0  0  0  0  0  0  0  0  0  0
   -4.9421    0.5869   -2.2824 C   0  0  0  0  0  0  0  0  0  0  0  0
   -4.0178    0.5210   -1.0636 C   0  0  0  0  0  0  0  0  0  0  0  0
   -2.4172   -2.8246    0.6788 C   0  0  0  0  0  0  0  0  0  0  0  0
   -2.3052   -2.2709    2.0347 C   0  0  0  0  0  0  0  0  0  0  0  0
   -1.6163    0.8964    0.8904 C   0  0  0  0  0  0  0  0  0  0  0  0
   -0.5897    1.7795    0.6325 C   0  0  0  0  0  0  0  0  0  0  0  0
    0.5493    1.3704   -0.0622 C   0  0  0  0  0  0  0  0  0  0  0  0
    1.4975    3.5692    1.2345 H   0  0  0  0  0  0  0  0  0  0  0  0
    0.4951    4.0383   -0.1759 H   0  0  0  0  0  0  0  0  0  0  0  0
    2.2856    4.1483   -0.3239 H   0  0  0  0  0  0  0  0  0  0  0  0
    3.7094   -0.9837   -2.7317 H   0  0  0  0  0  0  0  0  0  0  0  0
    4.2416    0.6807   -3.0155 H   0  0  0  0  0  0  0  0  0  0  0  0
    4.5559   -2.2322   -0.7186 H   0  0  0  0  0  0  0  0  0  0  0  0
    6.6369   -2.5649    0.6462 H   0  0  0  0  0  0  0  0  0  0  0  0
    9.8003    0.3152   -0.2991 H   0  0  0  0  0  0  0  0  0  0  0  0
    9.2158   -2.5328    2.1724 H   0  0  0  0  0  0  0  0  0  0  0  0
    8.2087   -1.2903    2.9818 H   0  0  0  0  0  0  0  0  0  0  0  0
    8.0234    1.2923   -0.5031 H   0  0  0  0  0  0  0  0  0  0  0  0
    6.0555    1.6275   -1.8122 H   0  0  0  0  0  0  0  0  0  0  0  0
   -0.2869   -1.7873   -0.5744 H   0  0  0  0  0  0  0  0  0  0  0  0
   -6.1348   -0.3017    3.5906 H   0  0  0  0  0  0  0  0  0  0  0  0
   -6.5964   -0.3962    1.8607 H   0  0  0  0  0  0  0  0  0  0  0  0
   -7.1441    3.1685    2.7317 H   0  0  0  0  0  0  0  0  0  0  0  0
   -5.7137    0.1121    0.2044 H   0  0  0  0  0  0  0  0  0  0  0  0
   -6.0739   -2.0075   -0.7682 H   0  0  0  0  0  0  0  0  0  0  0  0
   -4.3028   -2.2132   -1.1803 H   0  0  0  0  0  0  0  0  0  0  0  0
   -4.7923   -1.3582   -3.2093 H   0  0  0  0  0  0  0  0  0  0  0  0
   -6.4365   -0.8657   -2.6904 H   0  0  0  0  0  0  0  0  0  0  0  0
   -5.7859    1.2543   -2.0244 H   0  0  0  0  0  0  0  0  0  0  0  0
   -4.4260    0.9596   -3.1722 H   0  0  0  0  0  0  0  0  0  0  0  0
   -3.0660    0.0787   -1.3943 H   0  0  0  0  0  0  0  0  0  0  0  0
   -3.8693    1.5477   -0.7437 H   0  0  0  0  0  0  0  0  0  0  0  0
   -3.2182   -3.5707    0.4731 H   0  0  0  0  0  0  0  0  0  0  0  0
   -1.4595   -3.1514    0.2281 H   0  0  0  0  0  0  0  0  0  0  0  0
   -1.3283   -2.0795    2.5188 H   0  0  0  0  0  0  0  0  0  0  0  0
   -3.0587   -2.6249    2.7295 H   0  0  0  0  0  0  0  0  0  0  0  0
   -2.4898    1.2230    1.4278 H   0  0  0  0  0  0  0  0  0  0  0  0
   -0.6680    2.7957    0.9712 H   0  0  0  0  0  0  0  0  0  0  0  0
  1  2  1  0
  2  3  1  0
  3  4  2  0
  3  5  1  0
  5  6  1  0
  6  7  1  0
  7  8  2  0
  8  9  1  0
  9 10  2  0
 10 11  1  0
 11 12  2  3
 11 13  1  0
 10 14  1  0
 14 15  2  0
  5 16  2  0
 16 17  1  0
 17 18  2  0
 18 19  1  0
 19 20  1  0
 20 21  1  0
 21 22  1  0
 22 23  2  0
 22 24  1  0
 24 25  1  0
 25 26  2  0
 25 27  1  0
 21 28  1  0
 28 29  1  0
 29 30  1  0
 30 31  1  0
 31 32  1  0
 20 33  1  0
 33 34  1  0
 19 35  2  0
 35 36  1  0
 36 37  2  0
 37  2  1  0
 15  7  1  0
 37 17  1  0
 34 20  1  0
 32 28  1  0
  1 38  1  0
  1 39  1  0
  1 40  1  0
  6 41  1  0
  6 42  1  0
  8 43  1  0
  9 44  1  0
 12 45  1  0
 13 46  1  0
 13 47  1  0
 14 48  1  0
 15 49  1  0
 18 50  1  0
 24 51  1  0
 24 52  1  0
 27 53  1  0
 28 54  1  0
 29 55  1  0
 29 56  1  0
 30 57  1  0
 30 58  1  0
 31 59  1  0
 31 60  1  0
 32 61  1  0
 32 62  1  0
 33 63  1  0
 33 64  1  0
 34 65  1  0
 34 66  1  0
 35 67  1  0
 36 68  1  0
M  END
$$$$
