@<TRIPOS>MOLECULE
*****
 52 55 0 0 0
SMALL
GASTEIGER

@<TRIPOS>ATOM
      1 C           1.3868   -2.3889    3.1704 C.3     1  UNL1        0.0167
      2 N           1.3405   -1.2787    2.2390 N.ar    1  UNL1       -0.2962
      3 C           2.3428   -0.3902    2.1461 C.ar    1  UNL1        0.3324
      4 O           3.3346   -0.5286    2.8812 O.2     1  UNL1       -0.2462
      5 N           2.3229    0.6526    1.2861 N.ar    1  UNL1       -0.2560
      6 C           3.3846    1.6314    1.1571 C.3     1  UNL1        0.0560
      7 C           4.4109    1.2706    0.1646 C.ar    1  UNL1       -0.0275
      8 C           5.4967    0.5348    0.6059 C.ar    1  UNL1       -0.0561
      9 C           6.5118    0.1457   -0.2400 C.ar    1  UNL1       -0.0475
     10 C           6.4665    0.4908   -1.5828 C.ar    1  UNL1        0.0589
     11 C           5.3865    1.2215   -2.0167 C.ar    1  UNL1       -0.0475
     12 C           4.3609    1.6163   -1.1693 C.ar    1  UNL1       -0.0561
     13 C           7.5317    0.0960   -2.5275 C.2     1  UNL1        0.3368
     14 O           8.6069   -0.6340   -2.0841 O.3     1  UNL1       -0.4771
     15 O           7.5562    0.3692   -3.7380 O.2     1  UNL1       -0.2451
     16 C           1.2212    0.7777    0.4928 C.ar    1  UNL1        0.2646
     17 O           1.0808    1.7110   -0.3538 O.2     1  UNL1       -0.2668
     18 C           0.1913   -0.1343    0.5876 C.ar    1  UNL1        0.0643
     19 C           0.2329   -1.2000    1.4798 C.ar    1  UNL1        0.0584
     20 C          -0.7920   -2.1339    1.5955 C.ar    1  UNL1       -0.0361
     21 C          -1.9024   -1.9946    0.7853 C.ar    1  UNL1       -0.0443
     22 C          -1.9272   -0.9407   -0.0868 C.ar    1  UNL1        0.0258
     23 C          -0.9230   -0.0051   -0.2168 C.ar    1  UNL1       -0.0320
     24 C          -3.0749   -0.7783   -0.9393 C.1     1  UNL1       -0.0660
     25 C          -4.0458   -0.6276   -1.6414 C.1     1  UNL1       -0.0923
     26 C          -5.2259   -0.4245   -2.5099 C.3     1  UNL1        0.0346
     27 C          -6.3332    0.2032   -1.7138 C.ar    1  UNL1       -0.0356
     28 C          -7.2555   -0.5766   -1.0463 C.ar    1  UNL1       -0.0577
     29 C          -8.2806   -0.0189   -0.3092 C.ar    1  UNL1       -0.0615
     30 C          -8.3491    1.3386   -0.2643 C.ar    1  UNL1       -0.0617
     31 C          -7.4388    2.1434   -0.9232 C.ar    1  UNL1       -0.0615
     32 C          -6.4100    1.5989   -1.6630 C.ar    1  UNL1       -0.0577
     33 H           2.3888   -2.4707    3.6388 H       1  UNL1        0.0457
     34 H           0.5774   -2.2644    3.9205 H       1  UNL1        0.0457
     35 H           1.2437   -3.3530    2.6101 H       1  UNL1        0.0457
     36 H           2.8825    2.6007    0.9163 H       1  UNL1        0.0544
     37 H           3.8209    1.7649    2.1753 H       1  UNL1        0.0544
     38 H           5.6739    0.1896    1.6263 H       1  UNL1        0.0621
     39 H           7.3819   -0.4282    0.0476 H       1  UNL1        0.0626
     40 H           5.3575    1.4894   -3.0745 H       1  UNL1        0.0626
     41 H           3.5216    2.1892   -1.5279 H       1  UNL1        0.0621
     42 H           9.5613   -0.4132   -2.3947 H       1  UNL1        0.2954
     43 H          -0.7311   -2.9462    2.2939 H       1  UNL1        0.0639
     44 H          -2.7455   -2.6724    0.8069 H       1  UNL1        0.0630
     45 H          -0.9935    0.8179   -0.9301 H       1  UNL1        0.0638
     46 H          -5.6060   -1.3751   -2.9205 H       1  UNL1        0.0446
     47 H          -4.8946    0.2473   -3.3263 H       1  UNL1        0.0446
     48 H          -7.2086   -1.6703   -1.0765 H       1  UNL1        0.0621
     49 H          -8.9918   -0.6552    0.2056 H       1  UNL1        0.0618
     50 H          -9.1646    1.7559    0.3221 H       1  UNL1        0.0618
     51 H          -7.5774    3.1992   -0.8268 H       1  UNL1        0.0618
     52 H          -5.7048    2.2482   -2.1735 H       1  UNL1        0.0621
@<TRIPOS>BOND
     1     1     2    1
     2     2     3   ar
     3     3     4    2
     4     3     5   ar
     5     5     6    1
     6     6     7    1
     7     7     8   ar
     8     8     9   ar
     9     9    10   ar
    10    10    11   ar
    11    11    12   ar
    12    10    13    1
    13    13    14    1
    14    13    15    2
    15     5    16   ar
    16    16    17    2
    17    16    18   ar
    18    18    19   ar
    19    19    20   ar
    20    20    21   ar
    21    21    22   ar
    22    22    23   ar
    23    22    24    1
    24    24    25    3
    25    25    26    1
    26    26    27    1
    27    27    28   ar
    28    28    29   ar
    29    29    30   ar
    30    30    31   ar
    31    31    32   ar
    32    19     2   ar
    33    32    27   ar
    34    12     7   ar
    35    23    18   ar
    36     1    33    1
    37     1    34    1
    38     1    35    1
    39     6    36    1
    40     6    37    1
    41     8    38    1
    42     9    39    1
    43    11    40    1
    44    12    41    1
    45    14    42    1
    46    20    43    1
    47    21    44    1
    48    23    45    1
    49    26    46    1
    50    26    47    1
    51    28    48    1
    52    29    49    1
    53    30    50    1
    54    31    51    1
    55    32    52    1
