
     RDKit          3D

 26 26  0  0  0  0  0  0  0  0999 V2000
   -4.1851    0.7508    1.0223 C   0  0  0  0  0  0  0  0  0  0  0  0
   -2.7141    0.7066    0.6931 C   0  0  0  0  0  0  0  0  0  0  0  0
   -1.8670    1.6815    1.0307 N   0  0  0  0  0  0  0  0  0  0  0  0
   -0.5564    1.6086    0.7169 C   0  0  0  0  0  0  0  0  0  0  0  0
   -0.0072    0.5445    0.0368 C   0  0  0  0  0  0  0  0  0  0  0  0
    1.4101    0.4036   -0.3277 C   0  0  0  0  0  0  0  0  0  0  0  0
    2.1356   -0.4532    0.4606 O   0  0  0  0  0  0  0  0  0  0  0  0
    3.7275   -0.4430   -0.1496 P   0  0  0  0  0  0  0  0  0  0  0  0
    4.6427    0.7198    0.6778 O   0  0  0  0  0  0  0  0  0  0  0  0
    4.4159   -1.9390    0.0957 O   0  0  0  0  0  0  0  0  0  0  0  0
    3.7048   -0.0152   -1.6055 O   0  0  0  0  0  0  0  0  0  0  0  0
   -0.9028   -0.4463   -0.3005 C   0  0  0  0  0  0  0  0  0  0  0  0
   -0.3873   -1.6092   -1.0255 C   0  0  0  0  0  0  0  0  0  0  0  0
   -0.4368   -1.4410   -2.2771 O   0  0  0  0  0  0  0  0  0  0  0  0
   -2.2475   -0.4025    0.0079 C   0  0  0  0  0  0  0  0  0  0  0  0
   -3.1128   -1.4216   -0.3480 O   0  0  0  0  0  0  0  0  0  0  0  0
   -4.3223    1.6036    1.6901 H   0  0  0  0  0  0  0  0  0  0  0  0
   -4.4986   -0.2066    1.4759 H   0  0  0  0  0  0  0  0  0  0  0  0
   -4.7690    1.0019    0.0999 H   0  0  0  0  0  0  0  0  0  0  0  0
    0.1083    2.4147    1.0093 H   0  0  0  0  0  0  0  0  0  0  0  0
    1.8781    1.4226   -0.2068 H   0  0  0  0  0  0  0  0  0  0  0  0
    1.5446    0.1512   -1.3943 H   0  0  0  0  0  0  0  0  0  0  0  0
    4.1900    1.5784    0.5195 H   0  0  0  0  0  0  0  0  0  0  0  0
    5.3490   -1.8818    0.4788 H   0  0  0  0  0  0  0  0  0  0  0  0
    0.0160   -2.5566   -0.6702 H   0  0  0  0  0  0  0  0  0  0  0  0
   -3.1159   -1.7717   -1.3033 H   0  0  0  0  0  0  0  0  0  0  0  0
  1  2  1  0
  2  3  2  0
  3  4  1  0
  4  5  2  0
  5  6  1  0
  6  7  1  0
  7  8  1  0
  8  9  1  0
  8 10  1  0
  8 11  2  0
  5 12  1  0
 12 13  1  0
 13 14  2  0
 12 15  2  0
 15 16  1  0
 15  2  1  0
  1 17  1  0
  1 18  1  0
  1 19  1  0
  4 20  1  0
  6 21  1  0
  6 22  1  0
  9 23  1  0
 10 24  1  0
 13 25  1  0
 16 26  1  0
M  END
$$$$
