@<TRIPOS>MOLECULE
*****
 49 53 0 0 0
SMALL
GASTEIGER

@<TRIPOS>ATOM
      1 C           0.1888   -0.4123    1.1957 C.3     1  UNL1        0.0803
      2 C           0.0791    0.2001    2.5632 C.3     1  UNL1       -0.0303
      3 C          -0.1318    1.6920    2.5357 C.3     1  UNL1       -0.0632
      4 N           1.2859    0.1549    0.4705 N.pl3   1  UNL1       -0.3174
      5 C           2.6360   -0.0651    0.9385 C.ar    1  UNL1        0.1502
      6 N           2.8411   -0.8208    2.0577 N.ar    1  UNL1       -0.2186
      7 C           4.0599   -1.0808    2.5566 C.ar    1  UNL1        0.1205
      8 N           5.1803   -0.6099    1.9832 N.ar    1  UNL1       -0.2162
      9 C           5.0474    0.1415    0.8773 C.ar    1  UNL1        0.1627
     10 C           3.7896    0.3969    0.3811 C.ar    1  UNL1        0.1472
     11 N           3.9310    1.1622   -0.7177 N.ar    1  UNL1       -0.2308
     12 C           5.2460    1.3778   -0.9006 C.ar    1  UNL1        0.0957
     13 N           5.9347    0.7558    0.0721 N.ar    1  UNL1       -0.3292
     14 C          -1.0361   -0.7140    0.4935 C.ar    1  UNL1        0.1378
     15 N          -1.7448   -1.7905    0.8891 N.ar    1  UNL1       -0.2311
     16 C          -2.8768   -2.2346    0.3824 C.ar    1  UNL1        0.0810
     17 C          -3.4845   -3.3762    0.9172 C.ar    1  UNL1       -0.0353
     18 C          -4.6695   -3.8500    0.3951 C.ar    1  UNL1       -0.0570
     19 C          -5.2509   -3.1911   -0.6574 C.ar    1  UNL1       -0.0256
     20 C          -4.6447   -2.0710   -1.1742 C.ar    1  UNL1        0.1378
     21 F          -5.1660   -1.3593   -2.2258 F       1  UNL1       -0.2046
     22 C          -3.4632   -1.5774   -0.6726 C.ar    1  UNL1        0.1003
     23 C          -2.7693   -0.4686   -1.1097 C.ar    1  UNL1        0.2691
     24 O          -3.3158    0.1328   -2.0831 O.2     1  UNL1       -0.2665
     25 N          -1.6236   -0.0920   -0.5321 N.ar    1  UNL1       -0.2628
     26 C          -1.0791    1.0574   -1.1546 C.ar    1  UNL1        0.0512
     27 C          -0.5634    0.6715   -2.4099 C.ar    1  UNL1       -0.0377
     28 C           0.0339    1.5958   -3.2759 C.ar    1  UNL1       -0.0598
     29 C           0.1240    2.9168   -2.9000 C.ar    1  UNL1       -0.0616
     30 C          -0.3786    3.2809   -1.6822 C.ar    1  UNL1       -0.0598
     31 C          -0.9650    2.3936   -0.8240 C.ar    1  UNL1       -0.0377
     32 H           0.6234   -1.4727    1.4537 H       1  UNL1        0.0579
     33 H           0.9753    0.0254    3.1898 H       1  UNL1        0.0285
     34 H          -0.7360   -0.3058    3.1680 H       1  UNL1        0.0285
     35 H           0.4211    2.1804    1.7082 H       1  UNL1        0.0230
     36 H           0.2534    2.1891    3.4568 H       1  UNL1        0.0230
     37 H          -1.2082    1.9677    2.5007 H       1  UNL1        0.0230
     38 H           1.3569    0.7360   -0.3734 H       1  UNL1        0.1482
     39 H           4.1031   -1.7018    3.4640 H       1  UNL1        0.1048
     40 H           5.6576    1.9747   -1.7277 H       1  UNL1        0.1027
     41 H           6.9681    0.7772    0.1435 H       1  UNL1        0.1682
     42 H          -3.0139   -3.8903    1.7518 H       1  UNL1        0.0639
     43 H          -5.1252   -4.7371    0.8238 H       1  UNL1        0.0619
     44 H          -6.1802   -3.5187   -1.1060 H       1  UNL1        0.0646
     45 H          -0.5525   -0.3331   -2.8637 H       1  UNL1        0.0638
     46 H           0.4389    1.3559   -4.2348 H       1  UNL1        0.0618
     47 H           0.5684    3.7029   -3.5015 H       1  UNL1        0.0618
     48 H          -0.3602    4.2846   -1.2908 H       1  UNL1        0.0618
     49 H          -1.4048    2.5493    0.1484 H       1  UNL1        0.0638
@<TRIPOS>BOND
     1     1     2    1
     2     2     3    1
     3     1     4    1
     4     4     5    1
     5     5     6   ar
     6     6     7   ar
     7     7     8   ar
     8     8     9   ar
     9     9    10   ar
    10    10    11   ar
    11    11    12   ar
    12    12    13   ar
    13     1    14    1
    14    14    15   ar
    15    15    16   ar
    16    16    17   ar
    17    17    18   ar
    18    18    19   ar
    19    19    20   ar
    20    20    21    1
    21    20    22   ar
    22    22    23   ar
    23    23    24    2
    24    23    25   ar
    25    25    26    1
    26    26    27   ar
    27    27    28   ar
    28    28    29   ar
    29    29    30   ar
    30    30    31   ar
    31    10     5   ar
    32    25    14   ar
    33    31    26   ar
    34    13     9   ar
    35    22    16   ar
    36     1    32    1
    37     2    33    1
    38     2    34    1
    39     3    35    1
    40     3    36    1
    41     3    37    1
    42     4    38    1
    43     7    39    1
    44    12    40    1
    45    13    41    1
    46    17    42    1
    47    18    43    1
    48    19    44    1
    49    27    45    1
    50    28    46    1
    51    29    47    1
    52    30    48    1
    53    31    49    1
