@<TRIPOS>MOLECULE
*****
 28 28 0 0 0
SMALL
GASTEIGER

@<TRIPOS>ATOM
      1 N           2.3635    1.3657   -0.0405 N.3     1  UNL1       -0.3250
      2 C           1.3908    0.6341    0.7914 C.3     1  UNL1        0.0364
      3 C           0.0631    1.2164    0.5756 C.3     1  UNL1       -0.0016
      4 C          -0.9360    0.3778   -0.1517 C.3     1  UNL1        0.1186
      5 O          -0.7086    0.3297   -1.5337 O.3     1  UNL1       -0.3836
      6 C          -2.3263    0.9347    0.0427 C.3     1  UNL1        0.0755
      7 O          -2.3586    2.2040   -0.5253 O.3     1  UNL1       -0.3921
      8 C          -0.8170   -1.0432    0.3569 C.3     1  UNL1        0.1143
      9 O          -1.8490   -1.8497   -0.0432 O.3     1  UNL1       -0.3862
     10 C           0.5300   -1.5002   -0.2237 C.3     1  UNL1        0.1110
     11 O           0.6638   -2.8736   -0.1326 O.3     1  UNL1       -0.3865
     12 C           1.5875   -0.8038    0.5643 C.3     1  UNL1        0.0987
     13 O           2.8159   -1.0572   -0.0929 O.3     1  UNL1       -0.3876
     14 H           2.5028    2.3422    0.3366 H       1  UNL1        0.1185
     15 H           2.0792    1.3614   -1.0438 H       1  UNL1        0.1185
     16 H           1.7182    0.8708    1.8476 H       1  UNL1        0.0485
     17 H          -0.4238    1.5148    1.5522 H       1  UNL1        0.0310
     18 H           0.1207    2.1942    0.0106 H       1  UNL1        0.0310
     19 H          -1.2631   -0.4236   -1.8806 H       1  UNL1        0.2104
     20 H          -3.0971    0.3124   -0.4355 H       1  UNL1        0.0587
     21 H          -2.5120    1.0611    1.1315 H       1  UNL1        0.0587
     22 H          -2.4702    2.1625   -1.5080 H       1  UNL1        0.2095
     23 H          -0.6691   -1.0031    1.4559 H       1  UNL1        0.0650
     24 H          -2.5693   -1.8054    0.6479 H       1  UNL1        0.2100
     25 H           0.6311   -1.1858   -1.2848 H       1  UNL1        0.0646
     26 H           1.1992   -3.1747   -0.9095 H       1  UNL1        0.2100
     27 H           1.6831   -1.3685    1.5384 H       1  UNL1        0.0635
     28 H           2.6513   -0.7929   -1.0460 H       1  UNL1        0.2100
@<TRIPOS>BOND
     1     1     2    1
     2     2     3    1
     3     3     4    1
     4     4     5    1
     5     4     6    1
     6     6     7    1
     7     4     8    1
     8     8     9    1
     9     8    10    1
    10    10    11    1
    11    10    12    1
    12    12    13    1
    13    12     2    1
    14     1    14    1
    15     1    15    1
    16     2    16    1
    17     3    17    1
    18     3    18    1
    19     5    19    1
    20     6    20    1
    21     6    21    1
    22     7    22    1
    23     8    23    1
    24     9    24    1
    25    10    25    1
    26    11    26    1
    27    12    27    1
    28    13    28    1
