@<TRIPOS>MOLECULE
*****
 27 29 0 0 0
SMALL
GASTEIGER

@<TRIPOS>ATOM
      1 O          -2.1123   -1.0337   -2.6616 O.2     1  UNL1       -0.2671
      2 C          -1.5661   -0.6277   -1.5916 C.ar    1  UNL1        0.2595
      3 N          -0.2045   -0.5505   -1.4976 N.ar    1  UNL1       -0.3064
      4 C           0.3974   -0.1247   -0.3781 C.ar    1  UNL1        0.1414
      5 C           1.8530   -0.0277   -0.2374 C.ar    1  UNL1        0.0174
      6 C           2.7417   -0.3531   -1.2100 C.ar    1  UNL1       -0.0501
      7 C           4.1189   -0.2280   -0.9854 C.ar    1  UNL1       -0.0471
      8 C           4.6194    0.2191    0.2015 C.ar    1  UNL1        0.0179
      9 BR          6.4836    0.4046    0.5500 Br      1  UNL1       -0.0503
     10 C           3.7273    0.5519    1.1948 C.ar    1  UNL1       -0.0471
     11 C           2.3606    0.4250    0.9643 C.ar    1  UNL1       -0.0501
     12 N          -0.4023    0.2223    0.6466 N.ar    1  UNL1       -0.2290
     13 C          -1.7433    0.1672    0.6116 C.ar    1  UNL1        0.0785
     14 C          -2.5435    0.5271    1.6719 C.ar    1  UNL1       -0.0355
     15 C          -3.9221    0.4677    1.6284 C.ar    1  UNL1       -0.0597
     16 C          -4.5521    0.0303    0.4793 C.ar    1  UNL1       -0.0609
     17 C          -3.7509   -0.3322   -0.5881 C.ar    1  UNL1       -0.0474
     18 C          -2.3744   -0.2689   -0.5336 C.ar    1  UNL1        0.0647
     19 H           0.3836   -0.8235   -2.3000 H       1  UNL1        0.1704
     20 H           2.3954   -0.7089   -2.1592 H       1  UNL1        0.0625
     21 H           4.8233   -0.4880   -1.7620 H       1  UNL1        0.0629
     22 H           4.0360    0.9159    2.1696 H       1  UNL1        0.0629
     23 H           1.6636    0.6941    1.7653 H       1  UNL1        0.0625
     24 H          -2.0516    0.8741    2.5841 H       1  UNL1        0.0639
     25 H          -4.5142    0.7611    2.4874 H       1  UNL1        0.0618
     26 H          -5.6320   -0.0161    0.4457 H       1  UNL1        0.0618
     27 H          -4.2343   -0.6774   -1.4960 H       1  UNL1        0.0626
@<TRIPOS>BOND
     1     1     2    2
     2     2     3   ar
     3     3     4   ar
     4     4     5    1
     5     5     6   ar
     6     6     7   ar
     7     7     8   ar
     8     8     9    1
     9     8    10   ar
    10    10    11   ar
    11     4    12   ar
    12    12    13   ar
    13    13    14   ar
    14    14    15   ar
    15    15    16   ar
    16    16    17   ar
    17    17    18   ar
    18    18     2   ar
    19    11     5   ar
    20    18    13   ar
    21     3    19    1
    22     6    20    1
    23     7    21    1
    24    10    22    1
    25    11    23    1
    26    14    24    1
    27    15    25    1
    28    16    26    1
    29    17    27    1
