
     RDKit          3D

 27 29  0  0  0  0  0  0  0  0999 V2000
   -2.1123   -1.0337   -2.6616 O   0  0  0  0  0  0  0  0  0  0  0  0
   -1.5661   -0.6277   -1.5916 C   0  0  0  0  0  0  0  0  0  0  0  0
   -0.2045   -0.5505   -1.4976 N   0  0  0  0  0  0  0  0  0  0  0  0
    0.3974   -0.1247   -0.3781 C   0  0  0  0  0  0  0  0  0  0  0  0
    1.8530   -0.0277   -0.2374 C   0  0  0  0  0  0  0  0  0  0  0  0
    2.7417   -0.3531   -1.2100 C   0  0  0  0  0  0  0  0  0  0  0  0
    4.1189   -0.2280   -0.9854 C   0  0  0  0  0  0  0  0  0  0  0  0
    4.6194    0.2191    0.2015 C   0  0  0  0  0  0  0  0  0  0  0  0
    6.4836    0.4046    0.5500 Br  0  0  0  0  0  0  0  0  0  0  0  0
    3.7273    0.5519    1.1948 C   0  0  0  0  0  0  0  0  0  0  0  0
    2.3606    0.4250    0.9643 C   0  0  0  0  0  0  0  0  0  0  0  0
   -0.4023    0.2223    0.6466 N   0  0  0  0  0  0  0  0  0  0  0  0
   -1.7433    0.1672    0.6116 C   0  0  0  0  0  0  0  0  0  0  0  0
   -2.5435    0.5271    1.6719 C   0  0  0  0  0  0  0  0  0  0  0  0
   -3.9221    0.4677    1.6284 C   0  0  0  0  0  0  0  0  0  0  0  0
   -4.5521    0.0303    0.4793 C   0  0  0  0  0  0  0  0  0  0  0  0
   -3.7509   -0.3322   -0.5881 C   0  0  0  0  0  0  0  0  0  0  0  0
   -2.3744   -0.2689   -0.5336 C   0  0  0  0  0  0  0  0  0  0  0  0
    0.3836   -0.8235   -2.3000 H   0  0  0  0  0  0  0  0  0  0  0  0
    2.3954   -0.7089   -2.1592 H   0  0  0  0  0  0  0  0  0  0  0  0
    4.8233   -0.4880   -1.7620 H   0  0  0  0  0  0  0  0  0  0  0  0
    4.0360    0.9159    2.1696 H   0  0  0  0  0  0  0  0  0  0  0  0
    1.6636    0.6941    1.7653 H   0  0  0  0  0  0  0  0  0  0  0  0
   -2.0516    0.8741    2.5841 H   0  0  0  0  0  0  0  0  0  0  0  0
   -4.5142    0.7611    2.4874 H   0  0  0  0  0  0  0  0  0  0  0  0
   -5.6320   -0.0161    0.4457 H   0  0  0  0  0  0  0  0  0  0  0  0
   -4.2343   -0.6774   -1.4960 H   0  0  0  0  0  0  0  0  0  0  0  0
  1  2  2  0
  2  3  1  0
  3  4  1  0
  4  5  1  0
  5  6  2  0
  6  7  1  0
  7  8  2  0
  8  9  1  0
  8 10  1  0
 10 11  2  0
  4 12  2  0
 12 13  1  0
 13 14  2  0
 14 15  1  0
 15 16  2  0
 16 17  1  0
 17 18  2  0
 18  2  1  0
 11  5  1  0
 18 13  1  0
  3 19  1  0
  6 20  1  0
  7 21  1  0
 10 22  1  0
 11 23  1  0
 14 24  1  0
 15 25  1  0
 16 26  1  0
 17 27  1  0
M  END
$$$$
