@<TRIPOS>MOLECULE
*****
 54 57 0 0 0
SMALL
GASTEIGER

@<TRIPOS>ATOM
      1 C          -5.6453    0.7382    1.5361 C.3     1  UNL1       -0.0125
      2 N          -4.5040    0.8782    0.6823 N.3     1  UNL1       -0.3023
      3 C          -4.8384    1.7800   -0.3897 C.3     1  UNL1       -0.0011
      4 C          -4.4984    1.1198   -1.6818 C.3     1  UNL1       -0.0388
      5 C          -4.0199   -0.2577   -1.3505 C.3     1  UNL1       -0.0361
      6 C          -4.0557   -0.3516    0.1349 C.3     1  UNL1        0.0116
      7 C          -2.7672   -0.8483    0.7374 C.3     1  UNL1       -0.0215
      8 C          -1.6535    0.1551    0.5235 C.3     1  UNL1        0.0136
      9 N          -0.4190   -0.3249    1.1016 N.pl3   1  UNL1       -0.3296
     10 C          -0.3159   -0.4264    2.5564 C.3     1  UNL1        0.0125
     11 C           0.9431   -1.1892    2.9015 C.3     1  UNL1       -0.0332
     12 C           2.0916   -0.4651    2.2071 C.3     1  UNL1       -0.0244
     13 C           1.9418   -0.7667    0.7593 C.ar    1  UNL1       -0.0222
     14 C           2.9963   -1.1120   -0.0515 C.ar    1  UNL1       -0.0059
     15 C           2.8402   -1.3966   -1.4145 C.ar    1  UNL1        0.1768
     16 N           3.9528   -1.7555   -2.2166 N.2     1  UNL1       -0.0412
     17 C           4.9977   -1.0342   -2.3395 C.2     1  UNL1        0.3236
     18 N           6.0971   -1.4499   -3.1664 N.pl3   1  UNL1       -0.2457
     19 C           5.1156    0.2228   -1.6724 C.ar    1  UNL1        0.1025
     20 C           4.1693    1.2443   -1.4578 C.ar    1  UNL1       -0.0397
     21 C           4.5417    2.3199   -0.7900 C.ar    1  UNL1       -0.0539
     22 C           5.8310    2.4366   -0.3150 C.ar    1  UNL1       -0.0235
     23 S           6.5433    0.8788   -0.8785 S.2     1  UNL1       -0.0894
     24 C           1.5577   -1.3135   -1.9140 C.ar    1  UNL1       -0.0091
     25 C           0.5049   -0.9666   -1.0941 C.ar    1  UNL1       -0.0363
     26 C           0.6643   -0.6876    0.2443 C.ar    1  UNL1        0.0332
     27 H          -5.9047    1.7267    1.9900 H       1  UNL1        0.0391
     28 H          -6.5154    0.4518    0.8962 H       1  UNL1        0.0391
     29 H          -5.5404   -0.0223    2.3178 H       1  UNL1        0.0391
     30 H          -4.2611    2.7204   -0.3000 H       1  UNL1        0.0426
     31 H          -5.9136    2.0782   -0.3556 H       1  UNL1        0.0426
     32 H          -3.7570    1.6968   -2.2802 H       1  UNL1        0.0278
     33 H          -5.3996    1.0242   -2.3514 H       1  UNL1        0.0278
     34 H          -4.6391   -1.0351   -1.8540 H       1  UNL1        0.0281
     35 H          -2.9734   -0.3578   -1.7121 H       1  UNL1        0.0281
     36 H          -4.8261   -1.1390    0.3891 H       1  UNL1        0.0463
     37 H          -2.9175   -0.9214    1.8435 H       1  UNL1        0.0295
     38 H          -2.5449   -1.8376    0.3004 H       1  UNL1        0.0295
     39 H          -1.9486    1.0739    1.1125 H       1  UNL1        0.0464
     40 H          -1.5754    0.5033   -0.5105 H       1  UNL1        0.0464
     41 H          -0.3298    0.5704    3.0296 H       1  UNL1        0.0464
     42 H          -1.1701   -1.0467    2.9212 H       1  UNL1        0.0464
     43 H           0.8372   -2.1959    2.4139 H       1  UNL1        0.0283
     44 H           1.0985   -1.2776    3.9726 H       1  UNL1        0.0283
     45 H           3.0760   -0.7986    2.5924 H       1  UNL1        0.0314
     46 H           2.0240    0.6378    2.3841 H       1  UNL1        0.0314
     47 H           3.9955   -1.1710    0.3611 H       1  UNL1        0.0664
     48 H           6.6034   -2.3451   -3.0303 H       1  UNL1        0.2885
     49 H           6.3973   -0.8252   -3.9345 H       1  UNL1        0.2885
     50 H           3.1197    1.1104   -1.8723 H       1  UNL1        0.0631
     51 H           3.8214    3.1799   -0.5847 H       1  UNL1        0.0623
     52 H           6.3166    3.1962    0.2280 H       1  UNL1        0.0693
     53 H           1.3779   -1.5221   -2.9594 H       1  UNL1        0.0661
     54 H          -0.5219   -0.9026   -1.4906 H       1  UNL1        0.0637
@<TRIPOS>BOND
     1     1     2    1
     2     2     3    1
     3     3     4    1
     4     4     5    1
     5     5     6    1
     6     6     7    1
     7     7     8    1
     8     8     9    1
     9     9    10    1
    10    10    11    1
    11    11    12    1
    12    12    13    1
    13    13    14   ar
    14    14    15   ar
    15    15    16    1
    16    16    17    2
    17    17    18    1
    18    17    19    1
    19    19    20   ar
    20    20    21   ar
    21    21    22   ar
    22    22    23   ar
    23    15    24   ar
    24    24    25   ar
    25    25    26   ar
    26     6     2    1
    27    26     9    1
    28    26    13   ar
    29    23    19   ar
    30     1    27    1
    31     1    28    1
    32     1    29    1
    33     3    30    1
    34     3    31    1
    35     4    32    1
    36     4    33    1
    37     5    34    1
    38     5    35    1
    39     6    36    1
    40     7    37    1
    41     7    38    1
    42     8    39    1
    43     8    40    1
    44    10    41    1
    45    10    42    1
    46    11    43    1
    47    11    44    1
    48    12    45    1
    49    12    46    1
    50    14    47    1
    51    18    48    1
    52    18    49    1
    53    20    50    1
    54    21    51    1
    55    22    52    1
    56    24    53    1
    57    25    54    1
