@<TRIPOS>MOLECULE
*****
 67 72 0 0 0
SMALL
GASTEIGER

@<TRIPOS>ATOM
      1 C          -3.9936   -0.7757    3.5194 C.3     1  UNL1       -0.0057
      2 C          -4.5165    0.5166    3.0135 C.ar    1  UNL1        0.1109
      3 O          -5.7420    0.9654    3.2656 O.2     1  UNL1       -0.4674
      4 C          -5.9453    2.1161    2.7092 C.ar    1  UNL1        0.0927
      5 C          -4.7840    2.4544    2.0456 C.ar    1  UNL1       -0.0144
      6 C          -3.8623    1.4374    2.2335 C.ar    1  UNL1        0.0416
      7 C          -2.5060    1.3470    1.7182 C.ar    1  UNL1        0.0858
      8 N          -1.4864    2.0437    2.2991 N.ar    1  UNL1       -0.2279
      9 C          -0.2400    1.9743    1.8532 C.ar    1  UNL1        0.1589
     10 N           0.8415    2.7032    2.4551 N.pl3   1  UNL1       -0.3402
     11 C           0.0379    1.1505    0.7393 C.ar    1  UNL1        0.1605
     12 O           1.3013    1.1166    0.3303 O.3     1  UNL1       -0.4870
     13 C           2.1585    0.5868   -0.5567 C.3     1  UNL1        0.1051
     14 C           2.4224   -0.8815   -0.5494 C.3     1  UNL1        0.0435
     15 N           1.2827   -1.7174   -0.8049 N.3     1  UNL1       -0.3242
     16 C           3.5153   -1.2879   -1.4828 C.3     1  UNL1       -0.0065
     17 C           4.8383   -0.6953   -1.2300 C.ar    1  UNL1       -0.0083
     18 C           5.3948    0.4763   -1.6587 C.ar    1  UNL1        0.1058
     19 C           4.9142    1.4590   -2.6391 C.2     1  UNL1        0.2581
     20 N           3.8192    1.2401   -3.4931 N.am    1  UNL1       -0.3241
     21 O           5.5311    2.5549   -2.7105 O.2     1  UNL1       -0.2688
     22 N           6.6103    0.5571   -1.0382 N.ar    1  UNL1       -0.3504
     23 C           6.8427   -0.4976   -0.2508 C.ar    1  UNL1        0.0473
     24 C           7.9000   -0.8735    0.5658 C.ar    1  UNL1       -0.0378
     25 C           7.8483   -2.0459    1.2690 C.ar    1  UNL1       -0.0598
     26 C           6.7545   -2.8815    1.1883 C.ar    1  UNL1       -0.0611
     27 C           5.7189   -2.4851    0.3712 C.ar    1  UNL1       -0.0523
     28 C           5.7457   -1.3119   -0.3463 C.ar    1  UNL1        0.0036
     29 C          -0.9906    0.4410    0.1430 C.ar    1  UNL1       -0.0052
     30 C          -2.2740    0.5364    0.6328 C.ar    1  UNL1        0.0315
     31 C          -3.3862   -0.2135    0.0085 C.ar    1  UNL1        0.0921
     32 C          -3.3543   -1.5850   -0.1346 C.ar    1  UNL1        0.0560
     33 N          -4.3948   -2.2371   -0.7101 N.ar    1  UNL1       -0.2326
     34 C          -5.4804   -1.5786   -1.1560 C.ar    1  UNL1        0.1747
     35 N          -6.6202   -1.9743   -1.7492 N.ar    1  UNL1       -0.2587
     36 N          -7.3701   -0.8974   -1.9849 N.ar    1  UNL1       -0.1752
     37 C          -6.7341    0.2009   -1.5525 C.ar    1  UNL1        0.0872
     38 C          -7.2269    1.5968   -1.6263 C.3     1  UNL1       -0.0185
     39 C          -5.5277   -0.1955   -1.0190 C.ar    1  UNL1        0.1306
     40 N          -4.4815    0.4238   -0.4446 N.ar    1  UNL1       -0.2401
     41 H          -4.7572   -1.2975    4.1300 H       1  UNL1        0.0308
     42 H          -3.6784   -1.4681    2.7215 H       1  UNL1        0.0308
     43 H          -3.0630   -0.5792    4.1220 H       1  UNL1        0.0308
     44 H          -6.8465    2.7058    2.7505 H       1  UNL1        0.1029
     45 H          -4.6019    3.3567    1.4701 H       1  UNL1        0.0656
     46 H           1.6110    3.1274    1.8891 H       1  UNL1        0.1438
     47 H           0.8363    2.7975    3.4830 H       1  UNL1        0.1438
     48 H           1.8549    0.8419   -1.6271 H       1  UNL1        0.0712
     49 H           3.1538    1.1012   -0.4603 H       1  UNL1        0.0712
     50 H           2.7991   -1.1854    0.4840 H       1  UNL1        0.0495
     51 H           1.4990   -2.5012   -1.4821 H       1  UNL1        0.1186
     52 H           0.8586   -2.0633    0.0686 H       1  UNL1        0.1186
     53 H           3.2613   -1.0856   -2.5514 H       1  UNL1        0.0330
     54 H           3.6355   -2.4188   -1.4651 H       1  UNL1        0.0330
     55 H           3.8159    0.4677   -4.2207 H       1  UNL1        0.1453
     56 H           2.9821    1.8632   -3.4179 H       1  UNL1        0.1453
     57 H           7.2895    1.3379   -1.1521 H       1  UNL1        0.1660
     58 H           8.7543   -0.2307    0.6348 H       1  UNL1        0.0638
     59 H           8.6895   -2.3442    1.9196 H       1  UNL1        0.0618
     60 H           6.7698   -3.7938    1.7656 H       1  UNL1        0.0618
     61 H           4.8513   -3.1114    0.2853 H       1  UNL1        0.0624
     62 H          -0.8459   -0.1889   -0.7242 H       1  UNL1        0.0662
     63 H          -2.4707   -2.1027    0.2313 H       1  UNL1        0.0852
     64 H          -6.9143   -2.9508   -2.0031 H       1  UNL1        0.1906
     65 H          -7.1141    2.0041   -2.6595 H       1  UNL1        0.0294
     66 H          -6.6482    2.2779   -0.9635 H       1  UNL1        0.0294
     67 H          -8.2822    1.6766   -1.2823 H       1  UNL1        0.0294
@<TRIPOS>BOND
     1     1     2    1
     2     2     3   ar
     3     3     4   ar
     4     4     5   ar
     5     5     6   ar
     6     6     7    1
     7     7     8   ar
     8     8     9   ar
     9     9    10    1
    10     9    11   ar
    11    11    12    1
    12    12    13    1
    13    13    14    1
    14    14    15    1
    15    14    16    1
    16    16    17    1
    17    17    18   ar
    18    18    19    1
    19    19    20   am
    20    19    21    2
    21    18    22   ar
    22    22    23   ar
    23    23    24   ar
    24    24    25   ar
    25    25    26   ar
    26    26    27   ar
    27    27    28   ar
    28    11    29   ar
    29    29    30   ar
    30    30    31    1
    31    31    32   ar
    32    32    33   ar
    33    33    34   ar
    34    34    35   ar
    35    35    36   ar
    36    36    37   ar
    37    37    38    1
    38    37    39   ar
    39    39    40   ar
    40     6     2   ar
    41    30     7   ar
    42    40    31   ar
    43    28    17   ar
    44    39    34   ar
    45    28    23   ar
    46     1    41    1
    47     1    42    1
    48     1    43    1
    49     4    44    1
    50     5    45    1
    51    10    46    1
    52    10    47    1
    53    13    48    1
    54    13    49    1
    55    14    50    1
    56    15    51    1
    57    15    52    1
    58    16    53    1
    59    16    54    1
    60    20    55    1
    61    20    56    1
    62    22    57    1
    63    24    58    1
    64    25    59    1
    65    26    60    1
    66    27    61    1
    67    29    62    1
    68    32    63    1
    69    35    64    1
    70    38    65    1
    71    38    66    1
    72    38    67    1
