
     RDKit          3D

 67 72  0  0  0  0  0  0  0  0999 V2000
   -3.9936   -0.7757    3.5194 C   0  0  0  0  0  0  0  0  0  0  0  0
   -4.5165    0.5166    3.0135 C   0  0  0  0  0  0  0  0  0  0  0  0
   -5.7420    0.9654    3.2656 O   0  0  0  0  0  0  0  0  0  0  0  0
   -5.9453    2.1161    2.7092 C   0  0  0  0  0  0  0  0  0  0  0  0
   -4.7840    2.4544    2.0456 C   0  0  0  0  0  0  0  0  0  0  0  0
   -3.8623    1.4374    2.2335 C   0  0  0  0  0  0  0  0  0  0  0  0
   -2.5060    1.3470    1.7182 C   0  0  0  0  0  0  0  0  0  0  0  0
   -1.4864    2.0437    2.2991 N   0  0  0  0  0  0  0  0  0  0  0  0
   -0.2400    1.9743    1.8532 C   0  0  0  0  0  0  0  0  0  0  0  0
    0.8415    2.7032    2.4551 N   0  0  0  0  0  0  0  0  0  0  0  0
    0.0379    1.1505    0.7393 C   0  0  0  0  0  0  0  0  0  0  0  0
    1.3013    1.1166    0.3303 O   0  0  0  0  0  0  0  0  0  0  0  0
    2.1585    0.5868   -0.5567 C   0  0  0  0  0  0  0  0  0  0  0  0
    2.4224   -0.8815   -0.5494 C   0  0  1  0  0  0  0  0  0  0  0  0
    1.2827   -1.7174   -0.8049 N   0  0  0  0  0  0  0  0  0  0  0  0
    3.5153   -1.2879   -1.4828 C   0  0  0  0  0  0  0  0  0  0  0  0
    4.8383   -0.6953   -1.2300 C   0  0  0  0  0  0  0  0  0  0  0  0
    5.3948    0.4763   -1.6587 C   0  0  0  0  0  0  0  0  0  0  0  0
    4.9142    1.4590   -2.6391 C   0  0  0  0  0  0  0  0  0  0  0  0
    3.8192    1.2401   -3.4931 N   0  0  0  0  0  0  0  0  0  0  0  0
    5.5311    2.5549   -2.7105 O   0  0  0  0  0  0  0  0  0  0  0  0
    6.6103    0.5571   -1.0382 N   0  0  0  0  0  0  0  0  0  0  0  0
    6.8427   -0.4976   -0.2508 C   0  0  0  0  0  0  0  0  0  0  0  0
    7.9000   -0.8735    0.5658 C   0  0  0  0  0  0  0  0  0  0  0  0
    7.8483   -2.0459    1.2690 C   0  0  0  0  0  0  0  0  0  0  0  0
    6.7545   -2.8815    1.1883 C   0  0  0  0  0  0  0  0  0  0  0  0
    5.7189   -2.4851    0.3712 C   0  0  0  0  0  0  0  0  0  0  0  0
    5.7457   -1.3119   -0.3463 C   0  0  0  0  0  0  0  0  0  0  0  0
   -0.9906    0.4410    0.1430 C   0  0  0  0  0  0  0  0  0  0  0  0
   -2.2740    0.5364    0.6328 C   0  0  0  0  0  0  0  0  0  0  0  0
   -3.3862   -0.2135    0.0085 C   0  0  0  0  0  0  0  0  0  0  0  0
   -3.3543   -1.5850   -0.1346 C   0  0  0  0  0  0  0  0  0  0  0  0
   -4.3948   -2.2371   -0.7101 N   0  0  0  0  0  0  0  0  0  0  0  0
   -5.4804   -1.5786   -1.1560 C   0  0  0  0  0  0  0  0  0  0  0  0
   -6.6202   -1.9743   -1.7492 N   0  0  0  0  0  0  0  0  0  0  0  0
   -7.3701   -0.8974   -1.9849 N   0  0  0  0  0  0  0  0  0  0  0  0
   -6.7341    0.2009   -1.5525 C   0  0  0  0  0  0  0  0  0  0  0  0
   -7.2269    1.5968   -1.6263 C   0  0  0  0  0  0  0  0  0  0  0  0
   -5.5277   -0.1955   -1.0190 C   0  0  0  0  0  0  0  0  0  0  0  0
   -4.4815    0.4238   -0.4446 N   0  0  0  0  0  0  0  0  0  0  0  0
   -4.7572   -1.2975    4.1300 H   0  0  0  0  0  0  0  0  0  0  0  0
   -3.6784   -1.4681    2.7215 H   0  0  0  0  0  0  0  0  0  0  0  0
   -3.0630   -0.5792    4.1220 H   0  0  0  0  0  0  0  0  0  0  0  0
   -6.8465    2.7058    2.7505 H   0  0  0  0  0  0  0  0  0  0  0  0
   -4.6019    3.3567    1.4701 H   0  0  0  0  0  0  0  0  0  0  0  0
    1.6110    3.1274    1.8891 H   0  0  0  0  0  0  0  0  0  0  0  0
    0.8363    2.7975    3.4830 H   0  0  0  0  0  0  0  0  0  0  0  0
    1.8549    0.8419   -1.6271 H   0  0  0  0  0  0  0  0  0  0  0  0
    3.1538    1.1012   -0.4603 H   0  0  0  0  0  0  0  0  0  0  0  0
    2.7991   -1.1854    0.4840 H   0  0  0  0  0  0  0  0  0  0  0  0
    1.4990   -2.5012   -1.4821 H   0  0  0  0  0  0  0  0  0  0  0  0
    0.8586   -2.0633    0.0686 H   0  0  0  0  0  0  0  0  0  0  0  0
    3.2613   -1.0856   -2.5514 H   0  0  0  0  0  0  0  0  0  0  0  0
    3.6355   -2.4188   -1.4651 H   0  0  0  0  0  0  0  0  0  0  0  0
    3.8159    0.4677   -4.2207 H   0  0  0  0  0  0  0  0  0  0  0  0
    2.9821    1.8632   -3.4179 H   0  0  0  0  0  0  0  0  0  0  0  0
    7.2895    1.3379   -1.1521 H   0  0  0  0  0  0  0  0  0  0  0  0
    8.7543   -0.2307    0.6348 H   0  0  0  0  0  0  0  0  0  0  0  0
    8.6895   -2.3442    1.9196 H   0  0  0  0  0  0  0  0  0  0  0  0
    6.7698   -3.7938    1.7656 H   0  0  0  0  0  0  0  0  0  0  0  0
    4.8513   -3.1114    0.2853 H   0  0  0  0  0  0  0  0  0  0  0  0
   -0.8459   -0.1889   -0.7242 H   0  0  0  0  0  0  0  0  0  0  0  0
   -2.4707   -2.1027    0.2313 H   0  0  0  0  0  0  0  0  0  0  0  0
   -6.9143   -2.9508   -2.0031 H   0  0  0  0  0  0  0  0  0  0  0  0
   -7.1141    2.0041   -2.6595 H   0  0  0  0  0  0  0  0  0  0  0  0
   -6.6482    2.2779   -0.9635 H   0  0  0  0  0  0  0  0  0  0  0  0
   -8.2822    1.6766   -1.2823 H   0  0  0  0  0  0  0  0  0  0  0  0
  1  2  1  0
  2  3  1  0
  3  4  1  0
  4  5  2  0
  5  6  1  0
  6  7  1  0
  7  8  2  0
  8  9  1  0
  9 10  1  0
  9 11  2  0
 11 12  1  0
 12 13  1  0
 13 14  1  0
 14 15  1  0
 14 16  1  0
 16 17  1  0
 17 18  2  0
 18 19  1  0
 19 20  1  0
 19 21  2  0
 18 22  1  0
 22 23  1  0
 23 24  2  0
 24 25  1  0
 25 26  2  0
 26 27  1  0
 27 28  2  0
 11 29  1  0
 29 30  2  0
 30 31  1  0
 31 32  2  0
 32 33  1  0
 33 34  2  0
 34 35  1  0
 35 36  1  0
 36 37  2  0
 37 38  1  0
 37 39  1  0
 39 40  2  0
  6  2  2  0
 30  7  1  0
 40 31  1  0
 28 17  1  0
 39 34  1  0
 28 23  1  0
  1 41  1  0
  1 42  1  0
  1 43  1  0
  4 44  1  0
  5 45  1  0
 10 46  1  0
 10 47  1  0
 13 48  1  0
 13 49  1  0
 14 50  1  1
 15 51  1  0
 15 52  1  0
 16 53  1  0
 16 54  1  0
 20 55  1  0
 20 56  1  0
 22 57  1  0
 24 58  1  0
 25 59  1  0
 26 60  1  0
 27 61  1  0
 29 62  1  0
 32 63  1  0
 35 64  1  0
 38 65  1  0
 38 66  1  0
 38 67  1  0
M  END
$$$$
