@<TRIPOS>MOLECULE
*****
 47 49 0 0 0
SMALL
GASTEIGER

@<TRIPOS>ATOM
      1 C           1.4978    1.7705   -0.6303 C.3     1  UNL1       -0.0538
      2 C           0.9418    0.5006   -0.0254 C.3     1  UNL1        0.0367
      3 C           1.6826   -0.7225   -0.5161 C.3     1  UNL1       -0.0168
      4 C           3.1210   -0.6795   -0.1777 C.ar    1  UNL1       -0.0466
      5 C           3.6479   -1.1890    0.9906 C.ar    1  UNL1       -0.0580
      6 C           5.0109   -1.1074    1.2311 C.ar    1  UNL1       -0.0499
      7 C           5.8627   -0.5184    0.3126 C.ar    1  UNL1        0.0548
      8 C           7.3211   -0.4492    0.6060 C.3     1  UNL1        0.4174
      9 F           7.6081   -1.3080    1.6570 F       1  UNL1       -0.1659
     10 F           7.6824    0.8407    0.8647 F       1  UNL1       -0.1659
     11 F           7.9865   -0.9009   -0.5148 F       1  UNL1       -0.1659
     12 C           5.3466   -0.0068   -0.8567 C.ar    1  UNL1       -0.0499
     13 C           3.9884   -0.0981   -1.0768 C.ar    1  UNL1       -0.0580
     14 C          -0.4869    0.3309   -0.4615 C.2     1  UNL1        0.2162
     15 O          -0.9668    1.1549   -1.2095 O.2     1  UNL1       -0.2755
     16 N          -1.1939   -0.7786    0.0235 N.am    1  UNL1       -0.3125
     17 C          -2.5406   -1.1798   -0.2065 C.3     1  UNL1        0.0418
     18 C          -3.6441   -0.3099    0.2792 C.3     1  UNL1        0.1305
     19 C          -3.6924    1.0296   -0.3461 C.3     1  UNL1       -0.0096
     20 C          -3.9715    1.0979   -1.8104 C.3     1  UNL1       -0.0474
     21 C          -4.9883    1.5695   -0.8682 C.3     1  UNL1       -0.0474
     22 N          -4.9395   -1.0116    0.1506 N.am    1  UNL1       -0.2834
     23 C          -5.7491   -0.5246    1.2077 C.2     1  UNL1        0.3068
     24 O          -7.0139   -0.5565    1.2500 O.2     1  UNL1       -0.2524
     25 N          -4.9081    0.0150    2.2321 N.am    1  UNL1       -0.2383
     26 C          -3.5715   -0.1529    1.7788 C.2     1  UNL1        0.2457
     27 O          -2.5487   -0.1647    2.5020 O.2     1  UNL1       -0.2729
     28 H           2.4081    2.1083   -0.1042 H       1  UNL1        0.0237
     29 H           0.7326    2.5813   -0.4494 H       1  UNL1        0.0237
     30 H           1.6743    1.6796   -1.7068 H       1  UNL1        0.0237
     31 H           1.0143    0.5581    1.0762 H       1  UNL1        0.0395
     32 H           1.2037   -1.6117   -0.0859 H       1  UNL1        0.0320
     33 H           1.5888   -0.7232   -1.6233 H       1  UNL1        0.0320
     34 H           2.9657   -1.6538    1.7125 H       1  UNL1        0.0620
     35 H           5.4287   -1.5001    2.1351 H       1  UNL1        0.0623
     36 H           6.0276    0.4539   -1.5710 H       1  UNL1        0.0623
     37 H           3.6260    0.3168   -2.0086 H       1  UNL1        0.0620
     38 H          -0.6581   -1.4657    0.6918 H       1  UNL1        0.1488
     39 H          -2.6336   -1.3067   -1.3483 H       1  UNL1        0.0488
     40 H          -2.7066   -2.2379    0.1423 H       1  UNL1        0.0488
     41 H          -3.1022    1.8026    0.1927 H       1  UNL1        0.0327
     42 H          -4.1712    0.1561   -2.3510 H       1  UNL1        0.0269
     43 H          -3.3388    1.8084   -2.3815 H       1  UNL1        0.0269
     44 H          -5.9333    1.0011   -0.7354 H       1  UNL1        0.0269
     45 H          -5.1503    2.6624   -0.8250 H       1  UNL1        0.0269
     46 H          -5.2059   -1.7177   -0.5662 H       1  UNL1        0.1513
     47 H          -5.2523    0.4372    3.1181 H       1  UNL1        0.1591
@<TRIPOS>BOND
     1     1     2    1
     2     2     3    1
     3     3     4    1
     4     4     5   ar
     5     5     6   ar
     6     6     7   ar
     7     7     8    1
     8     8     9    1
     9     8    10    1
    10     8    11    1
    11     7    12   ar
    12    12    13   ar
    13     2    14    1
    14    14    15    2
    15    14    16   am
    16    16    17    1
    17    18    17    1
    18    18    19    1
    19    19    20    1
    20    20    21    1
    21    18    22    1
    22    22    23   am
    23    23    24    2
    24    23    25   am
    25    25    26   am
    26    26    27    2
    27    13     4   ar
    28    26    18    1
    29    21    19    1
    30     1    28    1
    31     1    29    1
    32     1    30    1
    33     2    31    1
    34     3    32    1
    35     3    33    1
    36     5    34    1
    37     6    35    1
    38    12    36    1
    39    13    37    1
    40    16    38    1
    41    17    39    1
    42    17    40    1
    43    19    41    1
    44    20    42    1
    45    20    43    1
    46    21    44    1
    47    21    45    1
    48    22    46    1
    49    25    47    1
