
     RDKit          3D

 47 49  0  0  0  0  0  0  0  0999 V2000
    1.4978    1.7705   -0.6303 C   0  0  0  0  0  0  0  0  0  0  0  0
    0.9418    0.5006   -0.0254 C   0  0  2  0  0  0  0  0  0  0  0  0
    1.6826   -0.7225   -0.5161 C   0  0  0  0  0  0  0  0  0  0  0  0
    3.1210   -0.6795   -0.1777 C   0  0  0  0  0  0  0  0  0  0  0  0
    3.6479   -1.1890    0.9906 C   0  0  0  0  0  0  0  0  0  0  0  0
    5.0109   -1.1074    1.2311 C   0  0  0  0  0  0  0  0  0  0  0  0
    5.8627   -0.5184    0.3126 C   0  0  0  0  0  0  0  0  0  0  0  0
    7.3211   -0.4492    0.6060 C   0  0  0  0  0  0  0  0  0  0  0  0
    7.6081   -1.3080    1.6570 F   0  0  0  0  0  0  0  0  0  0  0  0
    7.6824    0.8407    0.8647 F   0  0  0  0  0  0  0  0  0  0  0  0
    7.9865   -0.9009   -0.5148 F   0  0  0  0  0  0  0  0  0  0  0  0
    5.3466   -0.0068   -0.8567 C   0  0  0  0  0  0  0  0  0  0  0  0
    3.9884   -0.0981   -1.0768 C   0  0  0  0  0  0  0  0  0  0  0  0
   -0.4869    0.3309   -0.4615 C   0  0  0  0  0  0  0  0  0  0  0  0
   -0.9668    1.1549   -1.2095 O   0  0  0  0  0  0  0  0  0  0  0  0
   -1.1939   -0.7786    0.0235 N   0  0  0  0  0  0  0  0  0  0  0  0
   -2.5406   -1.1798   -0.2065 C   0  0  0  0  0  0  0  0  0  0  0  0
   -3.6441   -0.3099    0.2792 C   0  0  1  0  0  0  0  0  0  0  0  0
   -3.6924    1.0296   -0.3461 C   0  0  0  0  0  0  0  0  0  0  0  0
   -3.9715    1.0979   -1.8104 C   0  0  0  0  0  0  0  0  0  0  0  0
   -4.9883    1.5695   -0.8682 C   0  0  0  0  0  0  0  0  0  0  0  0
   -4.9395   -1.0116    0.1506 N   0  0  0  0  0  0  0  0  0  0  0  0
   -5.7491   -0.5246    1.2077 C   0  0  0  0  0  0  0  0  0  0  0  0
   -7.0139   -0.5565    1.2500 O   0  0  0  0  0  0  0  0  0  0  0  0
   -4.9081    0.0150    2.2321 N   0  0  0  0  0  0  0  0  0  0  0  0
   -3.5715   -0.1529    1.7788 C   0  0  0  0  0  0  0  0  0  0  0  0
   -2.5487   -0.1647    2.5020 O   0  0  0  0  0  0  0  0  0  0  0  0
    2.4081    2.1083   -0.1042 H   0  0  0  0  0  0  0  0  0  0  0  0
    0.7326    2.5813   -0.4494 H   0  0  0  0  0  0  0  0  0  0  0  0
    1.6743    1.6796   -1.7068 H   0  0  0  0  0  0  0  0  0  0  0  0
    1.0143    0.5581    1.0762 H   0  0  0  0  0  0  0  0  0  0  0  0
    1.2037   -1.6117   -0.0859 H   0  0  0  0  0  0  0  0  0  0  0  0
    1.5888   -0.7232   -1.6233 H   0  0  0  0  0  0  0  0  0  0  0  0
    2.9657   -1.6538    1.7125 H   0  0  0  0  0  0  0  0  0  0  0  0
    5.4287   -1.5001    2.1351 H   0  0  0  0  0  0  0  0  0  0  0  0
    6.0276    0.4539   -1.5710 H   0  0  0  0  0  0  0  0  0  0  0  0
    3.6260    0.3168   -2.0086 H   0  0  0  0  0  0  0  0  0  0  0  0
   -0.6581   -1.4657    0.6918 H   0  0  0  0  0  0  0  0  0  0  0  0
   -2.6336   -1.3067   -1.3483 H   0  0  0  0  0  0  0  0  0  0  0  0
   -2.7066   -2.2379    0.1423 H   0  0  0  0  0  0  0  0  0  0  0  0
   -3.1022    1.8026    0.1927 H   0  0  0  0  0  0  0  0  0  0  0  0
   -4.1712    0.1561   -2.3510 H   0  0  0  0  0  0  0  0  0  0  0  0
   -3.3388    1.8084   -2.3815 H   0  0  0  0  0  0  0  0  0  0  0  0
   -5.9333    1.0011   -0.7354 H   0  0  0  0  0  0  0  0  0  0  0  0
   -5.1503    2.6624   -0.8250 H   0  0  0  0  0  0  0  0  0  0  0  0
   -5.2059   -1.7177   -0.5662 H   0  0  0  0  0  0  0  0  0  0  0  0
   -5.2523    0.4372    3.1181 H   0  0  0  0  0  0  0  0  0  0  0  0
  1  2  1  0
  2  3  1  0
  3  4  1  0
  4  5  2  0
  5  6  1  0
  6  7  2  0
  7  8  1  0
  8  9  1  0
  8 10  1  0
  8 11  1  0
  7 12  1  0
 12 13  2  0
  2 14  1  0
 14 15  2  0
 14 16  1  0
 16 17  1  0
 18 17  1  6
 18 19  1  0
 19 20  1  0
 20 21  1  0
 18 22  1  0
 22 23  1  0
 23 24  2  0
 23 25  1  0
 25 26  1  0
 26 27  2  0
 13  4  1  0
 26 18  1  0
 21 19  1  0
  1 28  1  0
  1 29  1  0
  1 30  1  0
  2 31  1  1
  3 32  1  0
  3 33  1  0
  5 34  1  0
  6 35  1  0
 12 36  1  0
 13 37  1  0
 16 38  1  0
 17 39  1  0
 17 40  1  0
 19 41  1  0
 20 42  1  0
 20 43  1  0
 21 44  1  0
 21 45  1  0
 22 46  1  0
 25 47  1  0
M  END
$$$$
