
     RDKit          3D

 44 45  0  0  0  0  0  0  0  0999 V2000
   -3.6125   -2.5653   -0.2048 C   0  0  0  0  0  0  0  0  0  0  0  0
   -2.7708   -1.4384   -0.8220 C   0  0  0  0  0  0  0  0  0  0  0  0
   -1.4788   -1.4154   -0.1018 C   0  0  0  0  0  0  0  0  0  0  0  0
   -0.8896   -0.0537   -0.0832 C   0  0  0  0  0  0  0  0  0  0  0  0
   -1.9087    0.7929    0.6969 C   0  0  0  0  0  0  0  0  0  0  0  0
   -2.9879    1.0421   -0.3314 C   0  0  0  0  0  0  0  0  0  0  0  0
   -4.0212    1.9555    0.3266 C   0  0  0  0  0  0  0  0  0  0  0  0
   -2.3745    1.8272   -1.4684 C   0  0  0  0  0  0  0  0  0  0  0  0
   -3.6064   -0.2176   -0.8127 C   0  0  0  0  0  0  0  0  0  0  0  0
    0.3235    0.0645    0.5929 O   0  0  0  0  0  0  0  0  0  0  0  0
    1.4837    0.5910    0.0026 C   0  0  0  0  0  0  0  0  0  0  0  0
    1.3859    0.9683   -1.2089 O   0  0  0  0  0  0  0  0  0  0  0  0
    2.7160    0.6542    0.8592 C   0  0  0  0  0  0  0  0  0  0  0  0
    2.4989    0.1676    2.1300 O   0  0  0  0  0  0  0  0  0  0  0  0
    3.9161    0.1266    0.2026 C   0  0  0  0  0  0  0  0  0  0  0  0
    4.2971   -1.2094    0.1904 C   0  0  0  0  0  0  0  0  0  0  0  0
    5.4590   -1.6297   -0.4605 C   0  0  0  0  0  0  0  0  0  0  0  0
    6.2671   -0.7370   -1.1123 C   0  0  0  0  0  0  0  0  0  0  0  0
    5.9551    0.6071   -1.1444 C   0  0  0  0  0  0  0  0  0  0  0  0
    4.7974    0.9671   -0.4859 C   0  0  0  0  0  0  0  0  0  0  0  0
   -4.6319   -2.4539   -0.6426 H   0  0  0  0  0  0  0  0  0  0  0  0
   -3.7150   -2.2805    0.8801 H   0  0  0  0  0  0  0  0  0  0  0  0
   -3.1617   -3.5464   -0.3423 H   0  0  0  0  0  0  0  0  0  0  0  0
   -2.5799   -1.8023   -1.8737 H   0  0  0  0  0  0  0  0  0  0  0  0
   -0.7972   -2.1672   -0.5424 H   0  0  0  0  0  0  0  0  0  0  0  0
   -1.6824   -1.6981    0.9693 H   0  0  0  0  0  0  0  0  0  0  0  0
   -0.8049    0.3193   -1.1271 H   0  0  0  0  0  0  0  0  0  0  0  0
   -1.3813    1.6988    0.9770 H   0  0  0  0  0  0  0  0  0  0  0  0
   -2.3027    0.1792    1.5246 H   0  0  0  0  0  0  0  0  0  0  0  0
   -4.6904    2.4041   -0.4375 H   0  0  0  0  0  0  0  0  0  0  0  0
   -4.5762    1.3621    1.0816 H   0  0  0  0  0  0  0  0  0  0  0  0
   -3.5273    2.7808    0.8695 H   0  0  0  0  0  0  0  0  0  0  0  0
   -3.0181    2.6947   -1.7628 H   0  0  0  0  0  0  0  0  0  0  0  0
   -2.2334    1.1398   -2.3308 H   0  0  0  0  0  0  0  0  0  0  0  0
   -1.4005    2.2773   -1.1928 H   0  0  0  0  0  0  0  0  0  0  0  0
   -3.9518   -0.0132   -1.8541 H   0  0  0  0  0  0  0  0  0  0  0  0
   -4.5646   -0.3408   -0.2398 H   0  0  0  0  0  0  0  0  0  0  0  0
    2.8800    1.7638    0.9953 H   0  0  0  0  0  0  0  0  0  0  0  0
    3.1009   -0.5997    2.3737 H   0  0  0  0  0  0  0  0  0  0  0  0
    3.6497   -1.9188    0.7117 H   0  0  0  0  0  0  0  0  0  0  0  0
    5.7387   -2.6793   -0.4579 H   0  0  0  0  0  0  0  0  0  0  0  0
    7.1708   -1.0398   -1.6226 H   0  0  0  0  0  0  0  0  0  0  0  0
    6.5225    1.3954   -1.6292 H   0  0  0  0  0  0  0  0  0  0  0  0
    4.5071    2.0275   -0.4838 H   0  0  0  0  0  0  0  0  0  0  0  0
  1  2  1  0
  2  3  1  0
  3  4  1  0
  4  5  1  0
  5  6  1  0
  6  7  1  0
  6  8  1  0
  6  9  1  0
  4 10  1  0
 10 11  1  0
 11 12  2  0
 11 13  1  0
 13 14  1  0
 13 15  1  0
 15 16  2  0
 16 17  1  0
 17 18  2  0
 18 19  1  0
 19 20  2  0
  9  2  1  0
 20 15  1  0
  1 21  1  0
  1 22  1  0
  1 23  1  0
  2 24  1  0
  3 25  1  0
  3 26  1  0
  4 27  1  0
  5 28  1  0
  5 29  1  0
  7 30  1  0
  7 31  1  0
  7 32  1  0
  8 33  1  0
  8 34  1  0
  8 35  1  0
  9 36  1  0
  9 37  1  0
 13 38  1  0
 14 39  1  0
 16 40  1  0
 17 41  1  0
 18 42  1  0
 19 43  1  0
 20 44  1  0
M  END
$$$$
