@<TRIPOS>MOLECULE
*****
 44 45 0 0 0
SMALL
GASTEIGER

@<TRIPOS>ATOM
      1 C          -3.6125   -2.5653   -0.2048 C.3     1  UNL1       -0.0623
      2 C          -2.7708   -1.4384   -0.8220 C.3     1  UNL1       -0.0401
      3 C          -1.4788   -1.4154   -0.1018 C.3     1  UNL1       -0.0130
      4 C          -0.8896   -0.0537   -0.0832 C.3     1  UNL1        0.1039
      5 C          -1.9087    0.7929    0.6969 C.3     1  UNL1       -0.0105
      6 C          -2.9879    1.0421   -0.3314 C.3     1  UNL1       -0.0313
      7 C          -4.0212    1.9555    0.3266 C.3     1  UNL1       -0.0597
      8 C          -2.3745    1.8272   -1.4684 C.3     1  UNL1       -0.0597
      9 C          -3.6064   -0.2176   -0.8127 C.3     1  UNL1       -0.0450
     10 O           0.3235    0.0645    0.5929 O.3     1  UNL1       -0.4593
     11 C           1.4837    0.5910    0.0026 C.2     1  UNL1        0.3409
     12 O           1.3859    0.9683   -1.2089 O.2     1  UNL1       -0.2475
     13 C           2.7160    0.6542    0.8592 C.3     1  UNL1        0.1767
     14 O           2.4989    0.1676    2.1300 O.3     1  UNL1       -0.3762
     15 C           3.9161    0.1266    0.2026 C.ar    1  UNL1       -0.0084
     16 C           4.2971   -1.2094    0.1904 C.ar    1  UNL1       -0.0556
     17 C           5.4590   -1.6297   -0.4605 C.ar    1  UNL1       -0.0614
     18 C           6.2671   -0.7370   -1.1123 C.ar    1  UNL1       -0.0617
     19 C           5.9551    0.6071   -1.1444 C.ar    1  UNL1       -0.0614
     20 C           4.7974    0.9671   -0.4859 C.ar    1  UNL1       -0.0556
     21 H          -4.6319   -2.4539   -0.6426 H       1  UNL1        0.0232
     22 H          -3.7150   -2.2805    0.8801 H       1  UNL1        0.0232
     23 H          -3.1617   -3.5464   -0.3423 H       1  UNL1        0.0232
     24 H          -2.5799   -1.8023   -1.8737 H       1  UNL1        0.0299
     25 H          -0.7972   -2.1672   -0.5424 H       1  UNL1        0.0303
     26 H          -1.6824   -1.6981    0.9693 H       1  UNL1        0.0303
     27 H          -0.8049    0.3193   -1.1271 H       1  UNL1        0.0734
     28 H          -1.3813    1.6988    0.9770 H       1  UNL1        0.0306
     29 H          -2.3027    0.1792    1.5246 H       1  UNL1        0.0306
     30 H          -4.6904    2.4041   -0.4375 H       1  UNL1        0.0235
     31 H          -4.5762    1.3621    1.0816 H       1  UNL1        0.0235
     32 H          -3.5273    2.7808    0.8695 H       1  UNL1        0.0235
     33 H          -3.0181    2.6947   -1.7628 H       1  UNL1        0.0235
     34 H          -2.2334    1.1398   -2.3308 H       1  UNL1        0.0235
     35 H          -1.4005    2.2773   -1.1928 H       1  UNL1        0.0235
     36 H          -3.9518   -0.0132   -1.8541 H       1  UNL1        0.0273
     37 H          -4.5646   -0.3408   -0.2398 H       1  UNL1        0.0273
     38 H           2.8800    1.7638    0.9953 H       1  UNL1        0.0762
     39 H           3.1009   -0.5997    2.3737 H       1  UNL1        0.2110
     40 H           3.6497   -1.9188    0.7117 H       1  UNL1        0.0621
     41 H           5.7387   -2.6793   -0.4579 H       1  UNL1        0.0618
     42 H           7.1708   -1.0398   -1.6226 H       1  UNL1        0.0618
     43 H           6.5225    1.3954   -1.6292 H       1  UNL1        0.0618
     44 H           4.5071    2.0275   -0.4838 H       1  UNL1        0.0621
@<TRIPOS>BOND
     1     1     2    1
     2     2     3    1
     3     3     4    1
     4     4     5    1
     5     5     6    1
     6     6     7    1
     7     6     8    1
     8     6     9    1
     9     4    10    1
    10    10    11    1
    11    11    12    2
    12    11    13    1
    13    13    14    1
    14    13    15    1
    15    15    16   ar
    16    16    17   ar
    17    17    18   ar
    18    18    19   ar
    19    19    20   ar
    20     9     2    1
    21    20    15   ar
    22     1    21    1
    23     1    22    1
    24     1    23    1
    25     2    24    1
    26     3    25    1
    27     3    26    1
    28     4    27    1
    29     5    28    1
    30     5    29    1
    31     7    30    1
    32     7    31    1
    33     7    32    1
    34     8    33    1
    35     8    34    1
    36     8    35    1
    37     9    36    1
    38     9    37    1
    39    13    38    1
    40    14    39    1
    41    16    40    1
    42    17    41    1
    43    18    42    1
    44    19    43    1
    45    20    44    1
