@<TRIPOS>MOLECULE
*****
 46 48 0 0 0
SMALL
GASTEIGER

@<TRIPOS>ATOM
      1 C          -3.3760    2.2735    0.1135 C.3     1  UNL1       -0.0493
      2 C          -2.1925    2.4807    0.9979 C.3     1  UNL1        0.0121
      3 N          -0.9623    2.1095    0.3289 N.am    1  UNL1       -0.2980
      4 C          -0.4570    3.3037   -0.3757 C.3     1  UNL1        0.0121
      5 C           0.4455    4.1367    0.4678 C.3     1  UNL1       -0.0493
      6 C          -0.2097    0.9323    0.2097 C.2     1  UNL1        0.2492
      7 O           0.8066    1.2369   -0.4846 O.2     1  UNL1       -0.2699
      8 C          -0.1434   -0.4654    0.5660 C.ar    1  UNL1        0.0688
      9 C           1.0727   -1.0358    0.2724 C.ar    1  UNL1        0.0847
     10 N           2.3422   -0.8322   -0.2435 N.am    1  UNL1       -0.2749
     11 C           2.6698   -0.9996   -1.6171 C.2     1  UNL1        0.2552
     12 O           1.7437   -1.3508   -2.3844 O.2     1  UNL1       -0.2693
     13 C           4.0381   -0.7377   -1.9340 C.ar    1  UNL1        0.0742
     14 C           4.6057   -0.8410   -3.2618 C.ar    1  UNL1       -0.0425
     15 C           5.9267   -0.5635   -3.4286 C.ar    1  UNL1       -0.0540
     16 C           6.7200   -0.1688   -2.2413 C.ar    1  UNL1       -0.0236
     17 S           5.3840   -0.2408   -0.8947 S.2     1  UNL1       -0.0921
     18 S           0.8916   -2.7960    0.8071 S.2     1  UNL1       -0.0774
     19 C          -0.8436   -2.5848    1.3859 C.ar    1  UNL1       -0.0045
     20 C          -1.0971   -1.2643    1.1262 C.ar    1  UNL1       -0.0232
     21 C          -2.4980   -1.1849    1.5816 C.3     1  UNL1       -0.0261
     22 C          -3.3146   -2.1733    0.7515 C.3     1  UNL1       -0.0487
     23 C          -3.0770   -3.5226    1.3850 C.3     1  UNL1       -0.0483
     24 C          -1.6951   -3.6140    1.9854 C.3     1  UNL1       -0.0211
     25 H          -3.0787    1.6026   -0.7326 H       1  UNL1        0.0245
     26 H          -4.1989    1.6965    0.6276 H       1  UNL1        0.0245
     27 H          -3.8255    3.2126   -0.2367 H       1  UNL1        0.0245
     28 H          -2.3517    1.8920    1.9474 H       1  UNL1        0.0462
     29 H          -2.1813    3.5672    1.2636 H       1  UNL1        0.0462
     30 H           0.1012    2.9456   -1.2945 H       1  UNL1        0.0462
     31 H          -1.2757    3.9077   -0.7666 H       1  UNL1        0.0462
     32 H           1.1688    4.6858   -0.1602 H       1  UNL1        0.0245
     33 H           0.9209    3.5153    1.2336 H       1  UNL1        0.0245
     34 H          -0.1516    4.9275    0.9986 H       1  UNL1        0.0245
     35 H           3.0439   -0.5375    0.4998 H       1  UNL1        0.1557
     36 H           3.9867   -1.1318   -4.0907 H       1  UNL1        0.0630
     37 H           6.4454   -0.6096   -4.3694 H       1  UNL1        0.0623
     38 H           7.7736    0.0664   -2.2961 H       1  UNL1        0.0693
     39 H          -2.9879   -0.2204    1.4279 H       1  UNL1        0.0314
     40 H          -2.6315   -1.4363    2.6578 H       1  UNL1        0.0314
     41 H          -4.3828   -1.9177    0.9032 H       1  UNL1        0.0268
     42 H          -3.0607   -2.1061   -0.3052 H       1  UNL1        0.0268
     43 H          -3.1531   -4.2866    0.5851 H       1  UNL1        0.0269
     44 H          -3.8732   -3.7328    2.1219 H       1  UNL1        0.0269
     45 H          -1.8238   -3.5320    3.0839 H       1  UNL1        0.0318
     46 H          -1.2445   -4.6061    1.7884 H       1  UNL1        0.0318
@<TRIPOS>BOND
     1     1     2    1
     2     2     3    1
     3     3     4    1
     4     4     5    1
     5     3     6   am
     6     6     7    2
     7     6     8    1
     8     8     9   ar
     9     9    10    1
    10    10    11   am
    11    11    12    2
    12    11    13    1
    13    13    14   ar
    14    14    15   ar
    15    15    16   ar
    16    16    17   ar
    17     9    18   ar
    18    18    19   ar
    19    19    20   ar
    20    20    21    1
    21    21    22    1
    22    22    23    1
    23    23    24    1
    24    20     8   ar
    25    17    13   ar
    26    24    19    1
    27     1    25    1
    28     1    26    1
    29     1    27    1
    30     2    28    1
    31     2    29    1
    32     4    30    1
    33     4    31    1
    34     5    32    1
    35     5    33    1
    36     5    34    1
    37    10    35    1
    38    14    36    1
    39    15    37    1
    40    16    38    1
    41    21    39    1
    42    21    40    1
    43    22    41    1
    44    22    42    1
    45    23    43    1
    46    23    44    1
    47    24    45    1
    48    24    46    1
