@<TRIPOS>MOLECULE
*****
 40 40 0 0 0
SMALL
GASTEIGER

@<TRIPOS>ATOM
      1 C          -0.4388   -3.6544    0.2516 C.3     1  UNL1        0.0788
      2 O          -0.6341   -2.3207   -0.1781 O.3     1  UNL1       -0.4946
      3 C           0.4369   -1.4587   -0.2817 C.ar    1  UNL1        0.1292
      4 C           1.7381   -1.7967    0.0094 C.ar    1  UNL1        0.0225
      5 C           2.7860   -0.8776   -0.1144 C.ar    1  UNL1        0.1275
      6 O           4.0900   -1.3003    0.1791 O.3     1  UNL1       -0.5061
      7 C           2.5600    0.4071   -0.5285 C.ar    1  UNL1        0.0172
      8 C           3.5501    1.4608   -0.5512 C.2     1  UNL1       -0.0444
      9 C           4.3186    1.7384    0.4630 C.2     1  UNL1        0.0230
     10 C           4.3597    1.1374    1.7610 C.2     1  UNL1        0.3296
     11 O           5.2861    1.5799    2.5419 O.2     1  UNL1       -0.2458
     12 O           3.5737    0.1764    2.3239 O.3     1  UNL1       -0.4775
     13 C           1.2323    0.7171   -0.8180 C.ar    1  UNL1       -0.0420
     14 C           0.1923   -0.1761   -0.7033 C.ar    1  UNL1        0.0233
     15 C          -1.1605    0.3163   -1.0485 C.3     1  UNL1        0.0838
     16 O          -1.8795   -0.7683   -1.5536 O.3     1  UNL1       -0.3871
     17 C          -1.8911    0.9283    0.0929 C.3     1  UNL1       -0.0202
     18 C          -3.2451    1.3899   -0.3767 C.3     1  UNL1       -0.0441
     19 C          -4.1063    0.2940   -0.9210 C.3     1  UNL1       -0.0626
     20 C          -4.0250    2.0610    0.7476 C.3     1  UNL1       -0.0626
     21 H          -1.4477   -4.0740    0.5367 H       1  UNL1        0.0660
     22 H           0.1679   -3.7136    1.1775 H       1  UNL1        0.0660
     23 H           0.0251   -4.2803   -0.5258 H       1  UNL1        0.0660
     24 H           1.9448   -2.8121    0.3450 H       1  UNL1        0.0691
     25 H           4.3597   -2.2566    0.2339 H       1  UNL1        0.2922
     26 H           3.6684    2.0740   -1.4840 H       1  UNL1        0.0627
     27 H           5.0384    2.5761    0.2489 H       1  UNL1        0.0689
     28 H           3.1931    0.2625    3.2678 H       1  UNL1        0.2954
     29 H           1.0570    1.7474   -1.1539 H       1  UNL1        0.0629
     30 H          -1.0342    1.0577   -1.8600 H       1  UNL1        0.0645
     31 H          -1.3577   -1.3040   -2.1905 H       1  UNL1        0.2102
     32 H          -2.0789    0.1550    0.8936 H       1  UNL1        0.0296
     33 H          -1.3898    1.7791    0.5590 H       1  UNL1        0.0296
     34 H          -3.1018    2.1672   -1.1820 H       1  UNL1        0.0296
     35 H          -3.9142   -0.6160   -0.3269 H       1  UNL1        0.0232
     36 H          -3.9826    0.1353   -2.0105 H       1  UNL1        0.0232
     37 H          -5.1656    0.5874   -0.7800 H       1  UNL1        0.0232
     38 H          -3.3727    2.5918    1.4554 H       1  UNL1        0.0232
     39 H          -4.7045    2.7906    0.2756 H       1  UNL1        0.0232
     40 H          -4.6478    1.2791    1.2249 H       1  UNL1        0.0232
@<TRIPOS>BOND
     1     1     2    1
     2     2     3    1
     3     3     4   ar
     4     4     5   ar
     5     5     6    1
     6     5     7   ar
     7     7     8    1
     8     8     9    2
     9     9    10    1
    10    10    11    2
    11    10    12    1
    12     7    13   ar
    13    13    14   ar
    14    14    15    1
    15    15    16    1
    16    15    17    1
    17    17    18    1
    18    18    19    1
    19    18    20    1
    20    14     3   ar
    21     1    21    1
    22     1    22    1
    23     1    23    1
    24     4    24    1
    25     6    25    1
    26     8    26    1
    27     9    27    1
    28    12    28    1
    29    13    29    1
    30    15    30    1
    31    16    31    1
    32    17    32    1
    33    17    33    1
    34    18    34    1
    35    19    35    1
    36    19    36    1
    37    19    37    1
    38    20    38    1
    39    20    39    1
    40    20    40    1
