
     RDKit          3D

 40 40  0  0  0  0  0  0  0  0999 V2000
   -0.4388   -3.6544    0.2516 C   0  0  0  0  0  0  0  0  0  0  0  0
   -0.6341   -2.3207   -0.1781 O   0  0  0  0  0  0  0  0  0  0  0  0
    0.4369   -1.4587   -0.2817 C   0  0  0  0  0  0  0  0  0  0  0  0
    1.7381   -1.7967    0.0094 C   0  0  0  0  0  0  0  0  0  0  0  0
    2.7860   -0.8776   -0.1144 C   0  0  0  0  0  0  0  0  0  0  0  0
    4.0900   -1.3003    0.1791 O   0  0  0  0  0  0  0  0  0  0  0  0
    2.5600    0.4071   -0.5285 C   0  0  0  0  0  0  0  0  0  0  0  0
    3.5501    1.4608   -0.5512 C   0  0  0  0  0  0  0  0  0  0  0  0
    4.3186    1.7384    0.4630 C   0  0  0  0  0  0  0  0  0  0  0  0
    4.3597    1.1374    1.7610 C   0  0  0  0  0  0  0  0  0  0  0  0
    5.2861    1.5799    2.5419 O   0  0  0  0  0  0  0  0  0  0  0  0
    3.5737    0.1764    2.3239 O   0  0  0  0  0  0  0  0  0  0  0  0
    1.2323    0.7171   -0.8180 C   0  0  0  0  0  0  0  0  0  0  0  0
    0.1923   -0.1761   -0.7033 C   0  0  0  0  0  0  0  0  0  0  0  0
   -1.1605    0.3163   -1.0485 C   0  0  1  0  0  0  0  0  0  0  0  0
   -1.8795   -0.7683   -1.5536 O   0  0  0  0  0  0  0  0  0  0  0  0
   -1.8911    0.9283    0.0929 C   0  0  0  0  0  0  0  0  0  0  0  0
   -3.2451    1.3899   -0.3767 C   0  0  0  0  0  0  0  0  0  0  0  0
   -4.1063    0.2940   -0.9210 C   0  0  0  0  0  0  0  0  0  0  0  0
   -4.0250    2.0610    0.7476 C   0  0  0  0  0  0  0  0  0  0  0  0
   -1.4477   -4.0740    0.5367 H   0  0  0  0  0  0  0  0  0  0  0  0
    0.1679   -3.7136    1.1775 H   0  0  0  0  0  0  0  0  0  0  0  0
    0.0251   -4.2803   -0.5258 H   0  0  0  0  0  0  0  0  0  0  0  0
    1.9448   -2.8121    0.3450 H   0  0  0  0  0  0  0  0  0  0  0  0
    4.3597   -2.2566    0.2339 H   0  0  0  0  0  0  0  0  0  0  0  0
    3.6684    2.0740   -1.4840 H   0  0  0  0  0  0  0  0  0  0  0  0
    5.0384    2.5761    0.2489 H   0  0  0  0  0  0  0  0  0  0  0  0
    3.1931    0.2625    3.2678 H   0  0  0  0  0  0  0  0  0  0  0  0
    1.0570    1.7474   -1.1539 H   0  0  0  0  0  0  0  0  0  0  0  0
   -1.0342    1.0577   -1.8600 H   0  0  0  0  0  0  0  0  0  0  0  0
   -1.3577   -1.3040   -2.1905 H   0  0  0  0  0  0  0  0  0  0  0  0
   -2.0789    0.1550    0.8936 H   0  0  0  0  0  0  0  0  0  0  0  0
   -1.3898    1.7791    0.5590 H   0  0  0  0  0  0  0  0  0  0  0  0
   -3.1018    2.1672   -1.1820 H   0  0  0  0  0  0  0  0  0  0  0  0
   -3.9142   -0.6160   -0.3269 H   0  0  0  0  0  0  0  0  0  0  0  0
   -3.9826    0.1353   -2.0105 H   0  0  0  0  0  0  0  0  0  0  0  0
   -5.1656    0.5874   -0.7800 H   0  0  0  0  0  0  0  0  0  0  0  0
   -3.3727    2.5918    1.4554 H   0  0  0  0  0  0  0  0  0  0  0  0
   -4.7045    2.7906    0.2756 H   0  0  0  0  0  0  0  0  0  0  0  0
   -4.6478    1.2791    1.2249 H   0  0  0  0  0  0  0  0  0  0  0  0
  1  2  1  0
  2  3  1  0
  3  4  2  0
  4  5  1  0
  5  6  1  0
  5  7  2  0
  7  8  1  0
  8  9  2  0
  9 10  1  0
 10 11  2  0
 10 12  1  0
  7 13  1  0
 13 14  2  0
 14 15  1  0
 15 16  1  0
 15 17  1  0
 17 18  1  0
 18 19  1  0
 18 20  1  0
 14  3  1  0
  1 21  1  0
  1 22  1  0
  1 23  1  0
  4 24  1  0
  6 25  1  0
  8 26  1  0
  9 27  1  0
 12 28  1  0
 13 29  1  0
 15 30  1  6
 16 31  1  0
 17 32  1  0
 17 33  1  0
 18 34  1  0
 19 35  1  0
 19 36  1  0
 19 37  1  0
 20 38  1  0
 20 39  1  0
 20 40  1  0
M  END
$$$$
