
     RDKit          3D

 49 52  0  0  0  0  0  0  0  0999 V2000
   -2.3751    0.2299   -2.1343 C   0  0  0  0  0  0  0  0  0  0  0  0
   -2.3650   -0.0855   -0.6296 C   0  0  1  0  0  0  0  0  0  0  0  0
   -1.0635   -0.7385   -0.3815 C   0  0  0  0  0  0  0  0  0  0  0  0
   -0.0417   -0.2469    0.3876 C   0  0  0  0  0  0  0  0  0  0  0  0
    1.1594   -0.8775    0.5344 C   0  0  0  0  0  0  0  0  0  0  0  0
    2.2582   -0.3965    1.2822 N   0  0  0  0  0  0  0  0  0  0  0  0
    3.2122    0.3780    0.5270 C   0  0  0  0  0  0  0  0  0  0  0  0
    2.7086    1.2681   -0.3565 N   0  0  0  0  0  0  0  0  0  0  0  0
    3.4787    2.0192   -1.1416 C   0  0  0  0  0  0  0  0  0  0  0  0
    4.8401    1.8981   -1.0641 C   0  0  0  0  0  0  0  0  0  0  0  0
    5.6830    2.6302   -1.8354 F   0  0  0  0  0  0  0  0  0  0  0  0
    5.3838    0.9908   -0.1649 C   0  0  0  0  0  0  0  0  0  0  0  0
    6.7401    0.8506   -0.0871 C   0  0  0  0  0  0  0  0  0  0  0  0
    7.2780   -0.0575    0.7942 C   0  0  0  0  0  0  0  0  0  0  0  0
    9.0167   -0.2054    0.8530 Cl  0  0  0  0  0  0  0  0  0  0  0  0
    6.4159   -0.7979    1.5735 C   0  0  0  0  0  0  0  0  0  0  0  0
    5.0787   -0.6685    1.5060 N   0  0  0  0  0  0  0  0  0  0  0  0
    4.5693    0.2198    0.6419 C   0  0  0  0  0  0  0  0  0  0  0  0
    1.3242   -2.0915   -0.1484 C   0  0  0  0  0  0  0  0  0  0  0  0
    0.3367   -2.6349   -0.9324 C   0  0  0  0  0  0  0  0  0  0  0  0
   -0.8542   -1.9425   -1.0386 C   0  0  0  0  0  0  0  0  0  0  0  0
   -1.8086   -2.5086   -1.8235 F   0  0  0  0  0  0  0  0  0  0  0  0
   -2.4787    1.2507    0.0675 C   0  0  0  0  0  0  0  0  0  0  0  0
   -4.1875    1.7202   -0.0751 S   0  0  0  0  0  6  0  0  0  0  0  0
   -4.4479    3.0413    0.5935 O   0  0  0  0  0  0  0  0  0  0  0  0
   -4.5450    1.7771   -1.5417 O   0  0  0  0  0  0  0  0  0  0  0  0
   -5.1223    0.4142    0.6625 C   0  0  1  0  0  0  0  0  0  0  0  0
   -5.0666    0.5965    2.1718 C   0  0  0  0  0  0  0  0  0  0  0  0
   -6.4399    0.4263    0.2179 F   0  0  0  0  0  0  0  0  0  0  0  0
   -4.5205   -0.8777    0.2771 C   0  0  0  0  0  0  0  0  0  0  0  0
   -5.3374   -2.0685    0.5299 N   0  0  0  0  0  0  0  0  0  0  0  0
   -3.3899   -0.9761   -0.2422 N   0  0  0  0  0  0  0  0  0  0  0  0
   -3.1661   -0.3514   -2.6496 H   0  0  0  0  0  0  0  0  0  0  0  0
   -2.4228    1.3154   -2.3378 H   0  0  0  0  0  0  0  0  0  0  0  0
   -1.4159   -0.1004   -2.6253 H   0  0  0  0  0  0  0  0  0  0  0  0
   -0.2028    0.6768    0.8956 H   0  0  0  0  0  0  0  0  0  0  0  0
    2.3358   -0.6041    2.2806 H   0  0  0  0  0  0  0  0  0  0  0  0
    3.0581    2.7215   -1.8367 H   0  0  0  0  0  0  0  0  0  0  0  0
    7.3643    1.4659   -0.7310 H   0  0  0  0  0  0  0  0  0  0  0  0
    6.8823   -1.5092    2.2588 H   0  0  0  0  0  0  0  0  0  0  0  0
    2.2539   -2.6342   -0.0687 H   0  0  0  0  0  0  0  0  0  0  0  0
    0.4841   -3.5674   -1.4462 H   0  0  0  0  0  0  0  0  0  0  0  0
   -2.2701    1.1865    1.1546 H   0  0  0  0  0  0  0  0  0  0  0  0
   -1.8625    2.0420   -0.4115 H   0  0  0  0  0  0  0  0  0  0  0  0
   -4.5398   -0.2638    2.6553 H   0  0  0  0  0  0  0  0  0  0  0  0
   -4.5763    1.5238    2.4777 H   0  0  0  0  0  0  0  0  0  0  0  0
   -6.1047    0.5557    2.5375 H   0  0  0  0  0  0  0  0  0  0  0  0
   -6.2010   -2.2374   -0.0108 H   0  0  0  0  0  0  0  0  0  0  0  0
   -5.0562   -2.7563    1.2576 H   0  0  0  0  0  0  0  0  0  0  0  0
  2  1  1  6
  2  3  1  0
  3  4  2  0
  4  5  1  0
  5  6  1  0
  6  7  1  0
  7  8  2  0
  8  9  1  0
  9 10  2  0
 10 11  1  0
 10 12  1  0
 12 13  2  0
 13 14  1  0
 14 15  1  0
 14 16  2  0
 16 17  1  0
 17 18  2  0
  5 19  2  0
 19 20  1  0
 20 21  2  0
 21 22  1  0
  2 23  1  0
 23 24  1  0
 24 25  2  0
 24 26  2  0
 24 27  1  0
 27 28  1  0
 27 29  1  6
 27 30  1  0
 30 31  1  0
 30 32  2  0
 32  2  1  0
 21  3  1  0
 18  7  1  0
 18 12  1  0
  1 33  1  0
  1 34  1  0
  1 35  1  0
  4 36  1  0
  6 37  1  0
  9 38  1  0
 13 39  1  0
 16 40  1  0
 19 41  1  0
 20 42  1  0
 23 43  1  0
 23 44  1  0
 28 45  1  0
 28 46  1  0
 28 47  1  0
 31 48  1  0
 31 49  1  0
M  END
$$$$
