@<TRIPOS>MOLECULE
*****
 49 52 0 0 0
SMALL
GASTEIGER

@<TRIPOS>ATOM
      1 C          -2.3751    0.2299   -2.1343 C.3     1  UNL1       -0.0112
      2 C          -2.3650   -0.0855   -0.6296 C.3     1  UNL1        0.1961
      3 C          -1.0635   -0.7385   -0.3815 C.ar    1  UNL1        0.0420
      4 C          -0.0417   -0.2469    0.3876 C.ar    1  UNL1       -0.0301
      5 C           1.1594   -0.8775    0.5344 C.ar    1  UNL1        0.0330
      6 N           2.2582   -0.3965    1.2822 N.pl3   1  UNL1       -0.2977
      7 C           3.2122    0.3780    0.5270 C.ar    1  UNL1        0.1492
      8 N           2.7086    1.2681   -0.3565 N.ar    1  UNL1       -0.2351
      9 C           3.4787    2.0192   -1.1416 C.ar    1  UNL1        0.0656
     10 C           4.8401    1.8981   -1.0641 C.ar    1  UNL1        0.1507
     11 F           5.6830    2.6302   -1.8354 F       1  UNL1       -0.2032
     12 C           5.3838    0.9908   -0.1649 C.ar    1  UNL1        0.0418
     13 C           6.7401    0.8506   -0.0871 C.ar    1  UNL1       -0.0298
     14 C           7.2780   -0.0575    0.7942 C.ar    1  UNL1        0.0597
     15 CL          9.0167   -0.2054    0.8530 Cl      1  UNL1       -0.0820
     16 C           6.4159   -0.7979    1.5735 C.ar    1  UNL1        0.0467
     17 N           5.0787   -0.6685    1.5060 N.ar    1  UNL1       -0.2500
     18 C           4.5693    0.2198    0.6419 C.ar    1  UNL1        0.1137
     19 C           1.3242   -2.0915   -0.1484 C.ar    1  UNL1       -0.0378
     20 C           0.3367   -2.6349   -0.9324 C.ar    1  UNL1       -0.0243
     21 C          -0.8542   -1.9425   -1.0386 C.ar    1  UNL1        0.1311
     22 F          -1.8086   -2.5086   -1.8235 F       1  UNL1       -0.2050
     23 C          -2.4787    1.2507    0.0675 C.3     1  UNL1        0.1212
     24 S          -4.1875    1.7202   -0.0751 S.O2    1  UNL1        0.0192
     25 O          -4.4479    3.0413    0.5935 O.2     1  UNL1       -0.1706
     26 O          -4.5450    1.7771   -1.5417 O.2     1  UNL1       -0.1706
     27 C          -5.1223    0.4142    0.6625 C.3     1  UNL1        0.3220
     28 C          -5.0666    0.5965    2.1718 C.3     1  UNL1        0.0013
     29 F          -6.4399    0.4263    0.2179 F       1  UNL1       -0.2044
     30 C          -4.5205   -0.8777    0.2771 C.2     1  UNL1        0.3390
     31 N          -5.3374   -2.0685    0.5299 N.pl3   1  UNL1       -0.2465
     32 N          -3.3899   -0.9761   -0.2422 N.2     1  UNL1       -0.0700
     33 H          -3.1661   -0.3514   -2.6496 H       1  UNL1        0.0279
     34 H          -2.4228    1.3154   -2.3378 H       1  UNL1        0.0279
     35 H          -1.4159   -0.1004   -2.6253 H       1  UNL1        0.0279
     36 H          -0.2028    0.6768    0.8956 H       1  UNL1        0.0641
     37 H           2.3358   -0.6041    2.2806 H       1  UNL1        0.1536
     38 H           3.0581    2.7215   -1.8367 H       1  UNL1        0.0860
     39 H           7.3643    1.4659   -0.7310 H       1  UNL1        0.0640
     40 H           6.8823   -1.5092    2.2588 H       1  UNL1        0.0844
     41 H           2.2539   -2.6342   -0.0687 H       1  UNL1        0.0637
     42 H           0.4841   -3.5674   -1.4462 H       1  UNL1        0.0647
     43 H          -2.2701    1.1865    1.1546 H       1  UNL1        0.0551
     44 H          -1.8625    2.0420   -0.4115 H       1  UNL1        0.0551
     45 H          -4.5398   -0.2638    2.6553 H       1  UNL1        0.0283
     46 H          -4.5763    1.5238    2.4777 H       1  UNL1        0.0283
     47 H          -6.1047    0.5557    2.5375 H       1  UNL1        0.0283
     48 H          -6.2010   -2.2374   -0.0108 H       1  UNL1        0.2882
     49 H          -5.0562   -2.7563    1.2576 H       1  UNL1        0.2882
@<TRIPOS>BOND
     1     2     1    1
     2     2     3    1
     3     3     4   ar
     4     4     5   ar
     5     5     6    1
     6     6     7    1
     7     7     8   ar
     8     8     9   ar
     9     9    10   ar
    10    10    11    1
    11    10    12   ar
    12    12    13   ar
    13    13    14   ar
    14    14    15    1
    15    14    16   ar
    16    16    17   ar
    17    17    18   ar
    18     5    19   ar
    19    19    20   ar
    20    20    21   ar
    21    21    22    1
    22     2    23    1
    23    23    24    1
    24    24    25    2
    25    24    26    2
    26    24    27    1
    27    27    28    1
    28    27    29    1
    29    27    30    1
    30    30    31    1
    31    30    32    2
    32    32     2    1
    33    21     3   ar
    34    18     7   ar
    35    18    12   ar
    36     1    33    1
    37     1    34    1
    38     1    35    1
    39     4    36    1
    40     6    37    1
    41     9    38    1
    42    13    39    1
    43    16    40    1
    44    19    41    1
    45    20    42    1
    46    23    43    1
    47    23    44    1
    48    28    45    1
    49    28    46    1
    50    28    47    1
    51    31    48    1
    52    31    49    1
