@<TRIPOS>MOLECULE
*****
 63 67 0 0 0
SMALL
GASTEIGER

@<TRIPOS>ATOM
      1 C          -5.2773   -1.6258    1.9046 C.3     1  UNL1       -0.0361
      2 C          -4.2453   -1.5819    0.7973 C.3     1  UNL1        0.0861
      3 O          -3.7062   -0.3300    0.6576 O.3     1  UNL1       -0.3457
      4 C          -2.6008   -0.2833   -0.1876 C.3     1  UNL1        0.1618
      5 C          -2.4717   -1.5552   -0.9921 C.3     1  UNL1        0.0161
      6 C          -3.7738   -2.0157   -1.5531 C.3     1  UNL1        0.0382
      7 N          -4.2911   -1.0364   -2.4898 N.3     1  UNL1       -0.3249
      8 C          -4.7206   -2.2764   -0.4171 C.3     1  UNL1        0.0963
      9 O          -5.9777   -1.8315   -0.8490 O.3     1  UNL1       -0.3877
     10 O          -1.5108   -0.1940    0.6425 O.3     1  UNL1       -0.3432
     11 C          -0.7513    0.9145    0.5397 C.3     1  UNL1        0.0934
     12 C          -0.7162    1.7788    1.7863 C.3     1  UNL1        0.0140
     13 C           0.0698    3.0468    1.5297 C.3     1  UNL1        0.1300
     14 O           1.0712    3.2406    2.4871 O.3     1  UNL1       -0.3806
     15 C           0.7569    3.0659    0.1815 C.3     1  UNL1        0.0122
     16 C           1.3956    1.7165    0.0152 C.ar    1  UNL1        0.0070
     17 C           0.6367    0.5490    0.2000 C.ar    1  UNL1        0.0302
     18 C           1.3152   -0.6225    0.0338 C.ar    1  UNL1        0.1345
     19 O           0.4942   -1.7216    0.2359 O.3     1  UNL1       -0.5057
     20 C           2.6325   -0.6680   -0.2887 C.ar    1  UNL1        0.0783
     21 C           3.2186   -1.9908   -0.4329 C.2     1  UNL1        0.1981
     22 O           2.5530   -3.0409   -0.2703 O.2     1  UNL1       -0.2865
     23 C           4.6252   -2.1864   -0.7774 C.ar    1  UNL1        0.0332
     24 C           5.1722   -3.4308   -0.9119 C.ar    1  UNL1       -0.0502
     25 C           6.4921   -3.6053   -1.2352 C.ar    1  UNL1       -0.0610
     26 C           7.2430   -2.4610   -1.4186 C.ar    1  UNL1       -0.0610
     27 C           6.7343   -1.1783   -1.2934 C.ar    1  UNL1       -0.0502
     28 C           5.3851   -1.0401   -0.9630 C.ar    1  UNL1        0.0332
     29 C           4.7941    0.2755   -0.8176 C.2     1  UNL1        0.1981
     30 O           5.4653    1.3301   -0.9816 O.2     1  UNL1       -0.2865
     31 C           3.4012    0.4511   -0.4765 C.ar    1  UNL1        0.0782
     32 C           2.7512    1.6514   -0.3167 C.ar    1  UNL1        0.1322
     33 O           3.5208    2.8075   -0.5044 O.3     1  UNL1       -0.5057
     34 C          -0.7971    4.2577    1.6029 C.2     1  UNL1        0.1620
     35 C          -2.0029    4.6099    0.8327 C.3     1  UNL1       -0.0032
     36 O          -0.4222    5.0593    2.4386 O.2     1  UNL1       -0.2946
     37 H          -6.2576   -1.4246    1.4229 H       1  UNL1        0.0255
     38 H          -5.0369   -0.9285    2.7310 H       1  UNL1        0.0255
     39 H          -5.3154   -2.6521    2.3233 H       1  UNL1        0.0255
     40 H          -3.3974   -2.2122    1.2047 H       1  UNL1        0.0620
     41 H          -2.7579    0.5548   -0.8782 H       1  UNL1        0.0910
     42 H          -2.0783   -2.4076   -0.3843 H       1  UNL1        0.0330
     43 H          -1.7565   -1.4148   -1.8269 H       1  UNL1        0.0330
     44 H          -3.6002   -2.9982   -2.0557 H       1  UNL1        0.0486
     45 H          -5.0106   -1.5246   -3.0875 H       1  UNL1        0.1186
     46 H          -4.7454   -0.2667   -1.9775 H       1  UNL1        0.1186
     47 H          -4.7656   -3.3771   -0.1667 H       1  UNL1        0.0635
     48 H          -6.0866   -0.8835   -0.5610 H       1  UNL1        0.2100
     49 H          -1.1145    1.6216   -0.2654 H       1  UNL1        0.0649
     50 H          -0.2261    1.2540    2.6248 H       1  UNL1        0.0326
     51 H          -1.7631    2.0859    1.9892 H       1  UNL1        0.0326
     52 H           1.3339    4.1763    2.5495 H       1  UNL1        0.2108
     53 H           0.0878    3.2076   -0.6687 H       1  UNL1        0.0347
     54 H           1.5500    3.8231    0.2431 H       1  UNL1        0.0347
     55 H           0.4428   -2.2432    1.0851 H       1  UNL1        0.2922
     56 H           4.5536   -4.3009   -0.7608 H       1  UNL1        0.0625
     57 H           6.9200   -4.5996   -1.3405 H       1  UNL1        0.0618
     58 H           8.3023   -2.5657   -1.6780 H       1  UNL1        0.0618
     59 H           7.3372   -0.2996   -1.4407 H       1  UNL1        0.0625
     60 H           4.0261    3.1360    0.3129 H       1  UNL1        0.2922
     61 H          -2.3204    3.8199    0.1279 H       1  UNL1        0.0307
     62 H          -2.8928    4.7892    1.5041 H       1  UNL1        0.0307
     63 H          -1.8920    5.5520    0.2647 H       1  UNL1        0.0307
@<TRIPOS>BOND
     1     1     2    1
     2     2     3    1
     3     3     4    1
     4     4     5    1
     5     5     6    1
     6     6     7    1
     7     6     8    1
     8     8     9    1
     9     4    10    1
    10    10    11    1
    11    11    12    1
    12    12    13    1
    13    13    14    1
    14    13    15    1
    15    15    16    1
    16    16    17   ar
    17    17    18   ar
    18    18    19    1
    19    18    20   ar
    20    20    21    1
    21    21    22    2
    22    21    23    1
    23    23    24   ar
    24    24    25   ar
    25    25    26   ar
    26    26    27   ar
    27    27    28   ar
    28    28    29    1
    29    29    30    2
    30    29    31    1
    31    31    32   ar
    32    32    33    1
    33    13    34    1
    34    34    35    1
    35    34    36    2
    36     8     2    1
    37    17    11    1
    38    31    20   ar
    39    32    16   ar
    40    28    23   ar
    41     1    37    1
    42     1    38    1
    43     1    39    1
    44     2    40    1
    45     4    41    1
    46     5    42    1
    47     5    43    1
    48     6    44    1
    49     7    45    1
    50     7    46    1
    51     8    47    1
    52     9    48    1
    53    11    49    1
    54    12    50    1
    55    12    51    1
    56    14    52    1
    57    15    53    1
    58    15    54    1
    59    19    55    1
    60    24    56    1
    61    25    57    1
    62    26    58    1
    63    27    59    1
    64    33    60    1
    65    35    61    1
    66    35    62    1
    67    35    63    1
