@<TRIPOS>MOLECULE
*****
 35 35 0 0 0
SMALL
GASTEIGER

@<TRIPOS>ATOM
      1 C          -4.6621    0.9535    1.5954 C.3     1  UNL1        0.0122
      2 C          -4.0380    0.2688    0.4373 C.2     1  UNL1        0.2104
      3 O          -4.5615   -0.1745   -0.6116 O.2     1  UNL1       -0.2761
      4 N          -2.6285    0.0968    0.5505 N.am    1  UNL1       -0.3053
      5 C          -1.7586   -0.5423   -0.4378 C.3     1  UNL1        0.1021
      6 C          -0.8496    0.5723   -0.9569 C.3     1  UNL1        0.1776
      7 O          -0.2402    0.2110   -2.1604 O.3     1  UNL1       -0.3654
      8 O           0.0348    1.0096   -0.0114 O.3     1  UNL1       -0.3414
      9 C           0.7955    0.0456    0.5930 C.3     1  UNL1        0.1138
     10 C           2.2630    0.4765    0.4858 C.3     1  UNL1        0.0879
     11 O           2.6138    0.6003   -0.8459 O.3     1  UNL1       -0.2841
     12 P           4.2349    1.0755   -0.8938 P.3     1  UNL1        0.4724
     13 O           4.4209    2.6166   -0.1852 O.3     1  UNL1       -0.3026
     14 O           5.1384   -0.0546   -0.0174 O.3     1  UNL1       -0.3026
     15 O           4.6541    1.1484   -2.3306 O.2     1  UNL1       -0.2275
     16 C           0.5813   -1.3232    0.0380 C.3     1  UNL1        0.1112
     17 O           1.2635   -2.2511    0.8410 O.3     1  UNL1       -0.3865
     18 C          -0.9084   -1.6112    0.1585 C.3     1  UNL1        0.1065
     19 O          -1.1347   -2.7827   -0.5663 O.3     1  UNL1       -0.3871
     20 H          -4.4142    2.0340    1.5438 H       1  UNL1        0.0322
     21 H          -4.1735    0.5976    2.5488 H       1  UNL1        0.0322
     22 H          -5.7455    0.7750    1.6643 H       1  UNL1        0.0322
     23 H          -1.9785    0.3806    1.3235 H       1  UNL1        0.1492
     24 H          -2.3508   -0.8836   -1.3062 H       1  UNL1        0.0575
     25 H          -1.5324    1.4124   -1.2037 H       1  UNL1        0.0928
     26 H          -0.7905   -0.4134   -2.6780 H       1  UNL1        0.2125
     27 H           0.6179   -0.0247    1.7030 H       1  UNL1        0.0647
     28 H           2.4113    1.4051    1.0743 H       1  UNL1        0.0592
     29 H           2.9300   -0.2714    0.9378 H       1  UNL1        0.0592
     30 H           3.6083    3.1351   -0.4377 H       1  UNL1        0.2220
     31 H           6.0791    0.2235   -0.0365 H       1  UNL1        0.2220
     32 H           0.9510   -1.4637   -0.9834 H       1  UNL1        0.0646
     33 H           1.9772   -2.7265    0.3548 H       1  UNL1        0.2100
     34 H          -1.1713   -1.8552    1.2076 H       1  UNL1        0.0640
     35 H          -1.6366   -2.6604   -1.3945 H       1  UNL1        0.2100
@<TRIPOS>BOND
     1     1     2    1
     2     2     3    2
     3     2     4   am
     4     4     5    1
     5     5     6    1
     6     6     7    1
     7     6     8    1
     8     8     9    1
     9     9    10    1
    10    10    11    1
    11    11    12    1
    12    12    13    1
    13    12    14    1
    14    12    15    2
    15     9    16    1
    16    16    17    1
    17    16    18    1
    18    18    19    1
    19    18     5    1
    20     1    20    1
    21     1    21    1
    22     1    22    1
    23     4    23    1
    24     5    24    1
    25     6    25    1
    26     7    26    1
    27     9    27    1
    28    10    28    1
    29    10    29    1
    30    13    30    1
    31    14    31    1
    32    16    32    1
    33    17    33    1
    34    18    34    1
    35    19    35    1
