@<TRIPOS>MOLECULE
*****
 81 86 0 0 0
SMALL
GASTEIGER

@<TRIPOS>ATOM
      1 C           4.3692    1.3768    1.2990 C.3     1  UNL1       -0.0219
      2 C           4.1052    0.0376    0.7109 C.ar    1  UNL1        0.0464
      3 N           5.0605   -0.5936    0.0412 N.ar    1  UNL1       -0.2175
      4 C           4.9119   -1.8017   -0.5227 C.ar    1  UNL1        0.2207
      5 O           5.9650   -2.3962   -1.2086 O.3     1  UNL1       -0.4380
      6 C           7.1712   -1.7390   -1.3068 C.ar    1  UNL1        0.1304
      7 C           7.4210   -0.8894   -2.3593 C.ar    1  UNL1       -0.0186
      8 C           8.6399   -0.2493   -2.4238 C.ar    1  UNL1       -0.0462
      9 C           9.6451   -0.4114   -1.4787 C.ar    1  UNL1        0.0367
     10 C          10.9169    0.2875   -1.5893 C.2     1  UNL1        0.2415
     11 N          11.9138    0.1077   -0.6299 N.am    1  UNL1       -0.3253
     12 O          11.0985    1.0513   -2.5598 O.2     1  UNL1       -0.2704
     13 C           9.3716   -1.2724   -0.4266 C.ar    1  UNL1       -0.0462
     14 C           8.1537   -1.9128   -0.3610 C.ar    1  UNL1       -0.0186
     15 C           3.6906   -2.4236   -0.3973 C.ar    1  UNL1        0.0007
     16 C           2.6670   -1.7899    0.2986 C.ar    1  UNL1       -0.0506
     17 C           2.8677   -0.5495    0.8601 C.ar    1  UNL1       -0.0121
     18 C           1.7712    0.1283    1.6083 C.3     1  UNL1        0.0257
     19 N           1.1452    1.1914    0.8826 N.3     1  UNL1       -0.2980
     20 C           0.5154    0.7946   -0.3425 C.3     1  UNL1        0.0009
     21 C          -0.5918   -0.1784   -0.2171 C.3     1  UNL1       -0.0213
     22 C          -1.3511   -0.2043    1.0554 C.3     1  UNL1        0.0305
     23 N          -2.7999   -0.0474    0.8314 N.am    1  UNL1       -0.2738
     24 C          -3.4314    1.1196    0.3225 C.2     1  UNL1        0.3059
     25 O          -2.8014    2.0738   -0.2436 O.2     1  UNL1       -0.2524
     26 N          -4.8359    1.0379    0.5478 N.am    1  UNL1       -0.2802
     27 C          -5.8464    1.9610    0.0091 C.3     1  UNL1        0.0317
     28 C          -6.8780    1.2390   -0.8236 C.3     1  UNL1       -0.0106
     29 C          -8.1657    2.0006   -0.9353 C.3     1  UNL1        0.0493
     30 O          -8.7090    2.3997    0.2586 O.3     1  UNL1       -0.3796
     31 C          -7.8981    1.9933    1.3359 C.3     1  UNL1        0.0493
     32 C          -6.5649    2.6366    1.1507 C.3     1  UNL1       -0.0106
     33 C          -5.0409   -0.1072    1.3914 C.3     1  UNL1        0.0393
     34 C          -3.8644   -1.0016    1.0703 C.3     1  UNL1        0.0687
     35 C          -4.1613   -1.8246   -0.1146 C.ar    1  UNL1       -0.0255
     36 C          -4.2948   -1.3030   -1.3659 C.ar    1  UNL1       -0.0567
     37 C          -4.5732   -2.0849   -2.4794 C.ar    1  UNL1       -0.0614
     38 C          -4.7187   -3.4309   -2.3116 C.ar    1  UNL1       -0.0617
     39 C          -4.5886   -3.9859   -1.0539 C.ar    1  UNL1       -0.0614
     40 C          -4.3133   -3.1963    0.0337 C.ar    1  UNL1       -0.0567
     41 C          -0.8749    0.6957    2.1470 C.3     1  UNL1       -0.0213
     42 C           0.1002    1.7413    1.7263 C.3     1  UNL1        0.0009
     43 H           4.0690    1.4245    2.3645 H       1  UNL1        0.0293
     44 H           3.8887    2.1306    0.6711 H       1  UNL1        0.0293
     45 H           5.4572    1.5667    1.2722 H       1  UNL1        0.0293
     46 H           6.6785   -0.7098   -3.1442 H       1  UNL1        0.0654
     47 H           8.8476    0.4233   -3.2500 H       1  UNL1        0.0626
     48 H          12.3538    0.9016   -0.0848 H       1  UNL1        0.1453
     49 H          12.2886   -0.8511   -0.3932 H       1  UNL1        0.1453
     50 H          10.1419   -1.4189    0.3301 H       1  UNL1        0.0626
     51 H           7.9589   -2.5932    0.4854 H       1  UNL1        0.0654
     52 H           3.5552   -3.4011   -0.8481 H       1  UNL1        0.0671
     53 H           1.7205   -2.3191    0.3729 H       1  UNL1        0.0623
     54 H           2.2075    0.5118    2.5571 H       1  UNL1        0.0476
     55 H           1.0573   -0.6637    1.9183 H       1  UNL1        0.0476
     56 H           1.2748    0.3905   -1.0635 H       1  UNL1        0.0427
     57 H           0.1227    1.7315   -0.8090 H       1  UNL1        0.0427
     58 H          -1.3315    0.0382   -1.0453 H       1  UNL1        0.0295
     59 H          -0.1989   -1.1973   -0.5128 H       1  UNL1        0.0295
     60 H          -1.2518   -1.2570    1.4637 H       1  UNL1        0.0502
     61 H          -5.3168    2.7413   -0.6168 H       1  UNL1        0.0502
     62 H          -7.0487    0.1983   -0.4798 H       1  UNL1        0.0305
     63 H          -6.4922    1.1486   -1.8831 H       1  UNL1        0.0305
     64 H          -8.9080    1.2856   -1.3986 H       1  UNL1        0.0560
     65 H          -8.0777    2.8224   -1.6832 H       1  UNL1        0.0560
     66 H          -8.3847    2.2606    2.2981 H       1  UNL1        0.0560
     67 H          -7.8186    0.8911    1.2634 H       1  UNL1        0.0560
     68 H          -6.7265    3.7146    0.8668 H       1  UNL1        0.0305
     69 H          -5.9520    2.6744    2.0727 H       1  UNL1        0.0305
     70 H          -4.9893    0.2546    2.4461 H       1  UNL1        0.0487
     71 H          -5.9876   -0.6445    1.1798 H       1  UNL1        0.0487
     72 H          -3.6208   -1.6445    1.9604 H       1  UNL1        0.0567
     73 H          -4.1877   -0.2425   -1.5387 H       1  UNL1        0.0621
     74 H          -4.6738   -1.6390   -3.4666 H       1  UNL1        0.0618
     75 H          -4.9345   -4.0541   -3.1603 H       1  UNL1        0.0618
     76 H          -4.7165   -5.0672   -0.9859 H       1  UNL1        0.0618
     77 H          -4.2165   -3.6556    1.0067 H       1  UNL1        0.0621
     78 H          -0.4488    0.1545    3.0241 H       1  UNL1        0.0295
     79 H          -1.7749    1.2321    2.5599 H       1  UNL1        0.0295
     80 H           0.5994    2.1511    2.6272 H       1  UNL1        0.0427
     81 H          -0.3605    2.5966    1.1943 H       1  UNL1        0.0427
@<TRIPOS>BOND
     1     1     2    1
     2     2     3   ar
     3     3     4   ar
     4     4     5    1
     5     5     6    1
     6     6     7   ar
     7     7     8   ar
     8     8     9   ar
     9     9    10    1
    10    10    11   am
    11    10    12    2
    12     9    13   ar
    13    13    14   ar
    14     4    15   ar
    15    15    16   ar
    16    16    17   ar
    17    17    18    1
    18    18    19    1
    19    19    20    1
    20    20    21    1
    21    21    22    1
    22    22    23    1
    23    23    24   am
    24    24    25    2
    25    24    26   am
    26    26    27    1
    27    27    28    1
    28    28    29    1
    29    29    30    1
    30    30    31    1
    31    31    32    1
    32    26    33    1
    33    33    34    1
    34    34    35    1
    35    35    36   ar
    36    36    37   ar
    37    37    38   ar
    38    38    39   ar
    39    39    40   ar
    40    22    41    1
    41    41    42    1
    42    17     2   ar
    43    42    19    1
    44    14     6   ar
    45    34    23    1
    46    40    35   ar
    47    32    27    1
    48     1    43    1
    49     1    44    1
    50     1    45    1
    51     7    46    1
    52     8    47    1
    53    11    48    1
    54    11    49    1
    55    13    50    1
    56    14    51    1
    57    15    52    1
    58    16    53    1
    59    18    54    1
    60    18    55    1
    61    20    56    1
    62    20    57    1
    63    21    58    1
    64    21    59    1
    65    22    60    1
    66    27    61    1
    67    28    62    1
    68    28    63    1
    69    29    64    1
    70    29    65    1
    71    31    66    1
    72    31    67    1
    73    32    68    1
    74    32    69    1
    75    33    70    1
    76    33    71    1
    77    34    72    1
    78    36    73    1
    79    37    74    1
    80    38    75    1
    81    39    76    1
    82    40    77    1
    83    41    78    1
    84    41    79    1
    85    42    80    1
    86    42    81    1
