
     RDKit          3D

 81 86  0  0  0  0  0  0  0  0999 V2000
    4.3692    1.3768    1.2990 C   0  0  0  0  0  0  0  0  0  0  0  0
    4.1052    0.0376    0.7109 C   0  0  0  0  0  0  0  0  0  0  0  0
    5.0605   -0.5936    0.0412 N   0  0  0  0  0  0  0  0  0  0  0  0
    4.9119   -1.8017   -0.5227 C   0  0  0  0  0  0  0  0  0  0  0  0
    5.9650   -2.3962   -1.2086 O   0  0  0  0  0  0  0  0  0  0  0  0
    7.1712   -1.7390   -1.3068 C   0  0  0  0  0  0  0  0  0  0  0  0
    7.4210   -0.8894   -2.3593 C   0  0  0  0  0  0  0  0  0  0  0  0
    8.6399   -0.2493   -2.4238 C   0  0  0  0  0  0  0  0  0  0  0  0
    9.6451   -0.4114   -1.4787 C   0  0  0  0  0  0  0  0  0  0  0  0
   10.9169    0.2875   -1.5893 C   0  0  0  0  0  0  0  0  0  0  0  0
   11.9138    0.1077   -0.6299 N   0  0  0  0  0  0  0  0  0  0  0  0
   11.0985    1.0513   -2.5598 O   0  0  0  0  0  0  0  0  0  0  0  0
    9.3716   -1.2724   -0.4266 C   0  0  0  0  0  0  0  0  0  0  0  0
    8.1537   -1.9128   -0.3610 C   0  0  0  0  0  0  0  0  0  0  0  0
    3.6906   -2.4236   -0.3973 C   0  0  0  0  0  0  0  0  0  0  0  0
    2.6670   -1.7899    0.2986 C   0  0  0  0  0  0  0  0  0  0  0  0
    2.8677   -0.5495    0.8601 C   0  0  0  0  0  0  0  0  0  0  0  0
    1.7712    0.1283    1.6083 C   0  0  0  0  0  0  0  0  0  0  0  0
    1.1452    1.1914    0.8826 N   0  0  0  0  0  0  0  0  0  0  0  0
    0.5154    0.7946   -0.3425 C   0  0  0  0  0  0  0  0  0  0  0  0
   -0.5918   -0.1784   -0.2171 C   0  0  0  0  0  0  0  0  0  0  0  0
   -1.3511   -0.2043    1.0554 C   0  0  0  0  0  0  0  0  0  0  0  0
   -2.7999   -0.0474    0.8314 N   0  0  0  0  0  0  0  0  0  0  0  0
   -3.4314    1.1196    0.3225 C   0  0  0  0  0  0  0  0  0  0  0  0
   -2.8014    2.0738   -0.2436 O   0  0  0  0  0  0  0  0  0  0  0  0
   -4.8359    1.0379    0.5478 N   0  0  0  0  0  0  0  0  0  0  0  0
   -5.8464    1.9610    0.0091 C   0  0  0  0  0  0  0  0  0  0  0  0
   -6.8780    1.2390   -0.8236 C   0  0  0  0  0  0  0  0  0  0  0  0
   -8.1657    2.0006   -0.9353 C   0  0  0  0  0  0  0  0  0  0  0  0
   -8.7090    2.3997    0.2586 O   0  0  0  0  0  0  0  0  0  0  0  0
   -7.8981    1.9933    1.3359 C   0  0  0  0  0  0  0  0  0  0  0  0
   -6.5649    2.6366    1.1507 C   0  0  0  0  0  0  0  0  0  0  0  0
   -5.0409   -0.1072    1.3914 C   0  0  0  0  0  0  0  0  0  0  0  0
   -3.8644   -1.0016    1.0703 C   0  0  1  0  0  0  0  0  0  0  0  0
   -4.1613   -1.8246   -0.1146 C   0  0  0  0  0  0  0  0  0  0  0  0
   -4.2948   -1.3030   -1.3659 C   0  0  0  0  0  0  0  0  0  0  0  0
   -4.5732   -2.0849   -2.4794 C   0  0  0  0  0  0  0  0  0  0  0  0
   -4.7187   -3.4309   -2.3116 C   0  0  0  0  0  0  0  0  0  0  0  0
   -4.5886   -3.9859   -1.0539 C   0  0  0  0  0  0  0  0  0  0  0  0
   -4.3133   -3.1963    0.0337 C   0  0  0  0  0  0  0  0  0  0  0  0
   -0.8749    0.6957    2.1470 C   0  0  0  0  0  0  0  0  0  0  0  0
    0.1002    1.7413    1.7263 C   0  0  0  0  0  0  0  0  0  0  0  0
    4.0690    1.4245    2.3645 H   0  0  0  0  0  0  0  0  0  0  0  0
    3.8887    2.1306    0.6711 H   0  0  0  0  0  0  0  0  0  0  0  0
    5.4572    1.5667    1.2722 H   0  0  0  0  0  0  0  0  0  0  0  0
    6.6785   -0.7098   -3.1442 H   0  0  0  0  0  0  0  0  0  0  0  0
    8.8476    0.4233   -3.2500 H   0  0  0  0  0  0  0  0  0  0  0  0
   12.3538    0.9016   -0.0848 H   0  0  0  0  0  0  0  0  0  0  0  0
   12.2886   -0.8511   -0.3932 H   0  0  0  0  0  0  0  0  0  0  0  0
   10.1419   -1.4189    0.3301 H   0  0  0  0  0  0  0  0  0  0  0  0
    7.9589   -2.5932    0.4854 H   0  0  0  0  0  0  0  0  0  0  0  0
    3.5552   -3.4011   -0.8481 H   0  0  0  0  0  0  0  0  0  0  0  0
    1.7205   -2.3191    0.3729 H   0  0  0  0  0  0  0  0  0  0  0  0
    2.2075    0.5118    2.5571 H   0  0  0  0  0  0  0  0  0  0  0  0
    1.0573   -0.6637    1.9183 H   0  0  0  0  0  0  0  0  0  0  0  0
    1.2748    0.3905   -1.0635 H   0  0  0  0  0  0  0  0  0  0  0  0
    0.1227    1.7315   -0.8090 H   0  0  0  0  0  0  0  0  0  0  0  0
   -1.3315    0.0382   -1.0453 H   0  0  0  0  0  0  0  0  0  0  0  0
   -0.1989   -1.1973   -0.5128 H   0  0  0  0  0  0  0  0  0  0  0  0
   -1.2518   -1.2570    1.4637 H   0  0  0  0  0  0  0  0  0  0  0  0
   -5.3168    2.7413   -0.6168 H   0  0  0  0  0  0  0  0  0  0  0  0
   -7.0487    0.1983   -0.4798 H   0  0  0  0  0  0  0  0  0  0  0  0
   -6.4922    1.1486   -1.8831 H   0  0  0  0  0  0  0  0  0  0  0  0
   -8.9080    1.2856   -1.3986 H   0  0  0  0  0  0  0  0  0  0  0  0
   -8.0777    2.8224   -1.6832 H   0  0  0  0  0  0  0  0  0  0  0  0
   -8.3847    2.2606    2.2981 H   0  0  0  0  0  0  0  0  0  0  0  0
   -7.8186    0.8911    1.2634 H   0  0  0  0  0  0  0  0  0  0  0  0
   -6.7265    3.7146    0.8668 H   0  0  0  0  0  0  0  0  0  0  0  0
   -5.9520    2.6744    2.0727 H   0  0  0  0  0  0  0  0  0  0  0  0
   -4.9893    0.2546    2.4461 H   0  0  0  0  0  0  0  0  0  0  0  0
   -5.9876   -0.6445    1.1798 H   0  0  0  0  0  0  0  0  0  0  0  0
   -3.6208   -1.6445    1.9604 H   0  0  0  0  0  0  0  0  0  0  0  0
   -4.1877   -0.2425   -1.5387 H   0  0  0  0  0  0  0  0  0  0  0  0
   -4.6738   -1.6390   -3.4666 H   0  0  0  0  0  0  0  0  0  0  0  0
   -4.9345   -4.0541   -3.1603 H   0  0  0  0  0  0  0  0  0  0  0  0
   -4.7165   -5.0672   -0.9859 H   0  0  0  0  0  0  0  0  0  0  0  0
   -4.2165   -3.6556    1.0067 H   0  0  0  0  0  0  0  0  0  0  0  0
   -0.4488    0.1545    3.0241 H   0  0  0  0  0  0  0  0  0  0  0  0
   -1.7749    1.2321    2.5599 H   0  0  0  0  0  0  0  0  0  0  0  0
    0.5994    2.1511    2.6272 H   0  0  0  0  0  0  0  0  0  0  0  0
   -0.3605    2.5966    1.1943 H   0  0  0  0  0  0  0  0  0  0  0  0
  1  2  1  0
  2  3  2  0
  3  4  1  0
  4  5  1  0
  5  6  1  0
  6  7  2  0
  7  8  1  0
  8  9  2  0
  9 10  1  0
 10 11  1  0
 10 12  2  0
  9 13  1  0
 13 14  2  0
  4 15  2  0
 15 16  1  0
 16 17  2  0
 17 18  1  0
 18 19  1  0
 19 20  1  0
 20 21  1  0
 21 22  1  0
 22 23  1  0
 23 24  1  0
 24 25  2  0
 24 26  1  0
 26 27  1  0
 27 28  1  0
 28 29  1  0
 29 30  1  0
 30 31  1  0
 31 32  1  0
 26 33  1  0
 33 34  1  0
 34 35  1  0
 35 36  2  0
 36 37  1  0
 37 38  2  0
 38 39  1  0
 39 40  2  0
 22 41  1  0
 41 42  1  0
 17  2  1  0
 42 19  1  0
 14  6  1  0
 34 23  1  0
 40 35  1  0
 32 27  1  0
  1 43  1  0
  1 44  1  0
  1 45  1  0
  7 46  1  0
  8 47  1  0
 11 48  1  0
 11 49  1  0
 13 50  1  0
 14 51  1  0
 15 52  1  0
 16 53  1  0
 18 54  1  0
 18 55  1  0
 20 56  1  0
 20 57  1  0
 21 58  1  0
 21 59  1  0
 22 60  1  0
 27 61  1  0
 28 62  1  0
 28 63  1  0
 29 64  1  0
 29 65  1  0
 31 66  1  0
 31 67  1  0
 32 68  1  0
 32 69  1  0
 33 70  1  0
 33 71  1  0
 34 72  1  1
 36 73  1  0
 37 74  1  0
 38 75  1  0
 39 76  1  0
 40 77  1  0
 41 78  1  0
 41 79  1  0
 42 80  1  0
 42 81  1  0
M  END
$$$$
