@<TRIPOS>MOLECULE
*****
 41 44 0 0 0
SMALL
GASTEIGER

@<TRIPOS>ATOM
      1 N           3.4967   -0.8949    4.0271 N.pl3   1  UNL1       -0.3413
      2 C           2.3617   -0.8151    3.1519 C.ar    1  UNL1        0.1464
      3 C           2.1109   -0.5197    1.8239 C.ar    1  UNL1        0.1353
      4 N           0.7759   -0.6549    1.7194 N.ar    1  UNL1       -0.2944
      5 C           0.0096   -0.5004    0.6469 C.ar    1  UNL1        0.0228
      6 C          -1.3561   -0.6696    0.6171 C.ar    1  UNL1        0.0391
      7 C          -1.9307   -1.0318    1.8278 C.ar    1  UNL1       -0.0460
      8 C          -1.1636   -1.2018    2.9599 C.ar    1  UNL1       -0.0180
      9 C           0.2042   -1.0017    2.8614 C.ar    1  UNL1        0.1403
     10 N           1.1880   -1.1007    3.7483 N.ar    1  UNL1       -0.2128
     11 C          -2.1294   -0.5122   -0.5926 C.2     1  UNL1        0.2001
     12 O          -1.4279   -0.8895   -1.5948 O.2     1  UNL1       -0.2864
     13 C          -3.4557   -0.0454   -0.9076 C.ar    1  UNL1        0.0925
     14 C          -3.9464   -0.3597   -2.1720 C.ar    1  UNL1        0.1370
     15 F          -3.2609   -1.0844   -3.0889 F       1  UNL1       -0.2047
     16 C          -5.2048    0.0827   -2.5333 C.ar    1  UNL1       -0.0256
     17 C          -6.0163    0.8277   -1.7052 C.ar    1  UNL1       -0.0563
     18 C          -5.5545    1.1626   -0.4266 C.ar    1  UNL1       -0.0256
     19 C          -4.2988    0.6991   -0.1178 C.ar    1  UNL1        0.1370
     20 F          -3.8566    1.0612    1.1170 F       1  UNL1       -0.2047
     21 C           3.2135   -0.1973    0.9602 C.2     1  UNL1        0.2131
     22 O           4.3561   -0.4640    1.4905 O.2     1  UNL1       -0.2850
     23 C           3.4507    0.3494   -0.3555 C.ar    1  UNL1        0.0239
     24 C           2.6405    1.2689   -1.0045 C.ar    1  UNL1       -0.0509
     25 C           2.7694    1.8023   -2.2636 C.ar    1  UNL1       -0.0611
     26 C           3.8664    1.3432   -2.9572 C.ar    1  UNL1       -0.0617
     27 C           4.7292    0.4321   -2.3986 C.ar    1  UNL1       -0.0611
     28 C           4.5264   -0.0522   -1.1308 C.ar    1  UNL1       -0.0509
     29 H           3.9342   -1.8246    4.2346 H       1  UNL1        0.1438
     30 H           4.0369   -0.1572    4.5551 H       1  UNL1        0.1438
     31 H           0.4419   -0.2456   -0.2847 H       1  UNL1        0.0821
     32 H          -2.9630   -1.2175    1.9707 H       1  UNL1        0.0626
     33 H          -1.5559   -1.4824    3.9239 H       1  UNL1        0.0654
     34 H          -5.6163   -0.1522   -3.5280 H       1  UNL1        0.0646
     35 H          -7.0031    1.1781   -1.9770 H       1  UNL1        0.0619
     36 H          -6.1454    1.7428    0.2643 H       1  UNL1        0.0646
     37 H           1.7698    1.6549   -0.4566 H       1  UNL1        0.0625
     38 H           2.0844    2.5087   -2.6730 H       1  UNL1        0.0618
     39 H           4.0811    1.6813   -3.9517 H       1  UNL1        0.0618
     40 H           5.6121    0.0548   -2.9399 H       1  UNL1        0.0618
     41 H           5.2261   -0.7750   -0.7094 H       1  UNL1        0.0625
@<TRIPOS>BOND
     1     1     2    1
     2     2     3   ar
     3     3     4   ar
     4     4     5   ar
     5     5     6   ar
     6     6     7   ar
     7     7     8   ar
     8     8     9   ar
     9     9    10   ar
    10     6    11    1
    11    11    12    2
    12    11    13    1
    13    13    14   ar
    14    14    15    1
    15    14    16   ar
    16    16    17   ar
    17    17    18   ar
    18    18    19   ar
    19    19    20    1
    20     3    21    1
    21    21    22    2
    22    21    23    1
    23    23    24   ar
    24    24    25   ar
    25    25    26   ar
    26    26    27   ar
    27    27    28   ar
    28    10     2   ar
    29    19    13   ar
    30    28    23   ar
    31     9     4   ar
    32     1    29    1
    33     1    30    1
    34     5    31    1
    35     7    32    1
    36     8    33    1
    37    16    34    1
    38    17    35    1
    39    18    36    1
    40    24    37    1
    41    25    38    1
    42    26    39    1
    43    27    40    1
    44    28    41    1
