@<TRIPOS>MOLECULE
*****
 73 80 0 0 0
SMALL
GASTEIGER

@<TRIPOS>ATOM
      1 O          -6.8234   -1.1456   -2.9440 O.2     1  UNL1       -0.2465
      2 C          -7.0749   -0.3708   -1.9698 C.ar    1  UNL1        0.3278
      3 N          -8.1634    0.3990   -1.8585 N.ar    1  UNL1       -0.3059
      4 C          -8.0786    1.0839   -0.6835 C.ar    1  UNL1        0.0670
      5 C          -8.9023    2.0014   -0.0667 C.ar    1  UNL1       -0.0362
      6 C          -8.5585    2.5462    1.1505 C.ar    1  UNL1       -0.0597
      7 C          -7.3640    2.1232    1.6986 C.ar    1  UNL1       -0.0597
      8 C          -6.5379    1.2064    1.0853 C.ar    1  UNL1       -0.0360
      9 C          -6.8887    0.6784   -0.1124 C.ar    1  UNL1        0.0700
     10 N          -6.2573   -0.2272   -0.9065 N.ar    1  UNL1       -0.2891
     11 C          -4.9797   -0.8788   -0.6346 C.3     1  UNL1        0.0417
     12 C          -3.8681    0.0902   -0.5406 C.3     1  UNL1       -0.0191
     13 C          -2.9411   -0.0977    0.6227 C.3     1  UNL1        0.0011
     14 N          -2.6876   -1.4823    0.7931 N.3     1  UNL1       -0.2980
     15 C          -1.8422   -2.1092   -0.1521 C.3     1  UNL1        0.0240
     16 C          -0.4996   -1.4865   -0.1246 C.ar    1  UNL1       -0.0333
     17 C          -0.1686   -0.4495   -0.9574 C.ar    1  UNL1       -0.0567
     18 C           1.0977    0.0964   -0.8892 C.ar    1  UNL1       -0.0522
     19 C           2.0360   -0.3896    0.0083 C.ar    1  UNL1        0.0025
     20 C           3.3694    0.1862    0.0801 C.ar    1  UNL1        0.0976
     21 N           3.5317    1.4950    0.3922 N.ar    1  UNL1       -0.2430
     22 C           4.7530    2.0583    0.4664 C.ar    1  UNL1        0.0899
     23 C           4.9362    3.3908    0.7830 C.ar    1  UNL1       -0.0335
     24 C           6.1991    3.9456    0.8528 C.ar    1  UNL1       -0.0489
     25 C           7.3153    3.1845    0.6084 C.ar    1  UNL1        0.0226
     26 C           8.6328    3.7763    0.6848 C.ar    1  UNL1        0.1794
     27 N           9.7980    3.1627    0.4741 N.ar    1  UNL1       -0.1084
     28 N          10.8005    4.0428    0.6376 N.ar    1  UNL1       -0.0229
     29 N          10.2106    5.1812    0.9469 N.ar    1  UNL1       -0.0464
     30 N           8.9001    5.0473    0.9821 N.ar    1  UNL1       -0.2388
     31 C           7.1058    1.8527    0.2934 C.ar    1  UNL1       -0.0235
     32 C           5.8556    1.2755    0.2174 C.ar    1  UNL1        0.0906
     33 N           5.6772   -0.0270   -0.0923 N.ar    1  UNL1       -0.2430
     34 C           4.4735   -0.6218   -0.1753 C.ar    1  UNL1        0.0976
     35 C           4.3053   -2.0229   -0.5098 C.ar    1  UNL1        0.0025
     36 C           4.8454   -2.9792    0.3129 C.ar    1  UNL1       -0.0525
     37 C           4.6920   -4.3313    0.0024 C.ar    1  UNL1       -0.0611
     38 C           4.0085   -4.7295   -1.1149 C.ar    1  UNL1       -0.0617
     39 C           3.4663   -3.7792   -1.9413 C.ar    1  UNL1       -0.0611
     40 C           3.6229   -2.4318   -1.6259 C.ar    1  UNL1       -0.0525
     41 C           1.6849   -1.4215    0.8268 C.ar    1  UNL1       -0.0522
     42 C           0.4298   -1.9782    0.7741 C.ar    1  UNL1       -0.0567
     43 C          -3.8491   -2.2537    1.1576 C.3     1  UNL1        0.0011
     44 C          -5.1007   -1.8614    0.4824 C.3     1  UNL1       -0.0191
     45 H          -8.9761    0.5158   -2.5029 H       1  UNL1        0.1704
     46 H          -9.8323    2.3184   -0.5119 H       1  UNL1        0.0639
     47 H          -9.2015    3.2793    1.6588 H       1  UNL1        0.0618
     48 H          -7.0992    2.5659    2.6728 H       1  UNL1        0.0618
     49 H          -5.6394    0.9337    1.5700 H       1  UNL1        0.0639
     50 H          -4.7720   -1.4947   -1.5643 H       1  UNL1        0.0530
     51 H          -3.2461    0.1582   -1.4583 H       1  UNL1        0.0298
     52 H          -4.3100    1.1239   -0.4278 H       1  UNL1        0.0298
     53 H          -3.3062    0.3924    1.5499 H       1  UNL1        0.0427
     54 H          -1.9914    0.4218    0.3903 H       1  UNL1        0.0427
     55 H          -2.3054   -2.0073   -1.1572 H       1  UNL1        0.0476
     56 H          -1.7786   -3.1964    0.1242 H       1  UNL1        0.0476
     57 H          -0.8683   -0.0332   -1.6797 H       1  UNL1        0.0621
     58 H           1.3771    0.9266   -1.5492 H       1  UNL1        0.0624
     59 H           4.0954    4.0294    0.9830 H       1  UNL1        0.0640
     60 H           6.2988    5.0104    1.1081 H       1  UNL1        0.0625
     61 H           8.2544    5.8368    1.2087 H       1  UNL1        0.1923
     62 H           7.9794    1.2329    0.0962 H       1  UNL1        0.0646
     63 H           5.3825   -2.6611    1.1921 H       1  UNL1        0.0624
     64 H           5.1353   -5.0452    0.6809 H       1  UNL1        0.0618
     65 H           3.9074   -5.8050   -1.3281 H       1  UNL1        0.0618
     66 H           2.9272   -4.0979   -2.8228 H       1  UNL1        0.0618
     67 H           3.1834   -1.7150   -2.2978 H       1  UNL1        0.0624
     68 H           2.3933   -1.8429    1.5568 H       1  UNL1        0.0624
     69 H           0.1511   -2.8006    1.4268 H       1  UNL1        0.0621
     70 H          -3.9230   -2.2337    2.2660 H       1  UNL1        0.0427
     71 H          -3.5795   -3.3274    0.9213 H       1  UNL1        0.0427
     72 H          -5.7991   -1.4347    1.2337 H       1  UNL1        0.0298
     73 H          -5.6193   -2.7997    0.1276 H       1  UNL1        0.0298
@<TRIPOS>BOND
     1     1     2    2
     2     2     3   ar
     3     3     4   ar
     4     4     5   ar
     5     5     6   ar
     6     6     7   ar
     7     7     8   ar
     8     8     9   ar
     9     9    10   ar
    10    10    11    1
    11    11    12    1
    12    12    13    1
    13    13    14    1
    14    14    15    1
    15    15    16    1
    16    16    17   ar
    17    17    18   ar
    18    18    19   ar
    19    19    20    1
    20    20    21   ar
    21    21    22   ar
    22    22    23   ar
    23    23    24   ar
    24    24    25   ar
    25    25    26    1
    26    26    27   ar
    27    27    28   ar
    28    28    29   ar
    29    29    30   ar
    30    25    31   ar
    31    31    32   ar
    32    32    33   ar
    33    33    34   ar
    34    34    35    1
    35    35    36   ar
    36    36    37   ar
    37    37    38   ar
    38    38    39   ar
    39    39    40   ar
    40    19    41   ar
    41    41    42   ar
    42    14    43    1
    43    43    44    1
    44    10     2   ar
    45    44    11    1
    46     9     4   ar
    47    42    16   ar
    48    34    20   ar
    49    40    35   ar
    50    32    22   ar
    51    30    26   ar
    52     3    45    1
    53     5    46    1
    54     6    47    1
    55     7    48    1
    56     8    49    1
    57    11    50    1
    58    12    51    1
    59    12    52    1
    60    13    53    1
    61    13    54    1
    62    15    55    1
    63    15    56    1
    64    17    57    1
    65    18    58    1
    66    23    59    1
    67    24    60    1
    68    30    61    1
    69    31    62    1
    70    36    63    1
    71    37    64    1
    72    38    65    1
    73    39    66    1
    74    40    67    1
    75    41    68    1
    76    42    69    1
    77    43    70    1
    78    43    71    1
    79    44    72    1
    80    44    73    1
