@<TRIPOS>MOLECULE
*****
 59 62 0 0 0
SMALL
GASTEIGER

@<TRIPOS>ATOM
      1 C           5.8354   -2.4125    1.6627 C.3     1  UNL1       -0.0623
      2 C           4.5574   -2.0445    0.9344 C.3     1  UNL1       -0.0410
      3 C           3.4258   -2.0205    1.9107 C.3     1  UNL1       -0.0345
      4 C           2.2197   -1.4006    1.1861 C.3     1  UNL1        0.0150
      5 N           2.5498   -0.0152    0.8721 N.am    1  UNL1       -0.3001
      6 C           1.5478    0.9312    0.5968 C.2     1  UNL1        0.2343
      7 O           1.9250    2.1622    0.4871 O.2     1  UNL1       -0.2738
      8 C           0.1416    0.6653    0.4194 C.3     1  UNL1        0.1065
      9 C          -0.6002    1.6800   -0.4408 C.3     1  UNL1       -0.0094
     10 C          -0.6565    3.0567    0.1562 C.3     1  UNL1        0.0258
     11 N          -1.3766    3.9199   -0.7922 N.ar    1  UNL1       -0.3388
     12 C          -2.6854    4.0691   -0.9884 C.ar    1  UNL1        0.0058
     13 C          -2.9113    4.9921   -2.0166 C.ar    1  UNL1       -0.0429
     14 C          -1.6639    5.3924   -2.4305 C.ar    1  UNL1       -0.0262
     15 C          -0.7355    4.7158   -1.6573 C.ar    1  UNL1        0.1200
     16 C           0.6912    4.9216   -1.7671 C.1     1  UNL1        0.1173
     17 N           1.8450    5.0728   -1.8699 N.1     1  UNL1       -0.1893
     18 N          -0.3268   -0.6535    0.2519 N.3     1  UNL1       -0.1780
     19 S          -1.5062   -1.1779    1.3978 S.O2    1  UNL1        0.0597
     20 O          -1.6807   -0.1605    2.4916 O.2     1  UNL1       -0.1530
     21 O          -1.1243   -2.5069    2.0403 O.2     1  UNL1       -0.1530
     22 C          -2.9693   -1.4412    0.5329 C.ar    1  UNL1        0.1144
     23 C          -4.1482   -0.6829    0.7816 C.ar    1  UNL1       -0.0346
     24 C          -5.2476   -0.9665    0.0069 C.ar    1  UNL1       -0.0579
     25 C          -5.2766   -1.9130   -0.9666 C.ar    1  UNL1       -0.0377
     26 C          -4.1240   -2.6798   -1.2396 C.ar    1  UNL1        0.0483
     27 N          -3.8614   -3.6548   -2.0868 N.ar    1  UNL1       -0.3606
     28 C          -2.5522   -4.0620   -1.8989 C.ar    1  UNL1        0.0028
     29 C          -2.0554   -3.2830   -0.9036 C.ar    1  UNL1       -0.0348
     30 C          -3.0591   -2.3718   -0.4548 C.ar    1  UNL1        0.0260
     31 C           3.9463    0.3821    0.7711 C.3     1  UNL1        0.0150
     32 C           4.7671   -0.7511    0.1932 C.3     1  UNL1       -0.0345
     33 H           5.7869   -3.4343    2.1007 H       1  UNL1        0.0232
     34 H           6.7094   -2.4235    0.9794 H       1  UNL1        0.0232
     35 H           6.0637   -1.7053    2.5033 H       1  UNL1        0.0232
     36 H           4.3788   -2.8688    0.2015 H       1  UNL1        0.0299
     37 H           3.6871   -1.4204    2.8051 H       1  UNL1        0.0283
     38 H           3.1381   -3.0409    2.1845 H       1  UNL1        0.0283
     39 H           2.1130   -1.9464    0.2393 H       1  UNL1        0.0464
     40 H           1.3817   -1.5093    1.8709 H       1  UNL1        0.0464
     41 H          -0.3206    0.9626    1.4737 H       1  UNL1        0.0573
     42 H          -0.1873    1.7655   -1.4605 H       1  UNL1        0.0303
     43 H          -1.6777    1.3272   -0.4485 H       1  UNL1        0.0303
     44 H           0.2789    3.5291    0.4315 H       1  UNL1        0.0492
     45 H          -1.3464    2.9983    1.0639 H       1  UNL1        0.0492
     46 H          -3.4661    3.5390   -0.4261 H       1  UNL1        0.0809
     47 H          -3.8540    5.3157   -2.3945 H       1  UNL1        0.0633
     48 H          -1.4857    6.1045   -3.2081 H       1  UNL1        0.0646
     49 H          -0.6944   -0.7974   -0.7007 H       1  UNL1        0.1489
     50 H          -4.1714    0.0792    1.5370 H       1  UNL1        0.0637
     51 H          -6.1885   -0.4070    0.1600 H       1  UNL1        0.0619
     52 H          -6.1378   -2.1403   -1.5789 H       1  UNL1        0.0638
     53 H          -4.4716   -4.0834   -2.7886 H       1  UNL1        0.1653
     54 H          -2.0215   -4.8261   -2.4222 H       1  UNL1        0.0807
     55 H          -1.0698   -3.3058   -0.4756 H       1  UNL1        0.0639
     56 H           4.0049    1.2423    0.0833 H       1  UNL1        0.0464
     57 H           4.3346    0.6900    1.7524 H       1  UNL1        0.0464
     58 H           5.8329   -0.4859    0.2153 H       1  UNL1        0.0283
     59 H           4.4913   -0.9219   -0.8779 H       1  UNL1        0.0283
@<TRIPOS>BOND
     1     1     2    1
     2     2     3    1
     3     3     4    1
     4     4     5    1
     5     5     6   am
     6     6     7    2
     7     6     8    1
     8     8     9    1
     9     9    10    1
    10    10    11    1
    11    11    12   ar
    12    12    13   ar
    13    13    14   ar
    14    14    15   ar
    15    15    16    1
    16    16    17    3
    17     8    18    1
    18    18    19    1
    19    19    20    2
    20    19    21    2
    21    19    22    1
    22    22    23   ar
    23    23    24   ar
    24    24    25   ar
    25    25    26   ar
    26    26    27   ar
    27    27    28   ar
    28    28    29   ar
    29    29    30   ar
    30     5    31    1
    31    31    32    1
    32    32     2    1
    33    15    11   ar
    34    30    22   ar
    35    30    26   ar
    36     1    33    1
    37     1    34    1
    38     1    35    1
    39     2    36    1
    40     3    37    1
    41     3    38    1
    42     4    39    1
    43     4    40    1
    44     8    41    1
    45     9    42    1
    46     9    43    1
    47    10    44    1
    48    10    45    1
    49    12    46    1
    50    13    47    1
    51    14    48    1
    52    18    49    1
    53    23    50    1
    54    24    51    1
    55    25    52    1
    56    27    53    1
    57    28    54    1
    58    29    55    1
    59    31    56    1
    60    31    57    1
    61    32    58    1
    62    32    59    1
