@<TRIPOS>MOLECULE
*****
 38 39 0 0 0
SMALL
GASTEIGER

@<TRIPOS>ATOM
      1 C           3.9794    2.6155   -0.1114 C.3     1  UNL1       -0.0332
      2 C           3.9364    1.1394   -0.1748 C.ar    1  UNL1        0.0302
      3 C           2.7475    0.5085   -0.4088 C.ar    1  UNL1        0.0202
      4 N           2.7144   -0.8168   -0.4648 N.ar    1  UNL1       -0.2701
      5 C           1.5082   -1.5631   -0.7062 C.3     1  UNL1        0.1592
      6 O           0.4064   -0.7690   -0.3867 O.3     1  UNL1       -0.3433
      7 C          -0.6515   -1.6538   -0.1650 C.3     1  UNL1        0.1036
      8 C          -1.7179   -0.9823    0.6354 C.3     1  UNL1        0.0889
      9 O          -2.1503    0.1045   -0.0842 O.3     1  UNL1       -0.2835
     10 P          -3.3537    0.9974    0.6463 P.3     1  UNL1        0.4835
     11 O          -4.7469    0.1265    0.9688 O.3     1  UNL1       -0.3022
     12 O          -2.7869    1.6328    1.8954 O.2     1  UNL1       -0.2269
     13 O          -3.7812    2.2527   -0.4074 O.3     1  UNL1       -0.1862
     14 P          -5.4195    2.2228   -0.8098 P.3     1  UNL1        0.4808
     15 O          -5.8355    0.8933   -1.7534 O.3     1  UNL1       -0.3023
     16 O          -6.3267    2.2565    0.5928 O.3     1  UNL1       -0.3023
     17 O          -5.6955    3.4802   -1.6081 O.2     1  UNL1       -0.2271
     18 C           0.0695   -2.7167    0.5851 C.2     1  UNL1       -0.0531
     19 C           1.3816   -2.6949    0.2846 C.2     1  UNL1       -0.0363
     20 C           3.8569   -1.5342   -0.2900 C.ar    1  UNL1        0.3316
     21 O           3.9259   -2.8072   -0.3259 O.2     1  UNL1       -0.2464
     22 N           5.0479   -0.9484   -0.0573 N.ar    1  UNL1       -0.2746
     23 C           5.0784    0.3929   -0.0012 C.ar    1  UNL1        0.2568
     24 O           6.1637    1.0110    0.2140 O.2     1  UNL1       -0.2674
     25 H           5.0174    2.9316   -0.3546 H       1  UNL1        0.0280
     26 H           3.2443    3.0602   -0.8067 H       1  UNL1        0.0280
     27 H           3.7229    2.9737    0.9170 H       1  UNL1        0.0280
     28 H           1.8193    1.0490   -0.5524 H       1  UNL1        0.0816
     29 H           1.3964   -1.9204   -1.7448 H       1  UNL1        0.0887
     30 H          -1.0452   -2.0334   -1.1134 H       1  UNL1        0.0664
     31 H          -1.3061   -0.6109    1.5960 H       1  UNL1        0.0595
     32 H          -2.5149   -1.7097    0.8807 H       1  UNL1        0.0595
     33 H          -4.6386   -0.8513    0.9080 H       1  UNL1        0.2220
     34 H          -5.6312    0.0433   -1.3128 H       1  UNL1        0.2220
     35 H          -5.7818    2.1775    1.4002 H       1  UNL1        0.2220
     36 H          -0.5471   -3.3288    1.2386 H       1  UNL1        0.0597
     37 H           1.9771   -3.4472    0.7972 H       1  UNL1        0.0614
     38 H           5.9368   -1.4812    0.0796 H       1  UNL1        0.1734
@<TRIPOS>BOND
     1     1     2    1
     2     2     3   ar
     3     3     4   ar
     4     4     5    1
     5     5     6    1
     6     6     7    1
     7     7     8    1
     8     8     9    1
     9    10     9    1
    10    10    11    1
    11    10    12    2
    12    10    13    1
    13    13    14    1
    14    14    15    1
    15    14    16    1
    16    14    17    2
    17     7    18    1
    18    18    19    2
    19     4    20   ar
    20    20    21    2
    21    20    22   ar
    22    22    23   ar
    23    23    24    2
    24    23     2   ar
    25    19     5    1
    26     1    25    1
    27     1    26    1
    28     1    27    1
    29     3    28    1
    30     5    29    1
    31     7    30    1
    32     8    31    1
    33     8    32    1
    34    11    33    1
    35    15    34    1
    36    16    35    1
    37    18    36    1
    38    19    37    1
    39    22    38    1
