
     RDKit          3D

 36 38  0  0  0  0  0  0  0  0999 V2000
   -5.6060    1.4741    0.3213 C   0  0  0  0  0  0  0  0  0  0  0  0
   -4.7919    0.3348    0.2562 O   0  0  0  0  0  0  0  0  0  0  0  0
   -3.3951    0.4034    0.1935 C   0  0  0  0  0  0  0  0  0  0  0  0
   -2.7696    1.6322    0.1937 C   0  0  0  0  0  0  0  0  0  0  0  0
   -1.3735    1.7072    0.1314 C   0  0  0  0  0  0  0  0  0  0  0  0
   -0.7884    2.9207    0.1321 N   0  0  0  0  0  0  0  0  0  0  0  0
    0.5440    3.0299    0.0726 C   0  0  0  0  0  0  0  0  0  0  0  0
    1.3136    1.9507    0.0124 N   0  0  0  0  0  0  0  0  0  0  0  0
    0.7855    0.7154    0.0085 C   0  0  0  0  0  0  0  0  0  0  0  0
    1.5777   -0.4470   -0.0563 N   0  0  0  0  0  0  0  0  0  0  0  0
    2.9983   -0.4825   -0.0882 C   0  0  0  0  0  0  0  0  0  0  0  0
    3.6511   -1.6631   -0.5020 C   0  0  0  0  0  0  0  0  0  0  0  0
    5.0242   -1.7585   -0.5437 C   0  0  0  0  0  0  0  0  0  0  0  0
    5.8156   -0.6977   -0.1807 C   0  0  0  0  0  0  0  0  0  0  0  0
    5.2012    0.4523    0.2224 C   0  0  0  0  0  0  0  0  0  0  0  0
    6.2463    1.9654    0.7381 Br  0  0  0  0  0  0  0  0  0  0  0  0
    3.8205    0.5493    0.2653 C   0  0  0  0  0  0  0  0  0  0  0  0
   -0.5990    0.5644    0.0692 C   0  0  0  0  0  0  0  0  0  0  0  0
   -1.2468   -0.6427    0.0706 C   0  0  0  0  0  0  0  0  0  0  0  0
   -2.6443   -0.7477    0.1321 C   0  0  0  0  0  0  0  0  0  0  0  0
   -3.2963   -1.9648    0.1327 O   0  0  0  0  0  0  0  0  0  0  0  0
   -2.6090   -3.1954    0.0710 C   0  0  0  0  0  0  0  0  0  0  0  0
   -5.5405    1.9726   -0.6807 H   0  0  0  0  0  0  0  0  0  0  0  0
   -6.6635    1.1748    0.4834 H   0  0  0  0  0  0  0  0  0  0  0  0
   -5.3052    2.1976    1.0872 H   0  0  0  0  0  0  0  0  0  0  0  0
   -3.3765    2.5228    0.2414 H   0  0  0  0  0  0  0  0  0  0  0  0
    0.9561    4.0454    0.0767 H   0  0  0  0  0  0  0  0  0  0  0  0
    1.1367   -1.4141   -0.0855 H   0  0  0  0  0  0  0  0  0  0  0  0
    3.0762   -2.5161   -0.7937 H   0  0  0  0  0  0  0  0  0  0  0  0
    5.5315   -2.6714   -0.8634 H   0  0  0  0  0  0  0  0  0  0  0  0
    6.9078   -0.7458   -0.2054 H   0  0  0  0  0  0  0  0  0  0  0  0
    3.4192    1.4799    0.6026 H   0  0  0  0  0  0  0  0  0  0  0  0
   -0.6855   -1.5596    0.0244 H   0  0  0  0  0  0  0  0  0  0  0  0
   -1.8900   -3.2225    0.9240 H   0  0  0  0  0  0  0  0  0  0  0  0
   -2.0807   -3.3433   -0.8771 H   0  0  0  0  0  0  0  0  0  0  0  0
   -3.3438   -4.0212    0.2366 H   0  0  0  0  0  0  0  0  0  0  0  0
  1  2  1  0
  2  3  1  0
  3  4  2  0
  4  5  1  0
  5  6  2  0
  6  7  1  0
  7  8  2  0
  8  9  1  0
  9 10  1  0
 10 11  1  0
 11 12  2  0
 12 13  1  0
 13 14  2  0
 14 15  1  0
 15 16  1  0
 15 17  2  0
  9 18  2  0
 18 19  1  0
 19 20  2  0
 20 21  1  0
 21 22  1  0
 20  3  1  0
 18  5  1  0
 17 11  1  0
  1 23  1  0
  1 24  1  0
  1 25  1  0
  4 26  1  0
  7 27  1  0
 10 28  1  0
 12 29  1  0
 13 30  1  0
 14 31  1  0
 17 32  1  0
 19 33  1  0
 22 34  1  0
 22 35  1  0
 22 36  1  0
M  END
$$$$
