@<TRIPOS>MOLECULE
*****
 36 38 0 0 0
SMALL
GASTEIGER

@<TRIPOS>ATOM
      1 C          -5.6060    1.4741    0.3213 C.3     1  UNL1        0.0790
      2 O          -4.7919    0.3348    0.2562 O.3     1  UNL1       -0.4914
      3 C          -3.3951    0.4034    0.1935 C.ar    1  UNL1        0.1635
      4 C          -2.7696    1.6322    0.1937 C.ar    1  UNL1        0.0098
      5 C          -1.3735    1.7072    0.1314 C.ar    1  UNL1        0.0797
      6 N          -0.7884    2.9207    0.1321 N.ar    1  UNL1       -0.2352
      7 C           0.5440    3.0299    0.0726 C.ar    1  UNL1        0.1187
      8 N           1.3136    1.9507    0.0124 N.ar    1  UNL1       -0.2200
      9 C           0.7855    0.7154    0.0085 C.ar    1  UNL1        0.1340
     10 N           1.5777   -0.4470   -0.0563 N.pl3   1  UNL1       -0.2988
     11 C           2.9983   -0.4825   -0.0882 C.ar    1  UNL1        0.0334
     12 C           3.6511   -1.6631   -0.5020 C.ar    1  UNL1       -0.0404
     13 C           5.0242   -1.7585   -0.5437 C.ar    1  UNL1       -0.0590
     14 C           5.8156   -0.6977   -0.1807 C.ar    1  UNL1       -0.0476
     15 C           5.2012    0.4523    0.2224 C.ar    1  UNL1        0.0196
     16 BR          6.2463    1.9654    0.7381 Br      1  UNL1       -0.0502
     17 C           3.8205    0.5493    0.2653 C.ar    1  UNL1       -0.0265
     18 C          -0.5990    0.5644    0.0692 C.ar    1  UNL1        0.0441
     19 C          -1.2468   -0.6427    0.0706 C.ar    1  UNL1       -0.0038
     20 C          -2.6443   -0.7477    0.1321 C.ar    1  UNL1        0.1623
     21 O          -3.2963   -1.9648    0.1327 O.3     1  UNL1       -0.4914
     22 C          -2.6090   -3.1954    0.0710 C.3     1  UNL1        0.0790
     23 H          -5.5405    1.9726   -0.6807 H       1  UNL1        0.0660
     24 H          -6.6635    1.1748    0.4834 H       1  UNL1        0.0660
     25 H          -5.3052    2.1976    1.0872 H       1  UNL1        0.0660
     26 H          -3.3765    2.5228    0.2414 H       1  UNL1        0.0677
     27 H           0.9561    4.0454    0.0767 H       1  UNL1        0.1048
     28 H           1.1367   -1.4141   -0.0855 H       1  UNL1        0.1536
     29 H           3.0762   -2.5161   -0.7937 H       1  UNL1        0.0636
     30 H           5.5315   -2.6714   -0.8634 H       1  UNL1        0.0618
     31 H           6.9078   -0.7458   -0.2054 H       1  UNL1        0.0629
     32 H           3.4192    1.4799    0.6026 H       1  UNL1        0.0647
     33 H          -0.6855   -1.5596    0.0244 H       1  UNL1        0.0663
     34 H          -1.8900   -3.2225    0.9240 H       1  UNL1        0.0660
     35 H          -2.0807   -3.3433   -0.8771 H       1  UNL1        0.0660
     36 H          -3.3438   -4.0212    0.2366 H       1  UNL1        0.0660
@<TRIPOS>BOND
     1     1     2    1
     2     2     3    1
     3     3     4   ar
     4     4     5   ar
     5     5     6   ar
     6     6     7   ar
     7     7     8   ar
     8     8     9   ar
     9     9    10    1
    10    10    11    1
    11    11    12   ar
    12    12    13   ar
    13    13    14   ar
    14    14    15   ar
    15    15    16    1
    16    15    17   ar
    17     9    18   ar
    18    18    19   ar
    19    19    20   ar
    20    20    21    1
    21    21    22    1
    22    20     3   ar
    23    18     5   ar
    24    17    11   ar
    25     1    23    1
    26     1    24    1
    27     1    25    1
    28     4    26    1
    29     7    27    1
    30    10    28    1
    31    12    29    1
    32    13    30    1
    33    14    31    1
    34    17    32    1
    35    19    33    1
    36    22    34    1
    37    22    35    1
    38    22    36    1
