
     RDKit          3D

 33 35  0  0  0  0  0  0  0  0999 V2000
    6.3658   -0.4687   -0.7400 C   0  0  0  0  0  0  0  0  0  0  0  0
    5.2082   -0.7591   -1.4603 O   0  0  0  0  0  0  0  0  0  0  0  0
    3.9208   -0.5298   -0.9932 C   0  0  0  0  0  0  0  0  0  0  0  0
    3.6632    0.0141    0.2437 C   0  0  0  0  0  0  0  0  0  0  0  0
    2.3469    0.2314    0.6818 C   0  0  0  0  0  0  0  0  0  0  0  0
    1.2649   -0.0837   -0.0918 C   0  0  0  0  0  0  0  0  0  0  0  0
   -0.1319    0.1078    0.2834 C   0  0  0  0  0  0  0  0  0  0  0  0
   -0.4605    0.6455    1.5029 C   0  0  0  0  0  0  0  0  0  0  0  0
   -1.7916    0.8424    1.8936 C   0  0  0  0  0  0  0  0  0  0  0  0
   -2.0409    1.3395    3.0234 O   0  0  0  0  0  0  0  0  0  0  0  0
   -2.7599    0.4704    0.9948 C   0  0  0  0  0  0  0  0  0  0  0  0
   -4.0933    0.6484    1.3419 C   0  0  0  0  0  0  0  0  0  0  0  0
   -4.3829    1.1928    2.5784 O   0  0  0  0  0  0  0  0  0  0  0  0
   -5.0467    0.2711    0.4316 C   0  0  0  0  0  0  0  0  0  0  0  0
   -4.7069   -0.2677   -0.7899 C   0  0  0  0  0  0  0  0  0  0  0  0
   -5.7097   -0.6485   -1.7105 O   0  0  0  0  0  0  0  0  0  0  0  0
   -3.3776   -0.4290   -1.0989 C   0  0  0  0  0  0  0  0  0  0  0  0
   -2.3566   -0.0628   -0.2110 C   0  0  0  0  0  0  0  0  0  0  0  0
   -1.1038   -0.2356   -0.5499 O   0  0  0  0  0  0  0  0  0  0  0  0
    1.5348   -0.6382   -1.3524 C   0  0  0  0  0  0  0  0  0  0  0  0
    2.8299   -0.8477   -1.7735 C   0  0  0  0  0  0  0  0  0  0  0  0
    6.6962   -1.2849   -0.0659 H   0  0  0  0  0  0  0  0  0  0  0  0
    7.1672   -0.2187   -1.4802 H   0  0  0  0  0  0  0  0  0  0  0  0
    6.2081    0.4596   -0.1527 H   0  0  0  0  0  0  0  0  0  0  0  0
    4.4701    0.2841    0.9007 H   0  0  0  0  0  0  0  0  0  0  0  0
    2.1738    0.6628    1.6642 H   0  0  0  0  0  0  0  0  0  0  0  0
    0.3204    0.9317    2.1960 H   0  0  0  0  0  0  0  0  0  0  0  0
   -4.2868    2.2120    2.6554 H   0  0  0  0  0  0  0  0  0  0  0  0
   -6.0834    0.4103    0.7032 H   0  0  0  0  0  0  0  0  0  0  0  0
   -6.4742   -1.2217   -1.3458 H   0  0  0  0  0  0  0  0  0  0  0  0
   -3.0705   -0.8546   -2.0619 H   0  0  0  0  0  0  0  0  0  0  0  0
    0.6811   -0.8959   -1.9834 H   0  0  0  0  0  0  0  0  0  0  0  0
    3.0260   -1.2775   -2.7514 H   0  0  0  0  0  0  0  0  0  0  0  0
  1  2  1  0
  2  3  1  0
  3  4  2  0
  4  5  1  0
  5  6  2  0
  6  7  1  0
  7  8  2  0
  8  9  1  0
  9 10  2  0
  9 11  1  0
 11 12  2  0
 12 13  1  0
 12 14  1  0
 14 15  2  0
 15 16  1  0
 15 17  1  0
 17 18  2  0
 18 19  1  0
  6 20  1  0
 20 21  2  0
 21  3  1  0
 19  7  1  0
 18 11  1  0
  1 22  1  0
  1 23  1  0
  1 24  1  0
  4 25  1  0
  5 26  1  0
  8 27  1  0
 13 28  1  0
 14 29  1  0
 16 30  1  0
 17 31  1  0
 20 32  1  0
 21 33  1  0
M  END
$$$$
