@<TRIPOS>MOLECULE
*****
 33 35 0 0 0
SMALL
GASTEIGER

@<TRIPOS>ATOM
      1 C           6.3658   -0.4687   -0.7400 C.3     1  UNL1        0.0788
      2 O           5.2082   -0.7591   -1.4603 O.3     1  UNL1       -0.4951
      3 C           3.9208   -0.5298   -0.9932 C.ar    1  UNL1        0.1201
      4 C           3.6632    0.0141    0.2437 C.ar    1  UNL1       -0.0193
      5 C           2.3469    0.2314    0.6818 C.ar    1  UNL1       -0.0476
      6 C           1.2649   -0.0837   -0.0918 C.ar    1  UNL1        0.0176
      7 C          -0.1319    0.1078    0.2834 C.ar    1  UNL1        0.1392
      8 C          -0.4605    0.6455    1.5029 C.ar    1  UNL1        0.0288
      9 C          -1.7916    0.8424    1.8936 C.ar    1  UNL1        0.1966
     10 O          -2.0409    1.3395    3.0234 O.2     1  UNL1       -0.2869
     11 C          -2.7599    0.4704    0.9948 C.ar    1  UNL1        0.1055
     12 C          -4.0933    0.6484    1.3419 C.ar    1  UNL1        0.1347
     13 O          -4.3829    1.1928    2.5784 O.3     1  UNL1       -0.5058
     14 C          -5.0467    0.2711    0.4316 C.ar    1  UNL1        0.0223
     15 C          -4.7069   -0.2677   -0.7899 C.ar    1  UNL1        0.1239
     16 O          -5.7097   -0.6485   -1.7105 O.3     1  UNL1       -0.5065
     17 C          -3.3776   -0.4290   -1.0989 C.ar    1  UNL1        0.0231
     18 C          -2.3566   -0.0628   -0.2110 C.ar    1  UNL1        0.1462
     19 O          -1.1038   -0.2356   -0.5499 O.2     1  UNL1       -0.4544
     20 C           1.5348   -0.6382   -1.3524 C.ar    1  UNL1       -0.0476
     21 C           2.8299   -0.8477   -1.7735 C.ar    1  UNL1       -0.0193
     22 H           6.6962   -1.2849   -0.0659 H       1  UNL1        0.0660
     23 H           7.1672   -0.2187   -1.4802 H       1  UNL1        0.0660
     24 H           6.2081    0.4596   -0.1527 H       1  UNL1        0.0660
     25 H           4.4701    0.2841    0.9007 H       1  UNL1        0.0654
     26 H           2.1738    0.6628    1.6642 H       1  UNL1        0.0626
     27 H           0.3204    0.9317    2.1960 H       1  UNL1        0.0693
     28 H          -4.2868    2.2120    2.6554 H       1  UNL1        0.2922
     29 H          -6.0834    0.4103    0.7032 H       1  UNL1        0.0691
     30 H          -6.4742   -1.2217   -1.3458 H       1  UNL1        0.2921
     31 H          -3.0705   -0.8546   -2.0619 H       1  UNL1        0.0691
     32 H           0.6811   -0.8959   -1.9834 H       1  UNL1        0.0626
     33 H           3.0260   -1.2775   -2.7514 H       1  UNL1        0.0654
@<TRIPOS>BOND
     1     1     2    1
     2     2     3    1
     3     3     4   ar
     4     4     5   ar
     5     5     6   ar
     6     6     7    1
     7     7     8   ar
     8     8     9   ar
     9     9    10    2
    10     9    11   ar
    11    11    12   ar
    12    12    13    1
    13    12    14   ar
    14    14    15   ar
    15    15    16    1
    16    15    17   ar
    17    17    18   ar
    18    18    19   ar
    19     6    20   ar
    20    20    21   ar
    21    21     3   ar
    22    19     7   ar
    23    18    11   ar
    24     1    22    1
    25     1    23    1
    26     1    24    1
    27     4    25    1
    28     5    26    1
    29     8    27    1
    30    13    28    1
    31    14    29    1
    32    16    30    1
    33    17    31    1
    34    20    32    1
    35    21    33    1
