@<TRIPOS>MOLECULE
*****
 57 61 0 0 0
SMALL
GASTEIGER

@<TRIPOS>ATOM
      1 C          -4.2832   -0.5956   -0.3437 C.3     1  UNL1       -0.0548
      2 C          -3.0686   -0.0287    0.4223 C.3     1  UNL1        0.0203
      3 C          -3.1117   -0.6920    1.7781 C.3     1  UNL1       -0.0548
      4 C          -3.2744    1.4563    0.4960 C.3     1  UNL1        0.0630
      5 O          -4.4010    1.8665   -0.2621 O.3     1  UNL1       -0.3912
      6 C          -2.1328    2.3272    0.2089 C.3     1  UNL1       -0.0256
      7 C          -0.9915    1.7736   -0.5576 C.3     1  UNL1       -0.0418
      8 C          -0.6445    0.3508   -0.0751 C.3     1  UNL1        0.0084
      9 C          -0.3998    0.5252    1.3853 C.3     1  UNL1       -0.0561
     10 C           0.5444   -0.2093   -0.7500 C.3     1  UNL1        0.0194
     11 C           0.5916   -0.0518   -2.2351 C.3     1  UNL1       -0.0533
     12 C           1.8622    0.2630   -0.2340 C.ar    1  UNL1        0.0271
     13 N           2.5486    1.3220    0.2265 N.ar    1  UNL1       -0.3572
     14 C           3.8089    0.9717    0.5301 C.ar    1  UNL1        0.0469
     15 C           4.8756    1.6833    1.0255 C.ar    1  UNL1       -0.0378
     16 C           6.0947    1.0537    1.2503 C.ar    1  UNL1       -0.0598
     17 C           6.2523   -0.2901    0.9807 C.ar    1  UNL1       -0.0611
     18 C           5.1708   -0.9867    0.4843 C.ar    1  UNL1       -0.0523
     19 C           3.9331   -0.3656    0.2517 C.ar    1  UNL1        0.0031
     20 C           2.7254   -0.8081   -0.2232 C.ar    1  UNL1       -0.0183
     21 C           2.0124   -2.0288   -0.7348 C.3     1  UNL1       -0.0217
     22 C           0.6261   -1.6819   -0.3718 C.3     1  UNL1       -0.0255
     23 C          -0.4669   -2.4042   -1.0700 C.3     1  UNL1       -0.0464
     24 C          -1.7659   -1.9013   -0.4651 C.3     1  UNL1       -0.0226
     25 C          -1.8802   -0.4344   -0.4138 C.3     1  UNL1        0.0797
     26 O          -2.2427   -0.0171   -1.7252 O.3     1  UNL1       -0.3874
     27 H          -5.1457    0.0941   -0.2176 H       1  UNL1        0.0237
     28 H          -4.0586   -0.8302   -1.3803 H       1  UNL1        0.0237
     29 H          -4.6249   -1.5630    0.1213 H       1  UNL1        0.0237
     30 H          -3.9371   -1.4611    1.8648 H       1  UNL1        0.0237
     31 H          -3.3843    0.0406    2.5952 H       1  UNL1        0.0237
     32 H          -2.2113   -1.2204    2.0744 H       1  UNL1        0.0237
     33 H          -3.6081    1.6621    1.5606 H       1  UNL1        0.0599
     34 H          -4.2790    2.7918   -0.5873 H       1  UNL1        0.2098
     35 H          -2.4925    3.2334   -0.3708 H       1  UNL1        0.0290
     36 H          -1.7190    2.8080    1.1479 H       1  UNL1        0.0290
     37 H          -0.0865    2.3742   -0.3351 H       1  UNL1        0.0272
     38 H          -1.0997    1.8059   -1.6598 H       1  UNL1        0.0272
     39 H          -1.2910    0.9755    1.9180 H       1  UNL1        0.0236
     40 H           0.0019   -0.3190    1.9325 H       1  UNL1        0.0236
     41 H           0.3622    1.3449    1.4923 H       1  UNL1        0.0236
     42 H           0.6200    1.0512   -2.4521 H       1  UNL1        0.0239
     43 H          -0.2309   -0.4744   -2.8020 H       1  UNL1        0.0239
     44 H           1.5801   -0.4303   -2.5792 H       1  UNL1        0.0239
     45 H           2.1844    2.3194    0.3457 H       1  UNL1        0.1656
     46 H           4.7494    2.7287    1.2342 H       1  UNL1        0.0638
     47 H           6.9151    1.6191    1.6356 H       1  UNL1        0.0618
     48 H           7.2155   -0.7604    1.1647 H       1  UNL1        0.0618
     49 H           5.2829   -2.0358    0.2704 H       1  UNL1        0.0624
     50 H           2.3237   -2.9323   -0.1603 H       1  UNL1        0.0317
     51 H           2.2135   -2.2231   -1.7842 H       1  UNL1        0.0317
     52 H           0.5006   -1.8505    0.7101 H       1  UNL1        0.0313
     53 H          -0.4496   -2.3896   -2.1551 H       1  UNL1        0.0269
     54 H          -0.3772   -3.4939   -0.7803 H       1  UNL1        0.0269
     55 H          -1.9191   -2.4433    0.4773 H       1  UNL1        0.0293
     56 H          -2.5735   -2.2860   -1.1565 H       1  UNL1        0.0293
     57 H          -2.8443    0.7668   -1.7027 H       1  UNL1        0.2102
@<TRIPOS>BOND
     1     1     2    1
     2     2     3    1
     3     2     4    1
     4     4     5    1
     5     4     6    1
     6     6     7    1
     7     7     8    1
     8     8     9    1
     9     8    10    1
    10    10    11    1
    11    10    12    1
    12    12    13   ar
    13    13    14   ar
    14    14    15   ar
    15    15    16   ar
    16    16    17   ar
    17    17    18   ar
    18    18    19   ar
    19    19    20   ar
    20    20    21    1
    21    21    22    1
    22    22    23    1
    23    23    24    1
    24    24    25    1
    25    25    26    1
    26    25     2    1
    27    25     8    1
    28    22    10    1
    29    20    12   ar
    30    19    14   ar
    31     1    27    1
    32     1    28    1
    33     1    29    1
    34     3    30    1
    35     3    31    1
    36     3    32    1
    37     4    33    1
    38     5    34    1
    39     6    35    1
    40     6    36    1
    41     7    37    1
    42     7    38    1
    43     9    39    1
    44     9    40    1
    45     9    41    1
    46    11    42    1
    47    11    43    1
    48    11    44    1
    49    13    45    1
    50    15    46    1
    51    16    47    1
    52    17    48    1
    53    18    49    1
    54    21    50    1
    55    21    51    1
    56    22    52    1
    57    23    53    1
    58    23    54    1
    59    24    55    1
    60    24    56    1
    61    26    57    1
