@<TRIPOS>MOLECULE
*****
 62 63 0 0 0
SMALL
GASTEIGER

@<TRIPOS>ATOM
      1 O           4.1025   -1.1214    0.8677 O.2     1  UNL1       -0.2241
      2 C           4.1610   -0.5295   -0.2180 C.2     1  UNL1        0.4260
      3 N           3.1029    0.3525   -0.5854 N.am    1  UNL1       -0.2794
      4 C           1.9653    0.5921    0.2430 C.3     1  UNL1        0.0148
      5 C           1.0423    1.5700   -0.4372 C.3     1  UNL1       -0.0373
      6 C           0.5207    1.1404   -1.7445 C.3     1  UNL1       -0.0516
      7 C          -0.2205   -0.1101   -1.9053 C.3     1  UNL1       -0.0516
      8 C          -1.4898   -0.3251   -1.1670 C.3     1  UNL1       -0.0373
      9 C          -1.4332   -0.3827    0.3218 C.3     1  UNL1        0.0148
     10 N          -2.7472   -0.6329    0.9128 N.am    1  UNL1       -0.2794
     11 C          -3.8286    0.2518    0.7483 C.2     1  UNL1        0.4260
     12 O          -3.6700    1.2990    0.0765 O.2     1  UNL1       -0.2241
     13 O          -5.0873    0.0123    1.3072 O.3     1  UNL1       -0.2992
     14 N          -6.0884    0.9285    1.0974 N.2     1  UNL1       -0.0821
     15 C          -7.1153    0.6861    0.3760 C.2     1  UNL1        0.0584
     16 C          -8.1703    1.6855    0.1694 C.3     1  UNL1       -0.0112
     17 C          -9.5609    1.1005    0.2615 C.3     1  UNL1       -0.0478
     18 C          -9.6476   -0.2619   -0.3874 C.3     1  UNL1       -0.0524
     19 C          -8.5980   -1.2059    0.1501 C.3     1  UNL1       -0.0478
     20 C          -7.2428   -0.6422   -0.2694 C.3     1  UNL1       -0.0112
     21 O           5.2271   -0.7197   -1.0536 O.3     1  UNL1       -0.2992
     22 N           6.2442   -1.5703   -0.6957 N.2     1  UNL1       -0.0821
     23 C           7.0867   -1.2193    0.2026 C.2     1  UNL1        0.0584
     24 C           6.9685    0.0999    0.8569 C.3     1  UNL1       -0.0112
     25 C           8.2813    0.7843    1.0740 C.3     1  UNL1       -0.0478
     26 C           9.4269    0.0312    0.4810 C.3     1  UNL1       -0.0524
     27 C           9.4481   -1.4117    0.9384 C.3     1  UNL1       -0.0478
     28 C           8.1684   -2.1306    0.5792 C.3     1  UNL1       -0.0112
     29 H           3.1791    0.8339   -1.4995 H       1  UNL1        0.1521
     30 H           1.4593   -0.3280    0.5840 H       1  UNL1        0.0463
     31 H           2.3259    1.0982    1.1810 H       1  UNL1        0.0463
     32 H           1.7913    2.4380   -0.7125 H       1  UNL1        0.0280
     33 H           0.3651    2.1272    0.2295 H       1  UNL1        0.0280
     34 H          -0.1831    1.9814   -2.0848 H       1  UNL1        0.0266
     35 H           1.3622    1.2429   -2.4940 H       1  UNL1        0.0266
     36 H          -0.4956   -0.1728   -3.0222 H       1  UNL1        0.0266
     37 H           0.4457   -1.0281   -1.8096 H       1  UNL1        0.0266
     38 H          -1.9727   -1.3124   -1.4828 H       1  UNL1        0.0280
     39 H          -2.2696    0.4428   -1.4779 H       1  UNL1        0.0280
     40 H          -0.7762   -1.2607    0.6176 H       1  UNL1        0.0463
     41 H          -1.0138    0.5474    0.7201 H       1  UNL1        0.0463
     42 H          -2.9100   -1.5038    1.4874 H       1  UNL1        0.1521
     43 H          -8.1036    2.4895    0.9128 H       1  UNL1        0.0326
     44 H          -8.0077    2.1348   -0.8384 H       1  UNL1        0.0326
     45 H          -9.8856    1.1025    1.3093 H       1  UNL1        0.0269
     46 H         -10.2406    1.7752   -0.3026 H       1  UNL1        0.0269
     47 H          -9.5126   -0.1431   -1.4738 H       1  UNL1        0.0265
     48 H         -10.6431   -0.6744   -0.1525 H       1  UNL1        0.0265
     49 H          -8.5986   -1.1988    1.2638 H       1  UNL1        0.0269
     50 H          -8.7749   -2.2029   -0.2743 H       1  UNL1        0.0269
     51 H          -7.2778   -0.4665   -1.3702 H       1  UNL1        0.0326
     52 H          -6.4229   -1.3264    0.0286 H       1  UNL1        0.0326
     53 H           6.5394   -0.1015    1.8821 H       1  UNL1        0.0326
     54 H           6.2154    0.7497    0.3623 H       1  UNL1        0.0326
     55 H           8.5004    0.9802    2.1451 H       1  UNL1        0.0269
     56 H           8.2216    1.7827    0.5902 H       1  UNL1        0.0269
     57 H          10.3639    0.5099    0.8291 H       1  UNL1        0.0265
     58 H           9.3975    0.0569   -0.6335 H       1  UNL1        0.0265
     59 H          10.3498   -1.9109    0.5514 H       1  UNL1        0.0269
     60 H           9.5083   -1.3962    2.0529 H       1  UNL1        0.0269
     61 H           7.8064   -2.7749    1.4158 H       1  UNL1        0.0326
     62 H           8.4111   -2.7626   -0.3156 H       1  UNL1        0.0326
@<TRIPOS>BOND
     1     1     2    2
     2     2     3   am
     3     3     4    1
     4     4     5    1
     5     5     6    1
     6     6     7    1
     7     7     8    1
     8     8     9    1
     9     9    10    1
    10    10    11   am
    11    11    12    2
    12    11    13    1
    13    13    14    1
    14    14    15    2
    15    15    16    1
    16    16    17    1
    17    17    18    1
    18    18    19    1
    19    19    20    1
    20     2    21    1
    21    21    22    1
    22    22    23    2
    23    23    24    1
    24    24    25    1
    25    25    26    1
    26    26    27    1
    27    27    28    1
    28    20    15    1
    29    28    23    1
    30     3    29    1
    31     4    30    1
    32     4    31    1
    33     5    32    1
    34     5    33    1
    35     6    34    1
    36     6    35    1
    37     7    36    1
    38     7    37    1
    39     8    38    1
    40     8    39    1
    41     9    40    1
    42     9    41    1
    43    10    42    1
    44    16    43    1
    45    16    44    1
    46    17    45    1
    47    17    46    1
    48    18    47    1
    49    18    48    1
    50    19    49    1
    51    19    50    1
    52    20    51    1
    53    20    52    1
    54    24    53    1
    55    24    54    1
    56    25    55    1
    57    25    56    1
    58    26    57    1
    59    26    58    1
    60    27    59    1
    61    27    60    1
    62    28    61    1
    63    28    62    1
