
     RDKit          3D

 44 45  0  0  0  0  0  0  0  0999 V2000
   -1.2084   -3.5476   -0.7143 C   0  0  0  0  0  0  0  0  0  0  0  0
   -0.8906   -2.0967   -0.7603 C   0  0  0  0  0  0  0  0  0  0  0  0
    0.3726   -1.6462   -1.0764 C   0  0  0  0  0  0  0  0  0  0  0  0
    0.6848   -0.3008   -1.1250 C   0  0  0  0  0  0  0  0  0  0  0  0
    2.0905    0.0350   -1.4718 C   0  0  0  0  0  0  0  0  0  0  0  0
    2.9966   -0.0447   -0.3246 C   0  0  0  0  0  0  0  0  0  0  0  0
    3.7952   -1.1648   -0.1440 C   0  0  0  0  0  0  0  0  0  0  0  0
    4.6061   -1.2284    0.9408 N   0  0  0  0  0  0  0  0  0  0  0  0
    4.6792   -0.2516    1.8634 C   0  0  0  0  0  0  0  0  0  0  0  0
    5.5560   -0.3851    2.9895 N   0  0  0  0  0  0  0  0  0  0  0  0
    3.9058    0.8371    1.6903 N   0  0  0  0  0  0  0  0  0  0  0  0
    3.0696    0.9550    0.6146 C   0  0  0  0  0  0  0  0  0  0  0  0
    2.2820    2.1284    0.4559 N   0  0  0  0  0  0  0  0  0  0  0  0
   -0.2998    0.6150   -0.8495 C   0  0  0  0  0  0  0  0  0  0  0  0
   -1.5974    0.1794   -0.5234 C   0  0  0  0  0  0  0  0  0  0  0  0
   -2.5920    1.2020   -0.2143 C   0  0  0  0  0  0  0  0  0  0  0  0
   -1.9866    2.5974   -0.3697 C   0  0  0  0  0  0  0  0  0  0  0  0
   -3.8747    1.1326   -0.9675 C   0  0  0  0  0  0  0  0  0  0  0  0
   -2.9332    1.1108    1.2847 C   0  0  0  0  0  0  0  0  0  0  0  0
   -1.8959   -1.1600   -0.4776 C   0  0  0  0  0  0  0  0  0  0  0  0
   -3.2008   -1.5745   -0.1569 N   0  0  0  0  0  0  0  0  0  0  0  0
   -1.1996   -3.9330   -1.7547 H   0  0  0  0  0  0  0  0  0  0  0  0
   -0.3470   -4.0629   -0.2063 H   0  0  0  0  0  0  0  0  0  0  0  0
   -2.1537   -3.7216   -0.1814 H   0  0  0  0  0  0  0  0  0  0  0  0
    1.1322   -2.3834   -1.2903 H   0  0  0  0  0  0  0  0  0  0  0  0
    2.3843   -0.5574   -2.3444 H   0  0  0  0  0  0  0  0  0  0  0  0
    2.0435    1.1007   -1.8463 H   0  0  0  0  0  0  0  0  0  0  0  0
    3.7602   -1.9670   -0.8677 H   0  0  0  0  0  0  0  0  0  0  0  0
    6.2983   -1.1210    2.9442 H   0  0  0  0  0  0  0  0  0  0  0  0
    5.4244    0.2388    3.7887 H   0  0  0  0  0  0  0  0  0  0  0  0
    1.6431    2.4424    1.1836 H   0  0  0  0  0  0  0  0  0  0  0  0
    2.4036    2.6366   -0.4452 H   0  0  0  0  0  0  0  0  0  0  0  0
   -0.0597    1.6546   -0.8938 H   0  0  0  0  0  0  0  0  0  0  0  0
   -2.7856    3.3373   -0.0620 H   0  0  0  0  0  0  0  0  0  0  0  0
   -1.6560    2.7742   -1.4023 H   0  0  0  0  0  0  0  0  0  0  0  0
   -1.2062    2.7075    0.3990 H   0  0  0  0  0  0  0  0  0  0  0  0
   -4.7247    0.7742   -0.3257 H   0  0  0  0  0  0  0  0  0  0  0  0
   -4.1808    2.1965   -1.2104 H   0  0  0  0  0  0  0  0  0  0  0  0
   -3.8212    0.6353   -1.9455 H   0  0  0  0  0  0  0  0  0  0  0  0
   -2.2077    1.7374    1.8679 H   0  0  0  0  0  0  0  0  0  0  0  0
   -3.9343    1.5661    1.4076 H   0  0  0  0  0  0  0  0  0  0  0  0
   -2.9426    0.0767    1.6435 H   0  0  0  0  0  0  0  0  0  0  0  0
   -3.3766   -2.0653    0.7635 H   0  0  0  0  0  0  0  0  0  0  0  0
   -4.0528   -1.4591   -0.7405 H   0  0  0  0  0  0  0  0  0  0  0  0
  1  2  1  0
  2  3  2  0
  3  4  1  0
  4  5  1  0
  5  6  1  0
  6  7  2  0
  7  8  1  0
  8  9  2  0
  9 10  1  0
  9 11  1  0
 11 12  2  0
 12 13  1  0
  4 14  2  0
 14 15  1  0
 15 16  1  0
 16 17  1  0
 16 18  1  0
 16 19  1  0
 15 20  2  0
 20 21  1  0
 20  2  1  0
 12  6  1  0
  1 22  1  0
  1 23  1  0
  1 24  1  0
  3 25  1  0
  5 26  1  0
  5 27  1  0
  7 28  1  0
 10 29  1  0
 10 30  1  0
 13 31  1  0
 13 32  1  0
 14 33  1  0
 17 34  1  0
 17 35  1  0
 17 36  1  0
 18 37  1  0
 18 38  1  0
 18 39  1  0
 19 40  1  0
 19 41  1  0
 19 42  1  0
 21 43  1  0
 21 44  1  0
M  END
$$$$
