@<TRIPOS>MOLECULE
*****
 44 45 0 0 0
SMALL
GASTEIGER

@<TRIPOS>ATOM
      1 C          -1.2084   -3.5476   -0.7143 C.3     1  UNL1       -0.0380
      2 C          -0.8906   -2.0967   -0.7603 C.ar    1  UNL1       -0.0293
      3 C           0.3726   -1.6462   -1.0764 C.ar    1  UNL1       -0.0536
      4 C           0.6848   -0.3008   -1.1250 C.ar    1  UNL1       -0.0423
      5 C           2.0905    0.0350   -1.4718 C.3     1  UNL1        0.0023
      6 C           2.9966   -0.0447   -0.3246 C.ar    1  UNL1        0.0146
      7 C           3.7952   -1.1648   -0.1440 C.ar    1  UNL1        0.0379
      8 N           4.6061   -1.2284    0.9408 N.ar    1  UNL1       -0.2227
      9 C           4.6792   -0.2516    1.8634 C.ar    1  UNL1        0.2142
     10 N           5.5560   -0.3851    2.9895 N.pl3   1  UNL1       -0.3274
     11 N           3.9058    0.8371    1.6903 N.ar    1  UNL1       -0.1999
     12 C           3.0696    0.9550    0.6146 C.ar    1  UNL1        0.1247
     13 N           2.2820    2.1284    0.4559 N.pl3   1  UNL1       -0.3428
     14 C          -0.2998    0.6150   -0.8495 C.ar    1  UNL1       -0.0528
     15 C          -1.5974    0.1794   -0.5234 C.ar    1  UNL1       -0.0208
     16 C          -2.5920    1.2020   -0.2143 C.3     1  UNL1       -0.0109
     17 C          -1.9866    2.5974   -0.3697 C.3     1  UNL1       -0.0560
     18 C          -3.8747    1.1326   -0.9675 C.3     1  UNL1       -0.0560
     19 C          -2.9332    1.1108    1.2847 C.3     1  UNL1       -0.0560
     20 C          -1.8959   -1.1600   -0.4776 C.ar    1  UNL1        0.0312
     21 N          -3.2008   -1.5745   -0.1569 N.pl3   1  UNL1       -0.3575
     22 H          -1.1996   -3.9330   -1.7547 H       1  UNL1        0.0278
     23 H          -0.3470   -4.0629   -0.2063 H       1  UNL1        0.0278
     24 H          -2.1537   -3.7216   -0.1814 H       1  UNL1        0.0278
     25 H           1.1322   -2.3834   -1.2903 H       1  UNL1        0.0624
     26 H           2.3843   -0.5574   -2.3444 H       1  UNL1        0.0363
     27 H           2.0435    1.1007   -1.8463 H       1  UNL1        0.0363
     28 H           3.7602   -1.9670   -0.8677 H       1  UNL1        0.0834
     29 H           6.2983   -1.1210    2.9442 H       1  UNL1        0.1452
     30 H           5.4244    0.2388    3.7887 H       1  UNL1        0.1452
     31 H           1.6431    2.4424    1.1836 H       1  UNL1        0.1437
     32 H           2.4036    2.6366   -0.4452 H       1  UNL1        0.1437
     33 H          -0.0597    1.6546   -0.8938 H       1  UNL1        0.0624
     34 H          -2.7856    3.3373   -0.0620 H       1  UNL1        0.0238
     35 H          -1.6560    2.7742   -1.4023 H       1  UNL1        0.0238
     36 H          -1.2062    2.7075    0.3990 H       1  UNL1        0.0238
     37 H          -4.7247    0.7742   -0.3257 H       1  UNL1        0.0238
     38 H          -4.1808    2.1965   -1.2104 H       1  UNL1        0.0238
     39 H          -3.8212    0.6353   -1.9455 H       1  UNL1        0.0238
     40 H          -2.2077    1.7374    1.8679 H       1  UNL1        0.0238
     41 H          -3.9343    1.5661    1.4076 H       1  UNL1        0.0238
     42 H          -2.9426    0.0767    1.6435 H       1  UNL1        0.0238
     43 H          -3.3766   -2.0653    0.7635 H       1  UNL1        0.1423
     44 H          -4.0528   -1.4591   -0.7405 H       1  UNL1        0.1423
@<TRIPOS>BOND
     1     1     2    1
     2     2     3   ar
     3     3     4   ar
     4     4     5    1
     5     5     6    1
     6     6     7   ar
     7     7     8   ar
     8     8     9   ar
     9     9    10    1
    10     9    11   ar
    11    11    12   ar
    12    12    13    1
    13     4    14   ar
    14    14    15   ar
    15    15    16    1
    16    16    17    1
    17    16    18    1
    18    16    19    1
    19    15    20   ar
    20    20    21    1
    21    20     2   ar
    22    12     6   ar
    23     1    22    1
    24     1    23    1
    25     1    24    1
    26     3    25    1
    27     5    26    1
    28     5    27    1
    29     7    28    1
    30    10    29    1
    31    10    30    1
    32    13    31    1
    33    13    32    1
    34    14    33    1
    35    17    34    1
    36    17    35    1
    37    17    36    1
    38    18    37    1
    39    18    38    1
    40    18    39    1
    41    19    40    1
    42    19    41    1
    43    19    42    1
    44    21    43    1
    45    21    44    1
