
     RDKit          3D

 48 51  0  0  0  0  0  0  0  0999 V2000
    8.3651    0.7651   -0.2742 C   0  0  0  0  0  0  0  0  0  0  0  0
    7.5064    0.4694    0.7959 O   0  0  0  0  0  0  0  0  0  0  0  0
    6.1748    0.1903    0.5604 C   0  0  0  0  0  0  0  0  0  0  0  0
    5.2943   -0.1070    1.5945 C   0  0  0  0  0  0  0  0  0  0  0  0
    4.0202   -0.3663    1.2885 N   0  0  0  0  0  0  0  0  0  0  0  0
    3.5565   -0.3503    0.0112 C   0  0  0  0  0  0  0  0  0  0  0  0
    2.1476   -0.6424   -0.2707 C   0  0  0  0  0  0  0  0  0  0  0  0
    1.6682   -0.6414   -1.4282 O   0  0  0  0  0  0  0  0  0  0  0  0
    1.2560   -0.9450    0.7961 N   0  0  0  0  0  0  0  0  0  0  0  0
   -0.1099   -1.2309    0.5513 C   0  0  0  0  0  0  0  0  0  0  0  0
   -0.5460   -2.5149    0.3193 C   0  0  0  0  0  0  0  0  0  0  0  0
   -1.8619   -2.8318    0.0781 C   0  0  0  0  0  0  0  0  0  0  0  0
   -2.3698   -4.4839   -0.2124 Cl  0  0  0  0  0  0  0  0  0  0  0  0
   -2.7760   -1.7816    0.0746 C   0  0  0  0  0  0  0  0  0  0  0  0
   -4.0776   -2.0863   -0.1625 F   0  0  0  0  0  0  0  0  0  0  0  0
   -2.3986   -0.4796    0.3001 C   0  0  0  0  0  0  0  0  0  0  0  0
   -3.3944    0.6442    0.2760 C   0  0  1  0  0  0  0  0  0  0  0  0
   -2.7068    1.9571    0.5933 C   0  0  0  0  0  0  0  0  0  0  0  0
   -2.1403    1.9327    1.8526 F   0  0  0  0  0  0  0  0  0  0  0  0
   -3.9576    0.6621   -1.0296 N   0  0  0  0  0  0  0  0  0  0  0  0
   -5.1618    0.4607   -1.3400 C   0  0  0  0  0  0  0  0  0  0  0  0
   -5.6524    0.4966   -2.6874 N   0  0  0  0  0  0  0  0  0  0  0  0
   -6.0780    0.1871   -0.3310 O   0  0  0  0  0  0  0  0  0  0  0  0
   -5.7864    0.2745    1.0244 C   0  0  2  0  0  0  0  0  0  0  0  0
   -5.3329    1.5926    1.6132 C   0  0  0  0  0  0  0  0  0  0  0  0
   -4.3927    0.4350    1.3958 C   0  0  2  0  0  0  0  0  0  0  0  0
   -1.0749   -0.2171    0.5351 C   0  0  0  0  0  0  0  0  0  0  0  0
    4.4143   -0.0593   -1.0104 C   0  0  0  0  0  0  0  0  0  0  0  0
    3.9527   -0.0308   -2.4140 C   0  0  0  0  0  0  0  0  0  0  0  0
    5.6992    0.2015   -0.6941 N   0  0  0  0  0  0  0  0  0  0  0  0
    8.0038    1.6253   -0.8737 H   0  0  0  0  0  0  0  0  0  0  0  0
    9.3733    0.9525    0.1598 H   0  0  0  0  0  0  0  0  0  0  0  0
    8.4424   -0.1315   -0.9386 H   0  0  0  0  0  0  0  0  0  0  0  0
    5.7009   -0.1083    2.5801 H   0  0  0  0  0  0  0  0  0  0  0  0
    1.6169   -0.9580    1.7963 H   0  0  0  0  0  0  0  0  0  0  0  0
    0.1785   -3.3407    0.3231 H   0  0  0  0  0  0  0  0  0  0  0  0
   -1.8735    2.1650   -0.1107 H   0  0  0  0  0  0  0  0  0  0  0  0
   -3.4451    2.7800    0.5883 H   0  0  0  0  0  0  0  0  0  0  0  0
   -5.4110    1.2758   -3.3031 H   0  0  0  0  0  0  0  0  0  0  0  0
   -6.2579   -0.2707   -3.0480 H   0  0  0  0  0  0  0  0  0  0  0  0
   -6.4438   -0.3591    1.6675 H   0  0  0  0  0  0  0  0  0  0  0  0
   -5.6603    1.8048    2.6692 H   0  0  0  0  0  0  0  0  0  0  0  0
   -5.4056    2.4277    0.9108 H   0  0  0  0  0  0  0  0  0  0  0  0
   -3.9432   -0.0323    2.2908 H   0  0  0  0  0  0  0  0  0  0  0  0
   -0.6571    0.7613    0.7152 H   0  0  0  0  0  0  0  0  0  0  0  0
    3.1518    0.7087   -2.6065 H   0  0  0  0  0  0  0  0  0  0  0  0
    3.5525   -1.0295   -2.7368 H   0  0  0  0  0  0  0  0  0  0  0  0
    4.8401    0.2287   -3.0497 H   0  0  0  0  0  0  0  0  0  0  0  0
  1  2  1  0
  2  3  1  0
  3  4  2  0
  4  5  1  0
  5  6  2  0
  6  7  1  0
  7  8  2  0
  7  9  1  0
  9 10  1  0
 10 11  2  0
 11 12  1  0
 12 13  1  0
 12 14  2  0
 14 15  1  0
 14 16  1  0
 16 17  1  0
 17 18  1  1
 18 19  1  0
 17 20  1  0
 20 21  2  0
 21 22  1  0
 21 23  1  0
 23 24  1  0
 24 25  1  0
 25 26  1  0
 16 27  2  0
  6 28  1  0
 28 29  1  0
 28 30  2  0
 30  3  1  0
 27 10  1  0
 26 17  1  0
 26 24  1  0
  1 31  1  0
  1 32  1  0
  1 33  1  0
  4 34  1  0
  9 35  1  0
 11 36  1  0
 18 37  1  0
 18 38  1  0
 22 39  1  0
 22 40  1  0
 24 41  1  1
 25 42  1  0
 25 43  1  0
 26 44  1  1
 27 45  1  0
 29 46  1  0
 29 47  1  0
 29 48  1  0
M  END
$$$$
