@<TRIPOS>MOLECULE
*****
 48 51 0 0 0
SMALL
GASTEIGER

@<TRIPOS>ATOM
      1 C           8.3651    0.7651   -0.2742 C.3     1  UNL1        0.0805
      2 O           7.5064    0.4694    0.7959 O.3     1  UNL1       -0.4786
      3 C           6.1748    0.1903    0.5604 C.ar    1  UNL1        0.2334
      4 C           5.2943   -0.1070    1.5945 C.ar    1  UNL1        0.0899
      5 N           4.0202   -0.3663    1.2885 N.ar    1  UNL1       -0.2433
      6 C           3.5565   -0.3503    0.0112 C.ar    1  UNL1        0.1468
      7 C           2.1476   -0.6424   -0.2707 C.2     1  UNL1        0.2683
      8 O           1.6682   -0.6414   -1.4282 O.2     1  UNL1       -0.2681
      9 N           1.2560   -0.9450    0.7961 N.am    1  UNL1       -0.2801
     10 C          -0.1099   -1.2309    0.5513 C.ar    1  UNL1        0.0356
     11 C          -0.5460   -2.5149    0.3193 C.ar    1  UNL1       -0.0193
     12 C          -1.8619   -2.8318    0.0781 C.ar    1  UNL1        0.0782
     13 CL         -2.3698   -4.4839   -0.2124 Cl      1  UNL1       -0.0805
     14 C          -2.7760   -1.7816    0.0746 C.ar    1  UNL1        0.1473
     15 F          -4.0776   -2.0863   -0.1625 F       1  UNL1       -0.2036
     16 C          -2.3986   -0.4796    0.3001 C.ar    1  UNL1        0.0213
     17 C          -3.3944    0.6442    0.2760 C.3     1  UNL1        0.1285
     18 C          -2.7068    1.9571    0.5933 C.3     1  UNL1        0.1199
     19 F          -2.1403    1.9327    1.8526 F       1  UNL1       -0.2462
     20 N          -3.9576    0.6621   -1.0296 N.2     1  UNL1       -0.2225
     21 C          -5.1618    0.4607   -1.3400 C.2     1  UNL1        0.2763
     22 N          -5.6524    0.4966   -2.6874 N.pl3   1  UNL1       -0.3134
     23 O          -6.0780    0.1871   -0.3310 O.2     1  UNL1       -0.4622
     24 C          -5.7864    0.2745    1.0244 C.3     1  UNL1        0.1090
     25 C          -5.3329    1.5926    1.6132 C.3     1  UNL1       -0.0065
     26 C          -4.3927    0.4350    1.3958 C.3     1  UNL1        0.0315
     27 C          -1.0749   -0.2171    0.5351 C.ar    1  UNL1       -0.0321
     28 C           4.4143   -0.0593   -1.0104 C.ar    1  UNL1        0.0724
     29 C           3.9527   -0.0308   -2.4140 C.3     1  UNL1       -0.0200
     30 N           5.6992    0.2015   -0.6941 N.ar    1  UNL1       -0.2146
     31 H           8.0038    1.6253   -0.8737 H       1  UNL1        0.0660
     32 H           9.3733    0.9525    0.1598 H       1  UNL1        0.0660
     33 H           8.4424   -0.1315   -0.9386 H       1  UNL1        0.0660
     34 H           5.7009   -0.1083    2.5801 H       1  UNL1        0.0884
     35 H           1.6169   -0.9580    1.7963 H       1  UNL1        0.1552
     36 H           0.1785   -3.3407    0.3231 H       1  UNL1        0.0652
     37 H          -1.8735    2.1650   -0.1107 H       1  UNL1        0.0643
     38 H          -3.4451    2.7800    0.5883 H       1  UNL1        0.0643
     39 H          -5.4110    1.2758   -3.3031 H       1  UNL1        0.1466
     40 H          -6.2579   -0.2707   -3.0480 H       1  UNL1        0.1466
     41 H          -6.4438   -0.3591    1.6675 H       1  UNL1        0.0737
     42 H          -5.6603    1.8048    2.6692 H       1  UNL1        0.0306
     43 H          -5.4056    2.4277    0.9108 H       1  UNL1        0.0306
     44 H          -3.9432   -0.0323    2.2908 H       1  UNL1        0.0365
     45 H          -0.6571    0.7613    0.7152 H       1  UNL1        0.0640
     46 H           3.1518    0.7087   -2.6065 H       1  UNL1        0.0293
     47 H           3.5525   -1.0295   -2.7368 H       1  UNL1        0.0293
     48 H           4.8401    0.2287   -3.0497 H       1  UNL1        0.0293
@<TRIPOS>BOND
     1     1     2    1
     2     2     3    1
     3     3     4   ar
     4     4     5   ar
     5     5     6   ar
     6     6     7    1
     7     7     8    2
     8     7     9   am
     9     9    10    1
    10    10    11   ar
    11    11    12   ar
    12    12    13    1
    13    12    14   ar
    14    14    15    1
    15    14    16   ar
    16    16    17    1
    17    17    18    1
    18    18    19    1
    19    17    20    1
    20    20    21    2
    21    21    22    1
    22    21    23    1
    23    23    24    1
    24    24    25    1
    25    25    26    1
    26    16    27   ar
    27     6    28   ar
    28    28    29    1
    29    28    30   ar
    30    30     3   ar
    31    27    10   ar
    32    26    17    1
    33    26    24    1
    34     1    31    1
    35     1    32    1
    36     1    33    1
    37     4    34    1
    38     9    35    1
    39    11    36    1
    40    18    37    1
    41    18    38    1
    42    22    39    1
    43    22    40    1
    44    24    41    1
    45    25    42    1
    46    25    43    1
    47    26    44    1
    48    27    45    1
    49    29    46    1
    50    29    47    1
    51    29    48    1
