@<TRIPOS>MOLECULE
*****
 65 70 0 0 0
SMALL
GASTEIGER

@<TRIPOS>ATOM
      1 O          -6.3863    2.3174   -1.4559 O.2     1  UNL1       -0.2510
      2 C          -6.0749    2.7303   -0.3175 C.2     1  UNL1        0.3053
      3 O          -6.9633    3.5529    0.3463 O.3     1  UNL1       -0.4806
      4 C          -4.7876    2.3310    0.2702 C.3     1  UNL1        0.0516
      5 C          -4.7981    1.0821    1.0776 C.3     1  UNL1       -0.0047
      6 C          -3.4012    0.8455    1.5855 C.3     1  UNL1       -0.0359
      7 C          -2.8286   -0.3490    0.8731 C.3     1  UNL1        0.0005
      8 C          -1.7779    0.0622   -0.1221 C.3     1  UNL1       -0.0273
      9 C          -0.5530    0.4920    0.6563 C.3     1  UNL1        0.0169
     10 N          -0.0154   -0.7284    1.2288 N.am    1  UNL1       -0.2856
     11 C           1.3363   -1.0769    1.0227 C.2     1  UNL1        0.3024
     12 O           1.7352   -2.1617    1.5555 O.2     1  UNL1       -0.2526
     13 N           2.2956   -0.3529    0.2892 N.am    1  UNL1       -0.2959
     14 C           3.6751   -0.8088    0.1395 C.3     1  UNL1        0.0302
     15 C           3.9600   -1.0408   -1.3222 C.3     1  UNL1       -0.0218
     16 C           5.3662   -1.5968   -1.4603 C.3     1  UNL1       -0.0456
     17 C           6.3408   -0.5827   -0.9230 C.3     1  UNL1       -0.0402
     18 C           6.2645    0.7233   -1.6876 C.3     1  UNL1       -0.0473
     19 C           4.8556    1.2408   -1.5574 C.3     1  UNL1       -0.0402
     20 C           3.8952    0.2347   -2.1265 C.3     1  UNL1       -0.0456
     21 C           4.5957    1.4929   -0.0920 C.3     1  UNL1       -0.0456
     22 C           4.6478    0.2111    0.6774 C.3     1  UNL1       -0.0218
     23 C           6.0385   -0.3714    0.5424 C.3     1  UNL1       -0.0456
     24 C          -0.9027   -1.5571    2.0028 C.3     1  UNL1        0.0169
     25 C          -2.3434   -1.3185    1.8940 C.3     1  UNL1       -0.0273
     26 C          -4.0123   -0.9431    0.1857 C.ar    1  UNL1       -0.0237
     27 C          -4.1523   -2.1439   -0.5218 C.ar    1  UNL1        0.0218
     28 BR         -2.5949   -3.2425   -0.6837 Br      1  UNL1       -0.0500
     29 C          -5.3405   -2.5449   -1.0876 C.ar    1  UNL1       -0.0475
     30 C          -6.4334   -1.7246   -0.9472 C.ar    1  UNL1       -0.0604
     31 C          -6.3442   -0.5395   -0.2633 C.ar    1  UNL1       -0.0580
     32 C          -5.1118   -0.1535    0.3063 C.ar    1  UNL1       -0.0390
     33 H          -7.9244    3.7092    0.0430 H       1  UNL1        0.2951
     34 H          -4.0327    2.2415   -0.5478 H       1  UNL1        0.0383
     35 H          -4.4137    3.1549    0.9133 H       1  UNL1        0.0383
     36 H          -5.4940    1.1243    1.9471 H       1  UNL1        0.0354
     37 H          -2.7346    1.7243    1.3357 H       1  UNL1        0.0280
     38 H          -3.3701    0.7223    2.6911 H       1  UNL1        0.0280
     39 H          -2.1348    0.8239   -0.8107 H       1  UNL1        0.0289
     40 H          -1.4804   -0.8636   -0.6741 H       1  UNL1        0.0289
     41 H           0.1526    1.0601    0.0598 H       1  UNL1        0.0465
     42 H          -0.8581    1.1455    1.5239 H       1  UNL1        0.0465
     43 H           2.0167    0.5386   -0.1634 H       1  UNL1        0.1505
     44 H           3.8340   -1.7668    0.6687 H       1  UNL1        0.0504
     45 H           3.2738   -1.8025   -1.7254 H       1  UNL1        0.0319
     46 H           5.4432   -2.4986   -0.8113 H       1  UNL1        0.0271
     47 H           5.5429   -1.8439   -2.5194 H       1  UNL1        0.0271
     48 H           7.3730   -0.9681   -1.0384 H       1  UNL1        0.0301
     49 H           6.5554    0.5363   -2.7203 H       1  UNL1        0.0271
     50 H           6.9878    1.4152   -1.2246 H       1  UNL1        0.0271
     51 H           4.7084    2.1983   -2.1168 H       1  UNL1        0.0301
     52 H           2.8746    0.6703   -2.1565 H       1  UNL1        0.0271
     53 H           4.2023   -0.0049   -3.1582 H       1  UNL1        0.0271
     54 H           3.6002    1.9372   -0.0012 H       1  UNL1        0.0271
     55 H           5.4085    2.1542    0.2823 H       1  UNL1        0.0271
     56 H           4.4500    0.4105    1.7449 H       1  UNL1        0.0319
     57 H           5.9867   -1.4038    0.9937 H       1  UNL1        0.0271
     58 H           6.8017    0.2171    1.0668 H       1  UNL1        0.0271
     59 H          -0.7137   -2.6306    1.6842 H       1  UNL1        0.0465
     60 H          -0.5869   -1.5757    3.0935 H       1  UNL1        0.0465
     61 H          -2.7174   -0.9660    2.9133 H       1  UNL1        0.0289
     62 H          -2.9363   -2.2949    1.7902 H       1  UNL1        0.0289
     63 H          -5.3896   -3.4971   -1.6309 H       1  UNL1        0.0629
     64 H          -7.3824   -1.9995   -1.3735 H       1  UNL1        0.0618
     65 H          -7.2274    0.0841   -0.1642 H       1  UNL1        0.0620
@<TRIPOS>BOND
     1     1     2    2
     2     2     3    1
     3     2     4    1
     4     4     5    1
     5     5     6    1
     6     6     7    1
     7     7     8    1
     8     8     9    1
     9     9    10    1
    10    10    11   am
    11    11    12    2
    12    11    13   am
    13    13    14    1
    14    14    15    1
    15    15    16    1
    16    16    17    1
    17    17    18    1
    18    18    19    1
    19    19    20    1
    20    19    21    1
    21    21    22    1
    22    22    23    1
    23    10    24    1
    24    24    25    1
    25     7    26    1
    26    26    27   ar
    27    27    28    1
    28    27    29   ar
    29    29    30   ar
    30    30    31   ar
    31    31    32   ar
    32    32     5    1
    33    25     7    1
    34    32    26   ar
    35    22    14    1
    36    20    15    1
    37    23    17    1
    38     3    33    1
    39     4    34    1
    40     4    35    1
    41     5    36    1
    42     6    37    1
    43     6    38    1
    44     8    39    1
    45     8    40    1
    46     9    41    1
    47     9    42    1
    48    13    43    1
    49    14    44    1
    50    15    45    1
    51    16    46    1
    52    16    47    1
    53    17    48    1
    54    18    49    1
    55    18    50    1
    56    19    51    1
    57    20    52    1
    58    20    53    1
    59    21    54    1
    60    21    55    1
    61    22    56    1
    62    23    57    1
    63    23    58    1
    64    24    59    1
    65    24    60    1
    66    25    61    1
    67    25    62    1
    68    29    63    1
    69    30    64    1
    70    31    65    1
