
     RDKit          3D

 65 70  0  0  0  0  0  0  0  0999 V2000
   -6.3863    2.3174   -1.4559 O   0  0  0  0  0  0  0  0  0  0  0  0
   -6.0749    2.7303   -0.3175 C   0  0  0  0  0  0  0  0  0  0  0  0
   -6.9633    3.5529    0.3463 O   0  0  0  0  0  0  0  0  0  0  0  0
   -4.7876    2.3310    0.2702 C   0  0  0  0  0  0  0  0  0  0  0  0
   -4.7981    1.0821    1.0776 C   0  0  0  0  0  0  0  0  0  0  0  0
   -3.4012    0.8455    1.5855 C   0  0  0  0  0  0  0  0  0  0  0  0
   -2.8286   -0.3490    0.8731 C   0  0  0  0  0  0  0  0  0  0  0  0
   -1.7779    0.0622   -0.1221 C   0  0  0  0  0  0  0  0  0  0  0  0
   -0.5530    0.4920    0.6563 C   0  0  0  0  0  0  0  0  0  0  0  0
   -0.0154   -0.7284    1.2288 N   0  0  0  0  0  0  0  0  0  0  0  0
    1.3363   -1.0769    1.0227 C   0  0  0  0  0  0  0  0  0  0  0  0
    1.7352   -2.1617    1.5555 O   0  0  0  0  0  0  0  0  0  0  0  0
    2.2956   -0.3529    0.2892 N   0  0  0  0  0  0  0  0  0  0  0  0
    3.6751   -0.8088    0.1395 C   0  0  0  0  0  0  0  0  0  0  0  0
    3.9600   -1.0408   -1.3222 C   0  0  0  0  0  0  0  0  0  0  0  0
    5.3662   -1.5968   -1.4603 C   0  0  0  0  0  0  0  0  0  0  0  0
    6.3408   -0.5827   -0.9230 C   0  0  0  0  0  0  0  0  0  0  0  0
    6.2645    0.7233   -1.6876 C   0  0  0  0  0  0  0  0  0  0  0  0
    4.8556    1.2408   -1.5574 C   0  0  0  0  0  0  0  0  0  0  0  0
    3.8952    0.2347   -2.1265 C   0  0  0  0  0  0  0  0  0  0  0  0
    4.5957    1.4929   -0.0920 C   0  0  0  0  0  0  0  0  0  0  0  0
    4.6478    0.2111    0.6774 C   0  0  0  0  0  0  0  0  0  0  0  0
    6.0385   -0.3714    0.5424 C   0  0  0  0  0  0  0  0  0  0  0  0
   -0.9027   -1.5571    2.0028 C   0  0  0  0  0  0  0  0  0  0  0  0
   -2.3434   -1.3185    1.8940 C   0  0  0  0  0  0  0  0  0  0  0  0
   -4.0123   -0.9431    0.1857 C   0  0  0  0  0  0  0  0  0  0  0  0
   -4.1523   -2.1439   -0.5218 C   0  0  0  0  0  0  0  0  0  0  0  0
   -2.5949   -3.2425   -0.6837 Br  0  0  0  0  0  0  0  0  0  0  0  0
   -5.3405   -2.5449   -1.0876 C   0  0  0  0  0  0  0  0  0  0  0  0
   -6.4334   -1.7246   -0.9472 C   0  0  0  0  0  0  0  0  0  0  0  0
   -6.3442   -0.5395   -0.2633 C   0  0  0  0  0  0  0  0  0  0  0  0
   -5.1118   -0.1535    0.3063 C   0  0  0  0  0  0  0  0  0  0  0  0
   -7.9244    3.7092    0.0430 H   0  0  0  0  0  0  0  0  0  0  0  0
   -4.0327    2.2415   -0.5478 H   0  0  0  0  0  0  0  0  0  0  0  0
   -4.4137    3.1549    0.9133 H   0  0  0  0  0  0  0  0  0  0  0  0
   -5.4940    1.1243    1.9471 H   0  0  0  0  0  0  0  0  0  0  0  0
   -2.7346    1.7243    1.3357 H   0  0  0  0  0  0  0  0  0  0  0  0
   -3.3701    0.7223    2.6911 H   0  0  0  0  0  0  0  0  0  0  0  0
   -2.1348    0.8239   -0.8107 H   0  0  0  0  0  0  0  0  0  0  0  0
   -1.4804   -0.8636   -0.6741 H   0  0  0  0  0  0  0  0  0  0  0  0
    0.1526    1.0601    0.0598 H   0  0  0  0  0  0  0  0  0  0  0  0
   -0.8581    1.1455    1.5239 H   0  0  0  0  0  0  0  0  0  0  0  0
    2.0167    0.5386   -0.1634 H   0  0  0  0  0  0  0  0  0  0  0  0
    3.8340   -1.7668    0.6687 H   0  0  0  0  0  0  0  0  0  0  0  0
    3.2738   -1.8025   -1.7254 H   0  0  0  0  0  0  0  0  0  0  0  0
    5.4432   -2.4986   -0.8113 H   0  0  0  0  0  0  0  0  0  0  0  0
    5.5429   -1.8439   -2.5194 H   0  0  0  0  0  0  0  0  0  0  0  0
    7.3730   -0.9681   -1.0384 H   0  0  0  0  0  0  0  0  0  0  0  0
    6.5554    0.5363   -2.7203 H   0  0  0  0  0  0  0  0  0  0  0  0
    6.9878    1.4152   -1.2246 H   0  0  0  0  0  0  0  0  0  0  0  0
    4.7084    2.1983   -2.1168 H   0  0  0  0  0  0  0  0  0  0  0  0
    2.8746    0.6703   -2.1565 H   0  0  0  0  0  0  0  0  0  0  0  0
    4.2023   -0.0049   -3.1582 H   0  0  0  0  0  0  0  0  0  0  0  0
    3.6002    1.9372   -0.0012 H   0  0  0  0  0  0  0  0  0  0  0  0
    5.4085    2.1542    0.2823 H   0  0  0  0  0  0  0  0  0  0  0  0
    4.4500    0.4105    1.7449 H   0  0  0  0  0  0  0  0  0  0  0  0
    5.9867   -1.4038    0.9937 H   0  0  0  0  0  0  0  0  0  0  0  0
    6.8017    0.2171    1.0668 H   0  0  0  0  0  0  0  0  0  0  0  0
   -0.7137   -2.6306    1.6842 H   0  0  0  0  0  0  0  0  0  0  0  0
   -0.5869   -1.5757    3.0935 H   0  0  0  0  0  0  0  0  0  0  0  0
   -2.7174   -0.9660    2.9133 H   0  0  0  0  0  0  0  0  0  0  0  0
   -2.9363   -2.2949    1.7902 H   0  0  0  0  0  0  0  0  0  0  0  0
   -5.3896   -3.4971   -1.6309 H   0  0  0  0  0  0  0  0  0  0  0  0
   -7.3824   -1.9995   -1.3735 H   0  0  0  0  0  0  0  0  0  0  0  0
   -7.2274    0.0841   -0.1642 H   0  0  0  0  0  0  0  0  0  0  0  0
  1  2  2  0
  2  3  1  0
  2  4  1  0
  4  5  1  0
  5  6  1  0
  6  7  1  0
  7  8  1  0
  8  9  1  0
  9 10  1  0
 10 11  1  0
 11 12  2  0
 11 13  1  0
 13 14  1  0
 14 15  1  0
 15 16  1  0
 16 17  1  0
 17 18  1  0
 18 19  1  0
 19 20  1  0
 19 21  1  0
 21 22  1  0
 22 23  1  0
 10 24  1  0
 24 25  1  0
  7 26  1  0
 26 27  2  0
 27 28  1  0
 27 29  1  0
 29 30  2  0
 30 31  1  0
 31 32  2  0
 32  5  1  0
 25  7  1  0
 32 26  1  0
 22 14  1  0
 20 15  1  0
 23 17  1  0
  3 33  1  0
  4 34  1  0
  4 35  1  0
  5 36  1  0
  6 37  1  0
  6 38  1  0
  8 39  1  0
  8 40  1  0
  9 41  1  0
  9 42  1  0
 13 43  1  0
 14 44  1  0
 15 45  1  0
 16 46  1  0
 16 47  1  0
 17 48  1  0
 18 49  1  0
 18 50  1  0
 19 51  1  0
 20 52  1  0
 20 53  1  0
 21 54  1  0
 21 55  1  0
 22 56  1  0
 23 57  1  0
 23 58  1  0
 24 59  1  0
 24 60  1  0
 25 61  1  0
 25 62  1  0
 29 63  1  0
 30 64  1  0
 31 65  1  0
M  END
$$$$
