
     RDKit          3D

 58 62  0  0  0  0  0  0  0  0999 V2000
    6.0302    4.8259   -1.4104 C   0  0  0  0  0  0  0  0  0  0  0  0
    5.3888    3.6698   -1.8800 O   0  0  0  0  0  0  0  0  0  0  0  0
    4.5119    2.9269   -1.0713 C   0  0  0  0  0  0  0  0  0  0  0  0
    3.8922    1.7947   -1.5511 C   0  0  0  0  0  0  0  0  0  0  0  0
    3.0283    1.0473   -0.7813 C   0  0  0  0  0  0  0  0  0  0  0  0
    2.7619    1.4237    0.5070 C   0  0  0  0  0  0  0  0  0  0  0  0
    1.9707    0.8996    1.4900 C   0  0  0  0  0  0  0  0  0  0  0  0
    1.1416   -0.2715    1.4437 N   0  0  0  0  0  0  0  0  0  0  0  0
   -0.1823   -0.3376    1.6866 C   0  0  0  0  0  0  0  0  0  0  0  0
   -0.8934    0.6627    1.9991 O   0  0  0  0  0  0  0  0  0  0  0  0
   -0.6205   -1.5940    1.5500 N   0  0  0  0  0  0  0  0  0  0  0  0
   -1.9783   -2.0574    1.7298 C   0  0  0  0  0  0  0  0  0  0  0  0
   -2.7805   -2.0186    0.5069 C   0  0  0  0  0  0  0  0  0  0  0  0
   -2.8983   -3.0401   -0.4075 C   0  0  0  0  0  0  0  0  0  0  0  0
   -3.6888   -2.9068   -1.5448 C   0  0  0  0  0  0  0  0  0  0  0  0
   -4.3857   -1.7565   -1.8087 C   0  0  0  0  0  0  0  0  0  0  0  0
   -5.3873   -1.5790   -3.2436 Cl  0  0  0  0  0  0  0  0  0  0  0  0
   -4.2718   -0.7072   -0.8804 C   0  0  0  0  0  0  0  0  0  0  0  0
   -4.9845    0.4230   -1.1834 O   0  0  0  0  0  0  0  0  0  0  0  0
   -5.0644    1.6055   -0.4624 C   0  0  2  0  0  0  0  0  0  0  0  0
   -6.4937    1.9213   -0.0377 C   0  0  0  0  0  0  0  0  0  0  0  0
   -4.6615    2.7404   -1.3513 C   0  0  0  0  0  0  0  0  0  0  0  0
   -4.3331    2.5150   -2.5210 O   0  0  0  0  0  0  0  0  0  0  0  0
   -4.6747    4.0260   -0.8107 O   0  0  0  0  0  0  0  0  0  0  0  0
   -3.4903   -0.8417    0.2419 C   0  0  0  0  0  0  0  0  0  0  0  0
    0.4136   -2.3835    1.2125 C   0  0  0  0  0  0  0  0  0  0  0  0
    0.5475   -3.7306    0.9500 C   0  0  0  0  0  0  0  0  0  0  0  0
    1.7584   -4.2936    0.6182 C   0  0  0  0  0  0  0  0  0  0  0  0
    2.8588   -3.4475    0.5553 C   0  0  0  0  0  0  0  0  0  0  0  0
    4.1784   -4.0240    0.2004 C   0  0  0  0  0  0  0  0  0  0  0  0
    4.3062   -4.0584   -1.1724 F   0  0  0  0  0  0  0  0  0  0  0  0
    4.3693   -5.2684    0.7698 F   0  0  0  0  0  0  0  0  0  0  0  0
    5.1470   -3.1632    0.6815 F   0  0  0  0  0  0  0  0  0  0  0  0
    2.7328   -2.0957    0.8171 C   0  0  0  0  0  0  0  0  0  0  0  0
    1.5202   -1.5276    1.1501 C   0  0  0  0  0  0  0  0  0  0  0  0
    2.1246    1.7232    2.5486 N   0  0  0  0  0  0  0  0  0  0  0  0
    2.9400    2.6744    2.2474 O   0  0  0  0  0  0  0  0  0  0  0  0
    3.3757    2.5563    1.0018 C   0  0  0  0  0  0  0  0  0  0  0  0
    4.2408    3.3029    0.2275 C   0  0  0  0  0  0  0  0  0  0  0  0
    6.9480    4.9610   -2.0359 H   0  0  0  0  0  0  0  0  0  0  0  0
    6.3695    4.7683   -0.3713 H   0  0  0  0  0  0  0  0  0  0  0  0
    5.4127    5.7410   -1.5181 H   0  0  0  0  0  0  0  0  0  0  0  0
    4.0980    1.4921   -2.5670 H   0  0  0  0  0  0  0  0  0  0  0  0
    2.5333    0.1542   -1.1452 H   0  0  0  0  0  0  0  0  0  0  0  0
   -2.5130   -1.4488    2.5152 H   0  0  0  0  0  0  0  0  0  0  0  0
   -2.0038   -3.1027    2.1391 H   0  0  0  0  0  0  0  0  0  0  0  0
   -2.3572   -3.9473   -0.2125 H   0  0  0  0  0  0  0  0  0  0  0  0
   -3.7594   -3.7412   -2.2518 H   0  0  0  0  0  0  0  0  0  0  0  0
   -4.4640    1.5840    0.4579 H   0  0  0  0  0  0  0  0  0  0  0  0
   -7.1875    1.7479   -0.8650 H   0  0  0  0  0  0  0  0  0  0  0  0
   -6.5233    2.9990    0.2050 H   0  0  0  0  0  0  0  0  0  0  0  0
   -6.7669    1.3705    0.8852 H   0  0  0  0  0  0  0  0  0  0  0  0
   -4.6616    4.8189   -1.4352 H   0  0  0  0  0  0  0  0  0  0  0  0
   -3.4212   -0.0197    0.9377 H   0  0  0  0  0  0  0  0  0  0  0  0
   -0.3142   -4.3750    1.0024 H   0  0  0  0  0  0  0  0  0  0  0  0
    1.8515   -5.3527    0.4141 H   0  0  0  0  0  0  0  0  0  0  0  0
    3.6064   -1.4693    0.7593 H   0  0  0  0  0  0  0  0  0  0  0  0
    4.7028    4.1844    0.6503 H   0  0  0  0  0  0  0  0  0  0  0  0
  1  2  1  0
  2  3  1  0
  3  4  2  0
  4  5  1  0
  5  6  2  0
  6  7  1  0
  7  8  1  0
  8  9  1  0
  9 10  2  0
  9 11  1  0
 11 12  1  0
 12 13  1  0
 13 14  2  0
 14 15  1  0
 15 16  2  0
 16 17  1  0
 16 18  1  0
 18 19  1  0
 19 20  1  0
 20 21  1  0
 20 22  1  0
 22 23  2  0
 22 24  1  0
 18 25  2  0
 11 26  1  0
 26 27  2  0
 27 28  1  0
 28 29  2  0
 29 30  1  0
 30 31  1  0
 30 32  1  0
 30 33  1  0
 29 34  1  0
 34 35  2  0
  7 36  2  0
 36 37  1  0
 37 38  1  0
 38 39  2  0
 39  3  1  0
 38  6  1  0
 35  8  1  0
 25 13  1  0
 35 26  1  0
  1 40  1  0
  1 41  1  0
  1 42  1  0
  4 43  1  0
  5 44  1  0
 12 45  1  0
 12 46  1  0
 14 47  1  0
 15 48  1  0
 20 49  1  1
 21 50  1  0
 21 51  1  0
 21 52  1  0
 24 53  1  0
 25 54  1  0
 27 55  1  0
 28 56  1  0
 34 57  1  0
 39 58  1  0
M  END
$$$$
