@<TRIPOS>MOLECULE
*****
 58 62 0 0 0
SMALL
GASTEIGER

@<TRIPOS>ATOM
      1 C           6.0302    4.8259   -1.4104 C.3     1  UNL1        0.0788
      2 O           5.3888    3.6698   -1.8800 O.3     1  UNL1       -0.4950
      3 C           4.5119    2.9269   -1.0713 C.ar    1  UNL1        0.1237
      4 C           3.8922    1.7947   -1.5511 C.ar    1  UNL1       -0.0190
      5 C           3.0283    1.0473   -0.7813 C.ar    1  UNL1       -0.0439
      6 C           2.7619    1.4237    0.5070 C.ar    1  UNL1        0.0662
      7 C           1.9707    0.8996    1.4900 C.ar    1  UNL1        0.1922
      8 N           1.1416   -0.2715    1.4437 N.ar    1  UNL1       -0.2413
      9 C          -0.1823   -0.3376    1.6866 C.ar    1  UNL1        0.3362
     10 O          -0.8934    0.6627    1.9991 O.2     1  UNL1       -0.2459
     11 N          -0.6205   -1.5940    1.5500 N.ar    1  UNL1       -0.2874
     12 C          -1.9783   -2.0574    1.7298 C.3     1  UNL1        0.0533
     13 C          -2.7805   -2.0186    0.5069 C.ar    1  UNL1       -0.0241
     14 C          -2.8983   -3.0401   -0.4075 C.ar    1  UNL1       -0.0553
     15 C          -3.6888   -2.9068   -1.5448 C.ar    1  UNL1       -0.0395
     16 C          -4.3857   -1.7565   -1.8087 C.ar    1  UNL1        0.0826
     17 CL         -5.3873   -1.5790   -3.2436 Cl      1  UNL1       -0.0798
     18 C          -4.2718   -0.7072   -0.8804 C.ar    1  UNL1        0.1402
     19 O          -4.9845    0.4230   -1.1834 O.3     1  UNL1       -0.4765
     20 C          -5.0644    1.6055   -0.4624 C.3     1  UNL1        0.1931
     21 C          -6.4937    1.9213   -0.0377 C.3     1  UNL1       -0.0172
     22 C          -4.6615    2.7404   -1.3513 C.2     1  UNL1        0.3456
     23 O          -4.3331    2.5150   -2.5210 O.2     1  UNL1       -0.2468
     24 O          -4.6747    4.0260   -0.8107 O.3     1  UNL1       -0.4781
     25 C          -3.4903   -0.8417    0.2419 C.ar    1  UNL1       -0.0136
     26 C           0.4136   -2.3835    1.2125 C.ar    1  UNL1        0.0707
     27 C           0.5475   -3.7306    0.9500 C.ar    1  UNL1       -0.0355
     28 C           1.7584   -4.2936    0.6182 C.ar    1  UNL1       -0.0480
     29 C           2.8588   -3.4475    0.5553 C.ar    1  UNL1        0.0569
     30 C           4.1784   -4.0240    0.2004 C.3     1  UNL1        0.4175
     31 F           4.3062   -4.0584   -1.1724 F       1  UNL1       -0.1659
     32 F           4.3693   -5.2684    0.7698 F       1  UNL1       -0.1659
     33 F           5.1470   -3.1632    0.6815 F       1  UNL1       -0.1659
     34 C           2.7328   -2.0957    0.8171 C.ar    1  UNL1       -0.0240
     35 C           1.5202   -1.5276    1.1501 C.ar    1  UNL1        0.0771
     36 N           2.1246    1.7232    2.5486 N.ar    1  UNL1       -0.0587
     37 O           2.9400    2.6744    2.2474 O.2     1  UNL1       -0.3525
     38 C           3.3757    2.5563    1.0018 C.ar    1  UNL1        0.1728
     39 C           4.2408    3.3029    0.2275 C.ar    1  UNL1        0.0257
     40 H           6.9480    4.9610   -2.0359 H       1  UNL1        0.0660
     41 H           6.3695    4.7683   -0.3713 H       1  UNL1        0.0660
     42 H           5.4127    5.7410   -1.5181 H       1  UNL1        0.0660
     43 H           4.0980    1.4921   -2.5670 H       1  UNL1        0.0654
     44 H           2.5333    0.1542   -1.1452 H       1  UNL1        0.0627
     45 H          -2.5130   -1.4488    2.5152 H       1  UNL1        0.0543
     46 H          -2.0038   -3.1027    2.1391 H       1  UNL1        0.0543
     47 H          -2.3572   -3.9473   -0.2125 H       1  UNL1        0.0621
     48 H          -3.7594   -3.7412   -2.2518 H       1  UNL1        0.0633
     49 H          -4.4640    1.5840    0.4579 H       1  UNL1        0.0849
     50 H          -7.1875    1.7479   -0.8650 H       1  UNL1        0.0271
     51 H          -6.5233    2.9990    0.2050 H       1  UNL1        0.0271
     52 H          -6.7669    1.3705    0.8852 H       1  UNL1        0.0271
     53 H          -4.6616    4.8189   -1.4352 H       1  UNL1        0.2952
     54 H          -3.4212   -0.0197    0.9377 H       1  UNL1        0.0658
     55 H          -0.3142   -4.3750    1.0024 H       1  UNL1        0.0639
     56 H           1.8515   -5.3527    0.4141 H       1  UNL1        0.0624
     57 H           3.6064   -1.4693    0.7593 H       1  UNL1        0.0644
     58 H           4.7028    4.1844    0.6503 H       1  UNL1        0.0692
@<TRIPOS>BOND
     1     1     2    1
     2     2     3    1
     3     3     4   ar
     4     4     5   ar
     5     5     6   ar
     6     6     7   ar
     7     7     8    1
     8     8     9   ar
     9     9    10    2
    10     9    11   ar
    11    11    12    1
    12    12    13    1
    13    13    14   ar
    14    14    15   ar
    15    15    16   ar
    16    16    17    1
    17    16    18   ar
    18    18    19    1
    19    19    20    1
    20    20    21    1
    21    20    22    1
    22    22    23    2
    23    22    24    1
    24    18    25   ar
    25    11    26   ar
    26    26    27   ar
    27    27    28   ar
    28    28    29   ar
    29    29    30    1
    30    30    31    1
    31    30    32    1
    32    30    33    1
    33    29    34   ar
    34    34    35   ar
    35     7    36   ar
    36    36    37   ar
    37    37    38   ar
    38    38    39   ar
    39    39     3   ar
    40    38     6   ar
    41    35     8   ar
    42    25    13   ar
    43    35    26   ar
    44     1    40    1
    45     1    41    1
    46     1    42    1
    47     4    43    1
    48     5    44    1
    49    12    45    1
    50    12    46    1
    51    14    47    1
    52    15    48    1
    53    20    49    1
    54    21    50    1
    55    21    51    1
    56    21    52    1
    57    24    53    1
    58    25    54    1
    59    27    55    1
    60    28    56    1
    61    34    57    1
    62    39    58    1
