@<TRIPOS>MOLECULE
*****
 104 110 0 0 0
SMALL
GASTEIGER

@<TRIPOS>ATOM
      1 C           6.6045   -0.3025    5.0343 C.3     1  UNL1        0.0788
      2 O           5.7098   -0.0568    3.9417 O.3     1  UNL1       -0.4950
      3 C           6.1677   -0.3612    2.6672 C.ar    1  UNL1        0.1226
      4 C           5.3192   -0.1306    1.6033 C.ar    1  UNL1        0.0013
      5 C           5.7764   -0.4335    0.3396 C.ar    1  UNL1        0.0378
      6 N           4.9636   -0.2223   -0.7983 N.pl3   1  UNL1       -0.2834
      7 C           3.6746    0.3428   -0.7279 C.ar    1  UNL1        0.2226
      8 N           3.5004    1.6650   -0.8747 N.ar    1  UNL1       -0.2225
      9 C           2.2600    2.2249   -0.8263 C.ar    1  UNL1        0.0362
     10 C           1.1542    1.3975   -0.6192 C.ar    1  UNL1        0.0186
     11 C           1.3515    0.0582   -0.4724 C.ar    1  UNL1        0.2249
     12 O           0.2931   -0.8003   -0.2615 O.3     1  UNL1       -0.4373
     13 C          -0.9973   -0.2827   -0.3159 C.ar    1  UNL1        0.1381
     14 C          -1.7658   -0.2401    0.8265 C.ar    1  UNL1       -0.0169
     15 C          -3.0396    0.2815    0.7280 C.ar    1  UNL1       -0.0363
     16 C          -3.5330    0.7418   -0.4515 C.ar    1  UNL1        0.0427
     17 N          -4.8282    1.2858   -0.5776 N.am    1  UNL1       -0.2686
     18 C          -5.9724    0.4964   -0.8685 C.2     1  UNL1        0.3092
     19 O          -5.8553   -0.7549   -1.0122 O.2     1  UNL1       -0.2521
     20 N          -7.2717    1.0492   -1.0122 N.am    1  UNL1       -0.2538
     21 C          -8.4405    0.2951   -1.2950 C.ar    1  UNL1        0.1299
     22 C          -8.8522   -0.0155   -2.5944 C.ar    1  UNL1        0.0018
     23 C         -10.0131   -0.7335   -2.4425 C.ar    1  UNL1        0.0679
     24 C         -10.8487   -1.3040   -3.5502 C.3     1  UNL1       -0.0025
     25 C         -11.1980   -2.7437   -3.3058 C.3     1  UNL1       -0.0572
     26 C         -12.1444   -0.4909   -3.5239 C.3     1  UNL1       -0.0572
     27 N         -10.2481   -0.8255   -1.1284 N.ar    1  UNL1       -0.1694
     28 N          -9.3117   -0.2119   -0.4225 N.ar    1  UNL1       -0.2181
     29 C          -9.2071   -0.0818    0.9880 C.ar    1  UNL1        0.0677
     30 C          -8.2671   -0.7625    1.7262 C.ar    1  UNL1       -0.0359
     31 C          -8.1875   -0.6098    3.1163 C.ar    1  UNL1       -0.0566
     32 C          -9.0442    0.2229    3.7866 C.ar    1  UNL1       -0.0474
     33 C          -8.9615    0.3915    5.2692 C.3     1  UNL1       -0.0395
     34 C          -9.9911    0.9098    3.0524 C.ar    1  UNL1       -0.0455
     35 C         -10.9443    1.8242    3.7439 C.3     1  UNL1       -0.0394
     36 C         -10.0742    0.7640    1.6851 C.ar    1  UNL1       -0.0330
     37 C          -2.7464    0.6875   -1.5812 C.ar    1  UNL1        0.0069
     38 C          -3.2194    1.1282   -2.7963 C.ar    1  UNL1       -0.0521
     39 C          -2.4784    1.0810   -3.9706 C.ar    1  UNL1       -0.0611
     40 C          -1.2140    0.5553   -3.8468 C.ar    1  UNL1       -0.0611
     41 C          -0.6716    0.0972   -2.6727 C.ar    1  UNL1       -0.0505
     42 C          -1.4474    0.1683   -1.5396 C.ar    1  UNL1        0.0262
     43 N           2.5952   -0.4225   -0.5305 N.ar    1  UNL1       -0.1789
     44 C           7.0561   -0.9575    0.1361 C.ar    1  UNL1       -0.0281
     45 C           7.9138   -1.1934    1.1846 C.ar    1  UNL1        0.0419
     46 C           9.2569   -1.7259    1.0470 C.2     1  UNL1        0.2443
     47 O           9.9201   -1.9460    2.1026 O.2     1  UNL1       -0.2702
     48 N           9.8744   -2.0142   -0.1901 N.am    1  UNL1       -0.3101
     49 C          11.2147   -2.5425   -0.3493 C.3     1  UNL1        0.0247
     50 C          12.2657   -1.6293    0.2315 C.3     1  UNL1        0.0146
     51 N          12.3426   -0.3421   -0.3168 N.3     1  UNL1       -0.2965
     52 C          13.2943    0.5663    0.1765 C.3     1  UNL1        0.0225
     53 C          12.9847    2.0099   -0.1793 C.3     1  UNL1        0.0604
     54 O          12.8789    2.0189   -1.5753 O.3     1  UNL1       -0.3772
     55 C          11.7037    1.4092   -1.9163 C.3     1  UNL1        0.0604
     56 C          11.4072    0.1056   -1.2516 C.3     1  UNL1        0.0225
     57 C           7.4329   -0.8812    2.4444 C.ar    1  UNL1       -0.0077
     58 H           6.0792    0.1165    5.9347 H       1  UNL1        0.0660
     59 H           6.8115   -1.3840    5.1510 H       1  UNL1        0.0660
     60 H           7.5731    0.2138    4.9008 H       1  UNL1        0.0660
     61 H           4.3252    0.2760    1.7709 H       1  UNL1        0.0673
     62 H           5.3424   -0.4999   -1.7428 H       1  UNL1        0.1550
     63 H           2.1406    3.2912   -0.9469 H       1  UNL1        0.0832
     64 H           0.1844    1.8761   -0.5826 H       1  UNL1        0.0686
     65 H          -1.3584   -0.6091    1.7527 H       1  UNL1        0.0655
     66 H          -3.6475    0.3202    1.6116 H       1  UNL1        0.0637
     67 H          -4.9604    2.3304   -0.4508 H       1  UNL1        0.1564
     68 H          -7.3525    2.0921   -0.8919 H       1  UNL1        0.1578
     69 H          -8.3575    0.2547   -3.5182 H       1  UNL1        0.0671
     70 H         -10.3200   -1.1546   -4.5087 H       1  UNL1        0.0359
     71 H         -11.4194   -2.8608   -2.2112 H       1  UNL1        0.0236
     72 H         -12.1811   -2.9328   -3.8243 H       1  UNL1        0.0236
     73 H         -10.4528   -3.4550   -3.6781 H       1  UNL1        0.0236
     74 H         -12.1115    0.2855   -4.3429 H       1  UNL1        0.0236
     75 H         -12.3297   -0.0358   -2.5325 H       1  UNL1        0.0236
     76 H         -13.0234   -1.1163   -3.7831 H       1  UNL1        0.0236
     77 H          -7.5905   -1.4198    1.2051 H       1  UNL1        0.0639
     78 H          -7.4412   -1.1562    3.6637 H       1  UNL1        0.0621
     79 H          -8.3406   -0.4478    5.6865 H       1  UNL1        0.0278
     80 H          -9.9529    0.3130    5.7544 H       1  UNL1        0.0278
     81 H          -8.4760    1.3563    5.5224 H       1  UNL1        0.0278
     82 H         -10.5645    2.1581    4.7253 H       1  UNL1        0.0278
     83 H         -10.9978    2.7566    3.1102 H       1  UNL1        0.0278
     84 H         -11.9740    1.4034    3.7864 H       1  UNL1        0.0278
     85 H         -10.8119    1.2938    1.0829 H       1  UNL1        0.0641
     86 H          -4.2324    1.5324   -2.8197 H       1  UNL1        0.0624
     87 H          -2.9034    1.4425   -4.8935 H       1  UNL1        0.0618
     88 H          -0.5873    0.4907   -4.7283 H       1  UNL1        0.0618
     89 H           0.3157   -0.3175   -2.6544 H       1  UNL1        0.0625
     90 H           7.3996   -1.1911   -0.8659 H       1  UNL1        0.0644
     91 H           9.2668   -1.8154   -1.0436 H       1  UNL1        0.1490
     92 H          11.2552   -3.5386    0.1401 H       1  UNL1        0.0475
     93 H          11.3914   -2.6702   -1.4447 H       1  UNL1        0.0475
     94 H          12.0401   -1.5118    1.3361 H       1  UNL1        0.0442
     95 H          13.2814   -2.1400    0.2037 H       1  UNL1        0.0442
     96 H          14.3363    0.3881   -0.2037 H       1  UNL1        0.0449
     97 H          13.3539    0.5050    1.2790 H       1  UNL1        0.0449
     98 H          13.8563    2.6057    0.1432 H       1  UNL1        0.0572
     99 H          12.0294    2.2956    0.2632 H       1  UNL1        0.0572
    100 H          11.6602    1.2592   -3.0383 H       1  UNL1        0.0572
    101 H          10.8867    2.1454   -1.7255 H       1  UNL1        0.0572
    102 H          10.4220    0.2363   -0.7128 H       1  UNL1        0.0449
    103 H          11.2102   -0.6859   -2.0161 H       1  UNL1        0.0449
    104 H           8.0836   -1.0554    3.3022 H       1  UNL1        0.0662
@<TRIPOS>BOND
     1     1     2    1
     2     2     3    1
     3     3     4   ar
     4     4     5   ar
     5     5     6    1
     6     6     7    1
     7     7     8   ar
     8     8     9   ar
     9     9    10   ar
    10    10    11   ar
    11    11    12    1
    12    12    13    1
    13    13    14   ar
    14    14    15   ar
    15    15    16   ar
    16    16    17    1
    17    17    18   am
    18    18    19    2
    19    18    20   am
    20    20    21    1
    21    21    22   ar
    22    22    23   ar
    23    23    24    1
    24    24    25    1
    25    24    26    1
    26    23    27   ar
    27    27    28   ar
    28    28    29    1
    29    29    30   ar
    30    30    31   ar
    31    31    32   ar
    32    32    33    1
    33    32    34   ar
    34    34    35    1
    35    34    36   ar
    36    16    37   ar
    37    37    38   ar
    38    38    39   ar
    39    39    40   ar
    40    40    41   ar
    41    41    42   ar
    42    11    43   ar
    43     5    44   ar
    44    44    45   ar
    45    45    46    1
    46    46    47    2
    47    46    48   am
    48    48    49    1
    49    49    50    1
    50    50    51    1
    51    51    52    1
    52    52    53    1
    53    53    54    1
    54    54    55    1
    55    55    56    1
    56    45    57   ar
    57    57     3   ar
    58    43     7   ar
    59    56    51    1
    60    42    13   ar
    61    28    21   ar
    62    36    29   ar
    63    42    37   ar
    64     1    58    1
    65     1    59    1
    66     1    60    1
    67     4    61    1
    68     6    62    1
    69     9    63    1
    70    10    64    1
    71    14    65    1
    72    15    66    1
    73    17    67    1
    74    20    68    1
    75    22    69    1
    76    24    70    1
    77    25    71    1
    78    25    72    1
    79    25    73    1
    80    26    74    1
    81    26    75    1
    82    26    76    1
    83    30    77    1
    84    31    78    1
    85    33    79    1
    86    33    80    1
    87    33    81    1
    88    35    82    1
    89    35    83    1
    90    35    84    1
    91    36    85    1
    92    38    86    1
    93    39    87    1
    94    40    88    1
    95    41    89    1
    96    44    90    1
    97    48    91    1
    98    49    92    1
    99    49    93    1
   100    50    94    1
   101    50    95    1
   102    52    96    1
   103    52    97    1
   104    53    98    1
   105    53    99    1
   106    55   100    1
   107    55   101    1
   108    56   102    1
   109    56   103    1
   110    57   104    1
