
     RDKit          3D

104110  0  0  0  0  0  0  0  0999 V2000
    6.6045   -0.3025    5.0343 C   0  0  0  0  0  0  0  0  0  0  0  0
    5.7098   -0.0568    3.9417 O   0  0  0  0  0  0  0  0  0  0  0  0
    6.1677   -0.3612    2.6672 C   0  0  0  0  0  0  0  0  0  0  0  0
    5.3192   -0.1306    1.6033 C   0  0  0  0  0  0  0  0  0  0  0  0
    5.7764   -0.4335    0.3396 C   0  0  0  0  0  0  0  0  0  0  0  0
    4.9636   -0.2223   -0.7983 N   0  0  0  0  0  0  0  0  0  0  0  0
    3.6746    0.3428   -0.7279 C   0  0  0  0  0  0  0  0  0  0  0  0
    3.5004    1.6650   -0.8747 N   0  0  0  0  0  0  0  0  0  0  0  0
    2.2600    2.2249   -0.8263 C   0  0  0  0  0  0  0  0  0  0  0  0
    1.1542    1.3975   -0.6192 C   0  0  0  0  0  0  0  0  0  0  0  0
    1.3515    0.0582   -0.4724 C   0  0  0  0  0  0  0  0  0  0  0  0
    0.2931   -0.8003   -0.2615 O   0  0  0  0  0  0  0  0  0  0  0  0
   -0.9973   -0.2827   -0.3159 C   0  0  0  0  0  0  0  0  0  0  0  0
   -1.7658   -0.2401    0.8265 C   0  0  0  0  0  0  0  0  0  0  0  0
   -3.0396    0.2815    0.7280 C   0  0  0  0  0  0  0  0  0  0  0  0
   -3.5330    0.7418   -0.4515 C   0  0  0  0  0  0  0  0  0  0  0  0
   -4.8282    1.2858   -0.5776 N   0  0  0  0  0  0  0  0  0  0  0  0
   -5.9724    0.4964   -0.8685 C   0  0  0  0  0  0  0  0  0  0  0  0
   -5.8553   -0.7549   -1.0122 O   0  0  0  0  0  0  0  0  0  0  0  0
   -7.2717    1.0492   -1.0122 N   0  0  0  0  0  0  0  0  0  0  0  0
   -8.4405    0.2951   -1.2950 C   0  0  0  0  0  0  0  0  0  0  0  0
   -8.8522   -0.0155   -2.5944 C   0  0  0  0  0  0  0  0  0  0  0  0
  -10.0131   -0.7335   -2.4425 C   0  0  0  0  0  0  0  0  0  0  0  0
  -10.8487   -1.3040   -3.5502 C   0  0  0  0  0  0  0  0  0  0  0  0
  -11.1980   -2.7437   -3.3058 C   0  0  0  0  0  0  0  0  0  0  0  0
  -12.1444   -0.4909   -3.5239 C   0  0  0  0  0  0  0  0  0  0  0  0
  -10.2481   -0.8255   -1.1284 N   0  0  0  0  0  0  0  0  0  0  0  0
   -9.3117   -0.2119   -0.4225 N   0  0  0  0  0  0  0  0  0  0  0  0
   -9.2071   -0.0818    0.9880 C   0  0  0  0  0  0  0  0  0  0  0  0
   -8.2671   -0.7625    1.7262 C   0  0  0  0  0  0  0  0  0  0  0  0
   -8.1875   -0.6098    3.1163 C   0  0  0  0  0  0  0  0  0  0  0  0
   -9.0442    0.2229    3.7866 C   0  0  0  0  0  0  0  0  0  0  0  0
   -8.9615    0.3915    5.2692 C   0  0  0  0  0  0  0  0  0  0  0  0
   -9.9911    0.9098    3.0524 C   0  0  0  0  0  0  0  0  0  0  0  0
  -10.9443    1.8242    3.7439 C   0  0  0  0  0  0  0  0  0  0  0  0
  -10.0742    0.7640    1.6851 C   0  0  0  0  0  0  0  0  0  0  0  0
   -2.7464    0.6875   -1.5812 C   0  0  0  0  0  0  0  0  0  0  0  0
   -3.2194    1.1282   -2.7963 C   0  0  0  0  0  0  0  0  0  0  0  0
   -2.4784    1.0810   -3.9706 C   0  0  0  0  0  0  0  0  0  0  0  0
   -1.2140    0.5553   -3.8468 C   0  0  0  0  0  0  0  0  0  0  0  0
   -0.6716    0.0972   -2.6727 C   0  0  0  0  0  0  0  0  0  0  0  0
   -1.4474    0.1683   -1.5396 C   0  0  0  0  0  0  0  0  0  0  0  0
    2.5952   -0.4225   -0.5305 N   0  0  0  0  0  0  0  0  0  0  0  0
    7.0561   -0.9575    0.1361 C   0  0  0  0  0  0  0  0  0  0  0  0
    7.9138   -1.1934    1.1846 C   0  0  0  0  0  0  0  0  0  0  0  0
    9.2569   -1.7259    1.0470 C   0  0  0  0  0  0  0  0  0  0  0  0
    9.9201   -1.9460    2.1026 O   0  0  0  0  0  0  0  0  0  0  0  0
    9.8744   -2.0142   -0.1901 N   0  0  0  0  0  0  0  0  0  0  0  0
   11.2147   -2.5425   -0.3493 C   0  0  0  0  0  0  0  0  0  0  0  0
   12.2657   -1.6293    0.2315 C   0  0  0  0  0  0  0  0  0  0  0  0
   12.3426   -0.3421   -0.3168 N   0  0  0  0  0  0  0  0  0  0  0  0
   13.2943    0.5663    0.1765 C   0  0  0  0  0  0  0  0  0  0  0  0
   12.9847    2.0099   -0.1793 C   0  0  0  0  0  0  0  0  0  0  0  0
   12.8789    2.0189   -1.5753 O   0  0  0  0  0  0  0  0  0  0  0  0
   11.7037    1.4092   -1.9163 C   0  0  0  0  0  0  0  0  0  0  0  0
   11.4072    0.1056   -1.2516 C   0  0  0  0  0  0  0  0  0  0  0  0
    7.4329   -0.8812    2.4444 C   0  0  0  0  0  0  0  0  0  0  0  0
    6.0792    0.1165    5.9347 H   0  0  0  0  0  0  0  0  0  0  0  0
    6.8115   -1.3840    5.1510 H   0  0  0  0  0  0  0  0  0  0  0  0
    7.5731    0.2138    4.9008 H   0  0  0  0  0  0  0  0  0  0  0  0
    4.3252    0.2760    1.7709 H   0  0  0  0  0  0  0  0  0  0  0  0
    5.3424   -0.4999   -1.7428 H   0  0  0  0  0  0  0  0  0  0  0  0
    2.1406    3.2912   -0.9469 H   0  0  0  0  0  0  0  0  0  0  0  0
    0.1844    1.8761   -0.5826 H   0  0  0  0  0  0  0  0  0  0  0  0
   -1.3584   -0.6091    1.7527 H   0  0  0  0  0  0  0  0  0  0  0  0
   -3.6475    0.3202    1.6116 H   0  0  0  0  0  0  0  0  0  0  0  0
   -4.9604    2.3304   -0.4508 H   0  0  0  0  0  0  0  0  0  0  0  0
   -7.3525    2.0921   -0.8919 H   0  0  0  0  0  0  0  0  0  0  0  0
   -8.3575    0.2547   -3.5182 H   0  0  0  0  0  0  0  0  0  0  0  0
  -10.3200   -1.1546   -4.5087 H   0  0  0  0  0  0  0  0  0  0  0  0
  -11.4194   -2.8608   -2.2112 H   0  0  0  0  0  0  0  0  0  0  0  0
  -12.1811   -2.9328   -3.8243 H   0  0  0  0  0  0  0  0  0  0  0  0
  -10.4528   -3.4550   -3.6781 H   0  0  0  0  0  0  0  0  0  0  0  0
  -12.1115    0.2855   -4.3429 H   0  0  0  0  0  0  0  0  0  0  0  0
  -12.3297   -0.0358   -2.5325 H   0  0  0  0  0  0  0  0  0  0  0  0
  -13.0234   -1.1163   -3.7831 H   0  0  0  0  0  0  0  0  0  0  0  0
   -7.5905   -1.4198    1.2051 H   0  0  0  0  0  0  0  0  0  0  0  0
   -7.4412   -1.1562    3.6637 H   0  0  0  0  0  0  0  0  0  0  0  0
   -8.3406   -0.4478    5.6865 H   0  0  0  0  0  0  0  0  0  0  0  0
   -9.9529    0.3130    5.7544 H   0  0  0  0  0  0  0  0  0  0  0  0
   -8.4760    1.3563    5.5224 H   0  0  0  0  0  0  0  0  0  0  0  0
  -10.5645    2.1581    4.7253 H   0  0  0  0  0  0  0  0  0  0  0  0
  -10.9978    2.7566    3.1102 H   0  0  0  0  0  0  0  0  0  0  0  0
  -11.9740    1.4034    3.7864 H   0  0  0  0  0  0  0  0  0  0  0  0
  -10.8119    1.2938    1.0829 H   0  0  0  0  0  0  0  0  0  0  0  0
   -4.2324    1.5324   -2.8197 H   0  0  0  0  0  0  0  0  0  0  0  0
   -2.9034    1.4425   -4.8935 H   0  0  0  0  0  0  0  0  0  0  0  0
   -0.5873    0.4907   -4.7283 H   0  0  0  0  0  0  0  0  0  0  0  0
    0.3157   -0.3175   -2.6544 H   0  0  0  0  0  0  0  0  0  0  0  0
    7.3996   -1.1911   -0.8659 H   0  0  0  0  0  0  0  0  0  0  0  0
    9.2668   -1.8154   -1.0436 H   0  0  0  0  0  0  0  0  0  0  0  0
   11.2552   -3.5386    0.1401 H   0  0  0  0  0  0  0  0  0  0  0  0
   11.3914   -2.6702   -1.4447 H   0  0  0  0  0  0  0  0  0  0  0  0
   12.0401   -1.5118    1.3361 H   0  0  0  0  0  0  0  0  0  0  0  0
   13.2814   -2.1400    0.2037 H   0  0  0  0  0  0  0  0  0  0  0  0
   14.3363    0.3881   -0.2037 H   0  0  0  0  0  0  0  0  0  0  0  0
   13.3539    0.5050    1.2790 H   0  0  0  0  0  0  0  0  0  0  0  0
   13.8563    2.6057    0.1432 H   0  0  0  0  0  0  0  0  0  0  0  0
   12.0294    2.2956    0.2632 H   0  0  0  0  0  0  0  0  0  0  0  0
   11.6602    1.2592   -3.0383 H   0  0  0  0  0  0  0  0  0  0  0  0
   10.8867    2.1454   -1.7255 H   0  0  0  0  0  0  0  0  0  0  0  0
   10.4220    0.2363   -0.7128 H   0  0  0  0  0  0  0  0  0  0  0  0
   11.2102   -0.6859   -2.0161 H   0  0  0  0  0  0  0  0  0  0  0  0
    8.0836   -1.0554    3.3022 H   0  0  0  0  0  0  0  0  0  0  0  0
  1  2  1  0
  2  3  1  0
  3  4  2  0
  4  5  1  0
  5  6  1  0
  6  7  1  0
  7  8  2  0
  8  9  1  0
  9 10  2  0
 10 11  1  0
 11 12  1  0
 12 13  1  0
 13 14  2  0
 14 15  1  0
 15 16  2  0
 16 17  1  0
 17 18  1  0
 18 19  2  0
 18 20  1  0
 20 21  1  0
 21 22  2  0
 22 23  1  0
 23 24  1  0
 24 25  1  0
 24 26  1  0
 23 27  2  0
 27 28  1  0
 28 29  1  0
 29 30  2  0
 30 31  1  0
 31 32  2  0
 32 33  1  0
 32 34  1  0
 34 35  1  0
 34 36  2  0
 16 37  1  0
 37 38  2  0
 38 39  1  0
 39 40  2  0
 40 41  1  0
 41 42  2  0
 11 43  2  0
  5 44  2  0
 44 45  1  0
 45 46  1  0
 46 47  2  0
 46 48  1  0
 48 49  1  0
 49 50  1  0
 50 51  1  0
 51 52  1  0
 52 53  1  0
 53 54  1  0
 54 55  1  0
 55 56  1  0
 45 57  2  0
 57  3  1  0
 43  7  1  0
 56 51  1  0
 42 13  1  0
 28 21  1  0
 36 29  1  0
 42 37  1  0
  1 58  1  0
  1 59  1  0
  1 60  1  0
  4 61  1  0
  6 62  1  0
  9 63  1  0
 10 64  1  0
 14 65  1  0
 15 66  1  0
 17 67  1  0
 20 68  1  0
 22 69  1  0
 24 70  1  0
 25 71  1  0
 25 72  1  0
 25 73  1  0
 26 74  1  0
 26 75  1  0
 26 76  1  0
 30 77  1  0
 31 78  1  0
 33 79  1  0
 33 80  1  0
 33 81  1  0
 35 82  1  0
 35 83  1  0
 35 84  1  0
 36 85  1  0
 38 86  1  0
 39 87  1  0
 40 88  1  0
 41 89  1  0
 44 90  1  0
 48 91  1  0
 49 92  1  0
 49 93  1  0
 50 94  1  0
 50 95  1  0
 52 96  1  0
 52 97  1  0
 53 98  1  0
 53 99  1  0
 55100  1  0
 55101  1  0
 56102  1  0
 56103  1  0
 57104  1  0
M  END
$$$$
