@<TRIPOS>MOLECULE
*****
 57 61 0 0 0
SMALL
GASTEIGER

@<TRIPOS>ATOM
      1 C          -4.3428    1.4062    1.5089 C.3     1  UNL1       -0.0274
      2 C          -3.6113    1.0056    0.2624 C.3     1  UNL1        0.1037
      3 O          -3.3486   -0.3668    0.3231 O.3     1  UNL1       -0.4725
      4 C          -2.0674   -0.8834    0.3533 C.ar    1  UNL1        0.2265
      5 N          -0.9880   -0.0637    0.3248 N.ar    1  UNL1       -0.2121
      6 C           0.2506   -0.5718    0.3544 C.ar    1  UNL1        0.0798
      7 C           1.4222    0.3104    0.3238 C.ar    1  UNL1        0.0380
      8 C           1.4350    1.6780    0.2650 C.ar    1  UNL1        0.0586
      9 N           2.7311    2.0707    0.2562 N.ar    1  UNL1       -0.1787
     10 N           3.5266    1.0256    0.3061 N.ar    1  UNL1       -0.2677
     11 C           4.9632    0.9322    0.3191 C.3     1  UNL1        0.0550
     12 C           5.4505   -0.3519   -0.2321 C.3     1  UNL1       -0.0179
     13 C           6.8474   -0.4245   -0.6641 C.3     1  UNL1       -0.0022
     14 N           7.5329    0.8034   -0.9002 N.3     1  UNL1       -0.3158
     15 C           7.1163    1.9012   -0.0761 C.3     1  UNL1       -0.0022
     16 C           5.6347    2.1125   -0.3497 C.3     1  UNL1       -0.0179
     17 C           2.7347   -0.0840    0.3489 C.ar    1  UNL1        0.0350
     18 C           0.4301   -1.9381    0.4143 C.ar    1  UNL1       -0.0076
     19 C          -0.6661   -2.8058    0.4448 C.ar    1  UNL1        0.0999
     20 N          -0.8052   -4.1275    0.5008 N.ar    1  UNL1       -0.1712
     21 N          -2.0885   -4.4200    0.5054 N.ar    1  UNL1       -0.2732
     22 C          -2.6473   -5.7600    0.5595 C.3     1  UNL1        0.0302
     23 C          -2.8347   -3.2980    0.4524 C.ar    1  UNL1        0.0380
     24 C          -1.9240   -2.2534    0.4132 C.ar    1  UNL1        0.0812
     25 C          -4.3549    1.3763   -0.9963 C.3     1  UNL1        0.0196
     26 C          -5.7124    0.7269   -1.0861 C.3     1  UNL1        0.0182
     27 N          -6.6251    1.7677   -0.6208 N.am    1  UNL1       -0.3149
     28 C          -6.0096    3.0311   -0.7962 C.2     1  UNL1        0.2135
     29 O          -6.6361    4.1297   -0.7093 O.2     1  UNL1       -0.2758
     30 C          -4.5679    2.8522   -1.0866 C.3     1  UNL1        0.0315
     31 H          -5.0986    0.6518    1.8227 H       1  UNL1        0.0265
     32 H          -3.5765    1.4158    2.3375 H       1  UNL1        0.0265
     33 H          -4.7565    2.4290    1.4789 H       1  UNL1        0.0265
     34 H          -2.6479    1.5409    0.2453 H       1  UNL1        0.0734
     35 H           0.5458    2.3116    0.2322 H       1  UNL1        0.0854
     36 H           5.2682    0.9872    1.4047 H       1  UNL1        0.0545
     37 H           5.2803   -1.1436    0.5576 H       1  UNL1        0.0298
     38 H           4.7380   -0.6568   -1.0558 H       1  UNL1        0.0298
     39 H           7.4779   -1.0189    0.0621 H       1  UNL1        0.0425
     40 H           6.9075   -1.0188   -1.6161 H       1  UNL1        0.0425
     41 H           8.5462    0.7209   -1.0167 H       1  UNL1        0.1219
     42 H           7.7252    2.7757   -0.3049 H       1  UNL1        0.0425
     43 H           7.2193    1.5735    0.9906 H       1  UNL1        0.0425
     44 H           5.2536    3.0546    0.0384 H       1  UNL1        0.0298
     45 H           5.4563    1.9889   -1.4522 H       1  UNL1        0.0298
     46 H           3.0591   -1.1160    0.3953 H       1  UNL1        0.0833
     47 H           1.4310   -2.3447    0.4380 H       1  UNL1        0.0661
     48 H          -3.6128   -5.8253    0.0327 H       1  UNL1        0.0473
     49 H          -1.9273   -6.4988    0.1555 H       1  UNL1        0.0473
     50 H          -2.8353   -5.9715    1.6389 H       1  UNL1        0.0473
     51 H          -3.9055   -3.2388    0.4432 H       1  UNL1        0.0834
     52 H          -3.7404    1.0524   -1.8584 H       1  UNL1        0.0356
     53 H          -5.8296   -0.1588   -0.4627 H       1  UNL1        0.0466
     54 H          -5.9460    0.4594   -2.1401 H       1  UNL1        0.0466
     55 H          -7.5650    1.6187   -0.2275 H       1  UNL1        0.1487
     56 H          -4.3172    3.2686   -2.0938 H       1  UNL1        0.0363
     57 H          -3.9953    3.3624   -0.2959 H       1  UNL1        0.0363
@<TRIPOS>BOND
     1     1     2    1
     2     2     3    1
     3     3     4    1
     4     4     5   ar
     5     5     6   ar
     6     6     7    1
     7     7     8   ar
     8     8     9   ar
     9     9    10   ar
    10    10    11    1
    11    11    12    1
    12    12    13    1
    13    13    14    1
    14    14    15    1
    15    15    16    1
    16    10    17   ar
    17     6    18   ar
    18    18    19   ar
    19    19    20   ar
    20    20    21   ar
    21    21    22    1
    22    21    23   ar
    23    23    24   ar
    24     2    25    1
    25    25    26    1
    26    26    27    1
    27    27    28   am
    28    28    29    2
    29    28    30    1
    30    24     4   ar
    31    30    25    1
    32    17     7   ar
    33    24    19   ar
    34    16    11    1
    35     1    31    1
    36     1    32    1
    37     1    33    1
    38     2    34    1
    39     8    35    1
    40    11    36    1
    41    12    37    1
    42    12    38    1
    43    13    39    1
    44    13    40    1
    45    14    41    1
    46    15    42    1
    47    15    43    1
    48    16    44    1
    49    16    45    1
    50    17    46    1
    51    18    47    1
    52    22    48    1
    53    22    49    1
    54    22    50    1
    55    23    51    1
    56    25    52    1
    57    26    53    1
    58    26    54    1
    59    27    55    1
    60    30    56    1
    61    30    57    1
