@<TRIPOS>MOLECULE
*****
 55 58 0 0 0
SMALL
GASTEIGER

@<TRIPOS>ATOM
      1 C          -4.6765    2.6991   -1.0123 C.3     1  UNL1       -0.0470
      2 C          -3.7605    1.8719   -0.1336 C.3     1  UNL1        0.0236
      3 N          -3.8262    0.4623   -0.4624 N.ar    1  UNL1       -0.3099
      4 C          -3.0281   -0.1614   -1.3819 C.ar    1  UNL1        0.1509
      5 C          -1.9779    0.5107   -2.1949 C.3     1  UNL1        0.0692
      6 N          -0.7054    0.5628   -1.5479 N.pl3   1  UNL1       -0.3367
      7 C           0.1610   -0.5453   -1.3820 C.ar    1  UNL1        0.0282
      8 C          -0.1127   -1.7905   -1.9048 C.ar    1  UNL1       -0.0408
      9 C           0.7471   -2.8778   -1.7080 C.ar    1  UNL1       -0.0593
     10 C           1.8962   -2.6992   -0.9743 C.ar    1  UNL1       -0.0495
     11 C           2.1794   -1.4361   -0.4417 C.ar    1  UNL1        0.0384
     12 C           3.4101   -1.3085    0.3262 C.2     1  UNL1        0.2444
     13 O           4.1584   -2.2998    0.4850 O.2     1  UNL1       -0.2702
     14 N           3.8126   -0.0893    0.9167 N.am    1  UNL1       -0.3072
     15 C           5.0422    0.0450    1.6823 C.3     1  UNL1        0.0371
     16 C           6.2558    0.1340    0.8358 C.ar    1  UNL1       -0.0303
     17 C           6.6520    1.3903    0.3529 C.ar    1  UNL1       -0.0571
     18 C           7.7796    1.5232   -0.4290 C.ar    1  UNL1       -0.0615
     19 C           8.5682    0.4458   -0.7744 C.ar    1  UNL1       -0.0617
     20 C           8.1893   -0.7887   -0.3067 C.ar    1  UNL1       -0.0615
     21 C           7.0509   -0.9299    0.4840 C.ar    1  UNL1       -0.0571
     22 C           1.3412   -0.3843   -0.6354 C.ar    1  UNL1       -0.0287
     23 N          -3.4009   -1.4376   -1.3857 N.ar    1  UNL1       -0.1324
     24 N          -4.3711   -1.6250   -0.5292 N.ar    1  UNL1       -0.1291
     25 C          -4.6551   -0.4510    0.0611 C.ar    1  UNL1        0.1644
     26 C          -5.6868   -0.2532    1.0831 C.ar    1  UNL1        0.0221
     27 C          -6.9630    0.1563    0.7736 C.ar    1  UNL1       -0.0329
     28 C          -7.9271    0.3389    1.7557 C.ar    1  UNL1        0.0282
     29 N          -7.6132    0.1121    3.0428 N.ar    1  UNL1       -0.2632
     30 C          -6.3605   -0.2926    3.3733 C.ar    1  UNL1        0.0282
     31 C          -5.3699   -0.4843    2.4022 C.ar    1  UNL1       -0.0329
     32 H          -5.2697    3.3772   -0.3579 H       1  UNL1        0.0247
     33 H          -5.3903    2.0529   -1.5731 H       1  UNL1        0.0247
     34 H          -4.0867    3.2728   -1.7388 H       1  UNL1        0.0247
     35 H          -2.7488    2.2764   -0.2214 H       1  UNL1        0.0490
     36 H          -4.0614    1.9632    0.9306 H       1  UNL1        0.0490
     37 H          -2.3397    1.5266   -2.4964 H       1  UNL1        0.0542
     38 H          -1.8923   -0.0828   -3.1471 H       1  UNL1        0.0542
     39 H          -0.4086    1.5027   -1.1744 H       1  UNL1        0.1465
     40 H          -1.0037   -1.9364   -2.4967 H       1  UNL1        0.0636
     41 H           0.4809   -3.8379   -2.1432 H       1  UNL1        0.0618
     42 H           2.5817   -3.5087   -0.8009 H       1  UNL1        0.0625
     43 H           3.1964    0.7749    0.8022 H       1  UNL1        0.1493
     44 H           4.9602    0.9505    2.3304 H       1  UNL1        0.0512
     45 H           5.1511   -0.8268    2.3820 H       1  UNL1        0.0512
     46 H           6.0271    2.2384    0.6276 H       1  UNL1        0.0621
     47 H           8.0829    2.5111   -0.8033 H       1  UNL1        0.0618
     48 H           9.4499    0.5575   -1.3867 H       1  UNL1        0.0618
     49 H           8.7982   -1.6403   -0.5701 H       1  UNL1        0.0618
     50 H           6.8047   -1.9071    0.8271 H       1  UNL1        0.0621
     51 H           1.5246    0.6149   -0.2380 H       1  UNL1        0.0643
     52 H          -7.2269    0.3414   -0.2558 H       1  UNL1        0.0640
     53 H          -8.9281    0.6588    1.5237 H       1  UNL1        0.0830
     54 H          -6.1178   -0.4708    4.3962 H       1  UNL1        0.0830
     55 H          -4.3929   -0.8067    2.7240 H       1  UNL1        0.0640
@<TRIPOS>BOND
     1     1     2    1
     2     2     3    1
     3     3     4   ar
     4     4     5    1
     5     5     6    1
     6     6     7    1
     7     7     8   ar
     8     8     9   ar
     9     9    10   ar
    10    10    11   ar
    11    11    12    1
    12    12    13    2
    13    12    14   am
    14    14    15    1
    15    15    16    1
    16    16    17   ar
    17    17    18   ar
    18    18    19   ar
    19    19    20   ar
    20    20    21   ar
    21    11    22   ar
    22     4    23   ar
    23    23    24   ar
    24    24    25   ar
    25    25    26    1
    26    26    27   ar
    27    27    28   ar
    28    28    29   ar
    29    29    30   ar
    30    30    31   ar
    31    25     3   ar
    32    31    26   ar
    33    22     7   ar
    34    21    16   ar
    35     1    32    1
    36     1    33    1
    37     1    34    1
    38     2    35    1
    39     2    36    1
    40     5    37    1
    41     5    38    1
    42     6    39    1
    43     8    40    1
    44     9    41    1
    45    10    42    1
    46    14    43    1
    47    15    44    1
    48    15    45    1
    49    17    46    1
    50    18    47    1
    51    19    48    1
    52    20    49    1
    53    21    50    1
    54    22    51    1
    55    27    52    1
    56    28    53    1
    57    30    54    1
    58    31    55    1
