@<TRIPOS>MOLECULE
*****
 49 51 0 0 0
SMALL
GASTEIGER

@<TRIPOS>ATOM
      1 C           1.8241    2.9159    1.1537 C.3     1  UNL1       -0.0395
      2 C           1.2812    1.7576    0.3960 C.ar    1  UNL1       -0.0452
      3 C          -0.0467    1.8236    0.0476 C.ar    1  UNL1       -0.0169
      4 C          -0.7184    0.8531   -0.6483 C.ar    1  UNL1        0.1226
      5 O          -1.9815    0.6628   -1.1064 O.3     1  UNL1       -0.4903
      6 C          -3.0655    1.5184   -0.9421 C.3     1  UNL1        0.1049
      7 C          -3.4602    1.6887    0.4959 C.3     1  UNL1        0.0433
      8 N          -3.8156    0.3561    1.0029 N.pl3   1  UNL1       -0.3403
      9 C          -4.8916   -0.5210    0.7582 C.ar    1  UNL1        0.0385
     10 C          -4.9866   -1.7910    1.3432 C.ar    1  UNL1        0.0229
     11 C          -6.0937   -2.5475    1.0423 C.ar    1  UNL1        0.1712
     12 N          -7.1020   -2.1804    0.2328 N.ar    1  UNL1       -0.2171
     13 C          -7.0240   -0.9634   -0.3357 C.ar    1  UNL1        0.1712
     14 C          -5.9354   -0.1607   -0.0693 C.ar    1  UNL1        0.0229
     15 C           0.0617   -0.2625   -1.0027 C.ar    1  UNL1        0.0025
     16 C           1.4097   -0.3919   -0.6823 C.ar    1  UNL1        0.0518
     17 N           2.1965   -1.5106   -1.0554 N.pl3   1  UNL1       -0.2161
     18 S           3.7328   -1.7074   -1.7962 S.O2    1  UNL1        0.0723
     19 O           3.7309   -1.1318   -3.1878 O.2     1  UNL1       -0.1500
     20 O           4.0223   -3.1935   -1.8907 O.2     1  UNL1       -0.1500
     21 C           4.9976   -1.0024   -0.8245 C.ar    1  UNL1        0.1085
     22 C           5.5556   -1.7849    0.1891 C.ar    1  UNL1       -0.0351
     23 C           6.5656   -1.3691    1.0274 C.ar    1  UNL1       -0.0599
     24 C           7.0779   -0.1185    0.8873 C.ar    1  UNL1       -0.0616
     25 C           6.5536    0.6761   -0.0974 C.ar    1  UNL1       -0.0599
     26 C           5.5558    0.2760   -0.9314 C.ar    1  UNL1       -0.0351
     27 C           1.9936    0.6397    0.0214 C.ar    1  UNL1       -0.0362
     28 H           2.0157    3.7276    0.4153 H       1  UNL1        0.0278
     29 H           2.7387    2.6378    1.7114 H       1  UNL1        0.0278
     30 H           1.0190    3.2931    1.8284 H       1  UNL1        0.0278
     31 H          -0.6419    2.6687    0.2932 H       1  UNL1        0.0657
     32 H          -2.8009    2.5782   -1.2844 H       1  UNL1        0.0712
     33 H          -3.9483    1.2293   -1.5469 H       1  UNL1        0.0712
     34 H          -2.6844    2.1215    1.1136 H       1  UNL1        0.0495
     35 H          -4.3424    2.3728    0.5906 H       1  UNL1        0.0495
     36 H          -3.1168   -0.0407    1.7050 H       1  UNL1        0.1462
     37 H          -4.1975   -2.1092    1.9925 H       1  UNL1        0.0695
     38 H          -6.1034   -3.5065    1.5224 H       1  UNL1        0.1376
     39 H          -7.9025   -2.8283    0.0662 H       1  UNL1        0.4522
     40 H          -7.8508   -0.7081   -0.9763 H       1  UNL1        0.1376
     41 H          -6.0095    0.7727   -0.5743 H       1  UNL1        0.0695
     42 H          -0.2808   -1.1479   -1.5606 H       1  UNL1        0.0673
     43 H           1.6352   -2.3438   -0.7767 H       1  UNL1        0.1737
     44 H           5.2035   -2.8011    0.3706 H       1  UNL1        0.0637
     45 H           6.9660   -2.0069    1.7963 H       1  UNL1        0.0618
     46 H           7.8571    0.3258    1.4669 H       1  UNL1        0.0618
     47 H           6.8750    1.6984   -0.3147 H       1  UNL1        0.0618
     48 H           5.1061    0.8655   -1.7260 H       1  UNL1        0.0637
     49 H           3.0253    0.6699    0.3396 H       1  UNL1        0.0639
@<TRIPOS>UNITY_ATOM_ATTR
12 1
charge 1
@<TRIPOS>BOND
     1     1     2    1
     2     2     3   ar
     3     3     4   ar
     4     4     5    1
     5     5     6    1
     6     6     7    1
     7     7     8    1
     8     8     9    1
     9     9    10   ar
    10    10    11   ar
    11    11    12   ar
    12    12    13   ar
    13    13    14   ar
    14     4    15   ar
    15    15    16   ar
    16    16    17    1
    17    17    18    1
    18    18    19    2
    19    18    20    2
    20    18    21    1
    21    21    22   ar
    22    22    23   ar
    23    23    24   ar
    24    24    25   ar
    25    25    26   ar
    26    16    27   ar
    27    27     2   ar
    28    14     9   ar
    29    26    21   ar
    30     1    28    1
    31     1    29    1
    32     1    30    1
    33     3    31    1
    34     6    32    1
    35     6    33    1
    36     7    34    1
    37     7    35    1
    38     8    36    1
    39    10    37    1
    40    11    38    1
    41    12    39    1
    42    13    40    1
    43    14    41    1
    44    15    42    1
    45    17    43    1
    46    22    44    1
    47    23    45    1
    48    24    46    1
    49    25    47    1
    50    26    48    1
    51    27    49    1
