@<TRIPOS>MOLECULE
*****
 45 48 0 0 0
SMALL
GASTEIGER

@<TRIPOS>ATOM
      1 O           2.0046   -1.6811   -1.8317 O.2     1  UNL1       -0.2687
      2 C           2.4198   -0.6998   -1.1494 C.2     1  UNL1        0.2601
      3 N           1.4971    0.2564   -0.6987 N.am    1  UNL1       -0.2313
      4 N           0.1256    0.1778   -0.9692 N.pl3   1  UNL1       -0.2467
      5 C          -0.7885   -0.4980   -0.1222 C.ar    1  UNL1        0.1574
      6 N          -1.0604   -1.8193   -0.3231 N.ar    1  UNL1       -0.2274
      7 C          -1.9221   -2.4626    0.4845 C.ar    1  UNL1        0.0914
      8 C          -2.1950   -3.8200    0.2701 C.ar    1  UNL1       -0.0342
      9 C          -3.0683   -4.4481    1.0985 C.ar    1  UNL1       -0.0596
     10 C          -3.6867   -3.7860    2.1361 C.ar    1  UNL1       -0.0596
     11 C          -3.4242   -2.4632    2.3493 C.ar    1  UNL1       -0.0342
     12 C          -2.5303   -1.7830    1.5167 C.ar    1  UNL1        0.0896
     13 N          -2.2801   -0.4805    1.7367 N.ar    1  UNL1       -0.2463
     14 C          -1.4088    0.1598    0.9156 C.ar    1  UNL1        0.0872
     15 C          -1.1533    1.6099    1.1736 C.3     1  UNL1        0.0182
     16 C          -1.8757    2.5107    0.2559 C.ar    1  UNL1       -0.0415
     17 C          -1.3130    3.0924   -0.8457 C.ar    1  UNL1       -0.0582
     18 C          -2.0095    3.9309   -1.6974 C.ar    1  UNL1       -0.0615
     19 C          -3.3283    4.2041   -1.4412 C.ar    1  UNL1       -0.0617
     20 C          -3.9320    3.6308   -0.3311 C.ar    1  UNL1       -0.0615
     21 C          -3.2087    2.7938    0.5052 C.ar    1  UNL1       -0.0582
     22 C           3.8418   -0.6174   -0.8685 C.ar    1  UNL1        0.0382
     23 C           4.7261   -1.5814   -1.3387 C.ar    1  UNL1       -0.0482
     24 C           6.0778   -1.5497   -1.1007 C.ar    1  UNL1       -0.0427
     25 C           6.6048   -0.5127   -0.3565 C.ar    1  UNL1        0.0410
     26 CL          8.3426   -0.4440   -0.0331 Cl      1  UNL1       -0.0835
     27 C           5.7604    0.4498    0.1192 C.ar    1  UNL1       -0.0427
     28 C           4.3934    0.4005   -0.1325 C.ar    1  UNL1       -0.0482
     29 H           1.8568    1.0674   -0.1343 H       1  UNL1        0.1731
     30 H          -0.2295    0.6274   -1.8257 H       1  UNL1        0.1716
     31 H          -1.6823   -4.2936   -0.5596 H       1  UNL1        0.0639
     32 H          -3.2939   -5.4988    0.9503 H       1  UNL1        0.0618
     33 H          -4.3916   -4.3099    2.7979 H       1  UNL1        0.0618
     34 H          -3.9004   -1.9040    3.1685 H       1  UNL1        0.0639
     35 H          -0.0672    1.8068    1.0500 H       1  UNL1        0.0378
     36 H          -1.4892    1.8188    2.2125 H       1  UNL1        0.0378
     37 H          -0.2877    2.9138   -1.0839 H       1  UNL1        0.0620
     38 H          -1.5163    4.3664   -2.5572 H       1  UNL1        0.0618
     39 H          -3.8980    4.8681   -2.1068 H       1  UNL1        0.0618
     40 H          -4.9751    3.8605   -0.1469 H       1  UNL1        0.0618
     41 H          -3.7043    2.3659    1.3559 H       1  UNL1        0.0620
     42 H           4.2901   -2.3921   -1.9243 H       1  UNL1        0.0625
     43 H           6.7476   -2.3216   -1.4834 H       1  UNL1        0.0632
     44 H           6.1440    1.2759    0.7056 H       1  UNL1        0.0632
     45 H           3.7879    1.1788    0.2649 H       1  UNL1        0.0625
@<TRIPOS>BOND
     1     1     2    2
     2     2     3   am
     3     3     4    1
     4     4     5    1
     5     5     6   ar
     6     6     7   ar
     7     7     8   ar
     8     8     9   ar
     9     9    10   ar
    10    10    11   ar
    11    11    12   ar
    12    12    13   ar
    13    13    14   ar
    14    14    15    1
    15    15    16    1
    16    16    17   ar
    17    17    18   ar
    18    18    19   ar
    19    19    20   ar
    20    20    21   ar
    21     2    22    1
    22    22    23   ar
    23    23    24   ar
    24    24    25   ar
    25    25    26    1
    26    25    27   ar
    27    27    28   ar
    28    14     5   ar
    29    21    16   ar
    30    28    22   ar
    31    12     7   ar
    32     3    29    1
    33     4    30    1
    34     8    31    1
    35     9    32    1
    36    10    33    1
    37    11    34    1
    38    15    35    1
    39    15    36    1
    40    17    37    1
    41    18    38    1
    42    19    39    1
    43    20    40    1
    44    21    41    1
    45    23    42    1
    46    24    43    1
    47    27    44    1
    48    28    45    1
