@<TRIPOS>MOLECULE
*****
 35 37 0 0 0
SMALL
GASTEIGER

@<TRIPOS>ATOM
      1 C          -4.6911   -1.0097    0.9807 C.3     1  UNL1       -0.0155
      2 N          -3.5653   -1.5266    0.2337 N.3     1  UNL1       -0.3159
      3 C          -2.5071   -0.5637    0.3265 C.3     1  UNL1        0.0117
      4 C          -2.9368    0.7759   -0.2538 C.3     1  UNL1       -0.0319
      5 C          -2.0725    1.8041    0.4596 C.3     1  UNL1       -0.0108
      6 C          -0.6663    1.3209    0.3088 C.ar    1  UNL1        0.0203
      7 C          -0.2155    0.0723   -0.0916 C.ar    1  UNL1       -0.0176
      8 C          -1.2579   -0.9557   -0.4261 C.3     1  UNL1       -0.0100
      9 C           1.1585    0.1363   -0.0664 C.ar    1  UNL1        0.0039
     10 C           1.5154    1.3942    0.3398 C.ar    1  UNL1        0.0470
     11 N           0.4046    2.0961    0.5620 N.ar    1  UNL1       -0.3577
     12 C           2.8756    1.6395    0.4233 C.ar    1  UNL1       -0.0371
     13 C           3.8424    0.7284    0.1333 C.ar    1  UNL1       -0.0477
     14 C           3.4566   -0.5435   -0.2774 C.ar    1  UNL1        0.0372
     15 C           2.0973   -0.8420   -0.3782 C.ar    1  UNL1       -0.0402
     16 C           4.3525   -1.6285   -0.6237 C.2     1  UNL1        0.2416
     17 N           5.7651   -1.3644   -0.5339 N.am    1  UNL1       -0.3253
     18 O           4.0903   -2.7826   -0.9961 O.2     1  UNL1       -0.2704
     19 H          -5.1889   -1.8916    1.4458 H       1  UNL1        0.0388
     20 H          -5.4147   -0.5277    0.2877 H       1  UNL1        0.0388
     21 H          -4.3699   -0.2611    1.7438 H       1  UNL1        0.0388
     22 H          -3.8100   -1.6732   -0.7666 H       1  UNL1        0.1219
     23 H          -2.1856   -0.4387    1.3933 H       1  UNL1        0.0463
     24 H          -2.6317    0.8271   -1.3338 H       1  UNL1        0.0284
     25 H          -4.0147    0.9564   -0.1241 H       1  UNL1        0.0284
     26 H          -2.2323    2.7586   -0.0799 H       1  UNL1        0.0328
     27 H          -2.3593    1.8882    1.5217 H       1  UNL1        0.0328
     28 H          -1.5073   -0.8677   -1.5192 H       1  UNL1        0.0329
     29 H          -0.9224   -1.9763   -0.2500 H       1  UNL1        0.0329
     30 H           0.4924    3.0986    0.8850 H       1  UNL1        0.1656
     31 H           3.1980    2.6197    0.7399 H       1  UNL1        0.0638
     32 H           4.9029    0.9117    0.1959 H       1  UNL1        0.0626
     33 H           1.7405   -1.8165   -0.6931 H       1  UNL1        0.0632
     34 H           6.5607   -1.9540   -0.2308 H       1  UNL1        0.1453
     35 H           6.0967   -0.4043   -0.8200 H       1  UNL1        0.1453
@<TRIPOS>BOND
     1     1     2    1
     2     2     3    1
     3     3     4    1
     4     4     5    1
     5     5     6    1
     6     6     7   ar
     7     7     8    1
     8     7     9   ar
     9     9    10   ar
    10    10    11   ar
    11    10    12   ar
    12    12    13   ar
    13    13    14   ar
    14    14    15   ar
    15    14    16    1
    16    16    17   am
    17    16    18    2
    18     8     3    1
    19    15     9   ar
    20    11     6   ar
    21     1    19    1
    22     1    20    1
    23     1    21    1
    24     2    22    1
    25     3    23    1
    26     4    24    1
    27     4    25    1
    28     5    26    1
    29     5    27    1
    30     8    28    1
    31     8    29    1
    32    11    30    1
    33    12    31    1
    34    13    32    1
    35    15    33    1
    36    17    34    1
    37    17    35    1
