
     RDKit          3D

 35 37  0  0  0  0  0  0  0  0999 V2000
   -4.6911   -1.0097    0.9807 C   0  0  0  0  0  0  0  0  0  0  0  0
   -3.5653   -1.5266    0.2337 N   0  0  0  0  0  0  0  0  0  0  0  0
   -2.5071   -0.5637    0.3265 C   0  0  2  0  0  0  0  0  0  0  0  0
   -2.9368    0.7759   -0.2538 C   0  0  0  0  0  0  0  0  0  0  0  0
   -2.0725    1.8041    0.4596 C   0  0  0  0  0  0  0  0  0  0  0  0
   -0.6663    1.3209    0.3088 C   0  0  0  0  0  0  0  0  0  0  0  0
   -0.2155    0.0723   -0.0916 C   0  0  0  0  0  0  0  0  0  0  0  0
   -1.2579   -0.9557   -0.4261 C   0  0  0  0  0  0  0  0  0  0  0  0
    1.1585    0.1363   -0.0664 C   0  0  0  0  0  0  0  0  0  0  0  0
    1.5154    1.3942    0.3398 C   0  0  0  0  0  0  0  0  0  0  0  0
    0.4046    2.0961    0.5620 N   0  0  0  0  0  0  0  0  0  0  0  0
    2.8756    1.6395    0.4233 C   0  0  0  0  0  0  0  0  0  0  0  0
    3.8424    0.7284    0.1333 C   0  0  0  0  0  0  0  0  0  0  0  0
    3.4566   -0.5435   -0.2774 C   0  0  0  0  0  0  0  0  0  0  0  0
    2.0973   -0.8420   -0.3782 C   0  0  0  0  0  0  0  0  0  0  0  0
    4.3525   -1.6285   -0.6237 C   0  0  0  0  0  0  0  0  0  0  0  0
    5.7651   -1.3644   -0.5339 N   0  0  0  0  0  0  0  0  0  0  0  0
    4.0903   -2.7826   -0.9961 O   0  0  0  0  0  0  0  0  0  0  0  0
   -5.1889   -1.8916    1.4458 H   0  0  0  0  0  0  0  0  0  0  0  0
   -5.4147   -0.5277    0.2877 H   0  0  0  0  0  0  0  0  0  0  0  0
   -4.3699   -0.2611    1.7438 H   0  0  0  0  0  0  0  0  0  0  0  0
   -3.8100   -1.6732   -0.7666 H   0  0  0  0  0  0  0  0  0  0  0  0
   -2.1856   -0.4387    1.3933 H   0  0  0  0  0  0  0  0  0  0  0  0
   -2.6317    0.8271   -1.3338 H   0  0  0  0  0  0  0  0  0  0  0  0
   -4.0147    0.9564   -0.1241 H   0  0  0  0  0  0  0  0  0  0  0  0
   -2.2323    2.7586   -0.0799 H   0  0  0  0  0  0  0  0  0  0  0  0
   -2.3593    1.8882    1.5217 H   0  0  0  0  0  0  0  0  0  0  0  0
   -1.5073   -0.8677   -1.5192 H   0  0  0  0  0  0  0  0  0  0  0  0
   -0.9224   -1.9763   -0.2500 H   0  0  0  0  0  0  0  0  0  0  0  0
    0.4924    3.0986    0.8850 H   0  0  0  0  0  0  0  0  0  0  0  0
    3.1980    2.6197    0.7399 H   0  0  0  0  0  0  0  0  0  0  0  0
    4.9029    0.9117    0.1959 H   0  0  0  0  0  0  0  0  0  0  0  0
    1.7405   -1.8165   -0.6931 H   0  0  0  0  0  0  0  0  0  0  0  0
    6.5607   -1.9540   -0.2308 H   0  0  0  0  0  0  0  0  0  0  0  0
    6.0967   -0.4043   -0.8200 H   0  0  0  0  0  0  0  0  0  0  0  0
  1  2  1  0
  2  3  1  0
  3  4  1  0
  4  5  1  0
  5  6  1  0
  6  7  2  0
  7  8  1  0
  7  9  1  0
  9 10  2  0
 10 11  1  0
 10 12  1  0
 12 13  2  0
 13 14  1  0
 14 15  2  0
 14 16  1  0
 16 17  1  0
 16 18  2  0
  8  3  1  0
 15  9  1  0
 11  6  1  0
  1 19  1  0
  1 20  1  0
  1 21  1  0
  2 22  1  0
  3 23  1  1
  4 24  1  0
  4 25  1  0
  5 26  1  0
  5 27  1  0
  8 28  1  0
  8 29  1  0
 11 30  1  0
 12 31  1  0
 13 32  1  0
 15 33  1  0
 17 34  1  0
 17 35  1  0
M  END
$$$$
