@<TRIPOS>MOLECULE
*****
 72 77 0 0 0
SMALL
GASTEIGER

@<TRIPOS>ATOM
      1 O          10.0573    1.3912    3.1648 O.2     1  UNL1       -0.2399
      2 C           9.8525    1.1707    1.9616 C.2     1  UNL1        0.3926
      3 O          10.9338    0.7951    1.1761 O.3     1  UNL1       -0.4740
      4 C           8.5326    1.2956    1.3710 C.2     1  UNL1        0.3254
      5 O           7.5679    1.6419    2.1150 O.2     1  UNL1       -0.2627
      6 N           8.3637    1.0284   -0.0107 N.am    1  UNL1       -0.2761
      7 C           7.0944    1.1423   -0.6186 C.ar    1  UNL1        0.0346
      8 C           6.7259    2.3635   -1.1592 C.ar    1  UNL1       -0.0385
      9 C           5.5075    2.5085   -1.7697 C.ar    1  UNL1       -0.0360
     10 C           4.6662    1.4249   -1.8331 C.ar    1  UNL1        0.0468
     11 N           3.4396    1.2529   -2.3722 N.ar    1  UNL1       -0.3604
     12 C           3.0266   -0.0085   -2.1935 C.ar    1  UNL1        0.0060
     13 C           4.0181   -0.7212   -1.5017 C.ar    1  UNL1       -0.0200
     14 C           3.8511   -2.1305   -1.1000 C.3     1  UNL1        0.0032
     15 CA          3.2984   -2.2749    0.3086 C.3     1  UNL1        0.1245
     16 N           1.9990   -1.5960    0.3235 N.am    1  UNL1       -0.2981
     17 C           0.7845   -2.3158    0.4730 C.2     1  UNL1        0.2448
     18 O           0.8664   -3.5607    0.6015 O.2     1  UNL1       -0.2702
     19 C          -0.5363   -1.7068    0.4841 C.ar    1  UNL1        0.0388
     20 C          -1.6609   -2.4858    0.6441 C.ar    1  UNL1       -0.0476
     21 C          -2.9540   -1.9733    0.6476 C.ar    1  UNL1       -0.0353
     22 C          -3.1162   -0.6322    0.4849 C.ar    1  UNL1        0.0694
     23 C          -2.0028    0.1963    0.3196 C.ar    1  UNL1        0.0904
     24 C          -0.7432   -0.3455    0.3216 C.ar    1  UNL1       -0.0221
     25 N          -2.5165    1.4211    0.1871 N.ar    1  UNL1       -0.2274
     26 C          -3.8291    1.3942    0.2584 C.ar    1  UNL1        0.1451
     27 C          -4.6533    2.5983    0.1424 C.ar    1  UNL1        0.0551
     28 C          -5.3775    3.1916    1.1417 C.ar    1  UNL1       -0.0132
     29 C          -5.9903    4.2953    0.5650 C.ar    1  UNL1        0.0924
     30 O          -5.6396    4.3395   -0.7030 O.2     1  UNL1       -0.4703
     31 C          -4.8349    3.3365   -1.0006 C.ar    1  UNL1        0.1023
     32 N          -4.2465    0.1047    0.4476 N.ar    1  UNL1       -0.3204
     33 C          -5.6196   -0.1878    0.5550 C.3     1  UNL1        0.0365
     34 C          -6.1002   -1.4958    0.9611 C.3     1  UNL1       -0.0320
     35 C          -7.6196   -1.3321    1.2349 C.3     1  UNL1       -0.0512
     36 C          -8.2684   -1.2020   -0.1114 C.3     1  UNL1       -0.0529
     37 C          -7.3215   -0.8063   -1.2003 C.3     1  UNL1       -0.0512
     38 C          -6.2804    0.2058   -0.7748 C.3     1  UNL1       -0.0320
     39 C           4.2045   -1.8564    1.3535 C.2     1  UNL1        0.3256
     40 O           3.9427   -0.9130    2.1514 O.2     1  UNL1       -0.2489
     41 OXT         5.4249   -2.4907    1.5297 O.3     1  UNL1       -0.4793
     42 C           5.0220    0.1899   -1.2927 C.ar    1  UNL1        0.0046
     43 C           6.2441    0.0691   -0.6884 C.ar    1  UNL1       -0.0310
     44 H          11.7228    0.2983    1.5865 H       1  UNL1        0.2956
     45 H           9.1966    0.7470   -0.5623 H       1  UNL1        0.1553
     46 H           7.4015    3.2262   -1.1064 H       1  UNL1        0.0637
     47 H           5.2419    3.4634   -2.1817 H       1  UNL1        0.0639
     48 H           2.9330    2.0426   -2.8528 H       1  UNL1        0.1653
     49 H           2.0754   -0.4003   -2.5347 H       1  UNL1        0.0810
     50 H           3.2090   -2.6877   -1.8048 H       1  UNL1        0.0337
     51 H           4.8296   -2.6805   -1.0852 H       1  UNL1        0.0337
     52 HA          3.0808   -3.3789    0.4326 H       1  UNL1        0.0618
     53 H           1.9365   -0.5627    0.2237 H       1  UNL1        0.1498
     54 H          -1.5816   -3.5732    0.7790 H       1  UNL1        0.0626
     55 H          -3.8169   -2.5954    0.7727 H       1  UNL1        0.0639
     56 H           0.0962    0.2913    0.1969 H       1  UNL1        0.0647
     57 H          -5.4885    2.9113    2.1777 H       1  UNL1        0.0656
     58 H          -6.6439    5.0276    1.0011 H       1  UNL1        0.1029
     59 H          -4.3841    3.1052   -1.9481 H       1  UNL1        0.1036
     60 H          -6.0611    0.5583    1.2919 H       1  UNL1        0.0528
     61 H          -6.0912   -2.2917    0.1890 H       1  UNL1        0.0285
     62 H          -5.7253   -1.8292    1.9601 H       1  UNL1        0.0285
     63 H          -7.7388   -0.3842    1.8172 H       1  UNL1        0.0266
     64 H          -7.9930   -2.2092    1.8024 H       1  UNL1        0.0266
     65 H          -9.1170   -0.4874    0.0088 H       1  UNL1        0.0265
     66 H          -8.6921   -2.2101   -0.3759 H       1  UNL1        0.0265
     67 H          -6.8852   -1.6739   -1.7369 H       1  UNL1        0.0266
     68 H          -7.9456   -0.2792   -1.9818 H       1  UNL1        0.0266
     69 H          -5.5223    0.2428   -1.5871 H       1  UNL1        0.0285
     70 H          -6.7678    1.1845   -0.7409 H       1  UNL1        0.0285
     71 HXT         6.0628   -2.2887    2.2892 H       1  UNL1        0.2951
     72 H           6.5551   -0.8884   -0.2676 H       1  UNL1        0.0643
@<TRIPOS>BOND
     1     1     2    2
     2     2     3    1
     3     2     4    1
     4     4     5    2
     5     4     6   am
     6     6     7    1
     7     7     8   ar
     8     8     9   ar
     9     9    10   ar
    10    10    11   ar
    11    11    12   ar
    12    12    13   ar
    13    13    14    1
    14    14    15    1
    15    15    16    1
    16    16    17   am
    17    17    18    2
    18    17    19    1
    19    19    20   ar
    20    20    21   ar
    21    21    22   ar
    22    22    23   ar
    23    23    24   ar
    24    23    25   ar
    25    25    26   ar
    26    26    27    1
    27    27    28   ar
    28    28    29   ar
    29    29    30   ar
    30    30    31   ar
    31    26    32   ar
    32    32    33    1
    33    33    34    1
    34    34    35    1
    35    35    36    1
    36    36    37    1
    37    37    38    1
    38    15    39    1
    39    39    40    2
    40    39    41    1
    41    13    42   ar
    42    42    43   ar
    43    43     7   ar
    44    42    10   ar
    45    24    19   ar
    46    31    27   ar
    47    38    33    1
    48    32    22   ar
    49     3    44    1
    50     6    45    1
    51     8    46    1
    52     9    47    1
    53    11    48    1
    54    12    49    1
    55    14    50    1
    56    14    51    1
    57    15    52    1
    58    16    53    1
    59    20    54    1
    60    21    55    1
    61    24    56    1
    62    28    57    1
    63    29    58    1
    64    31    59    1
    65    33    60    1
    66    34    61    1
    67    34    62    1
    68    35    63    1
    69    35    64    1
    70    36    65    1
    71    36    66    1
    72    37    67    1
    73    37    68    1
    74    38    69    1
    75    38    70    1
    76    41    71    1
    77    43    72    1
