
     RDKit          3D

 30 31  0  0  0  0  0  0  0  0999 V2000
    3.4568   -0.7525   -0.0571 C   0  0  0  0  0  0  0  0  0  0  0  0
    2.1495   -0.0256   -0.3755 C   0  0  0  0  0  0  0  0  0  0  0  0
    2.3689    1.3966    0.1339 C   0  0  0  0  0  0  0  0  0  0  0  0
    1.0879   -0.7281    0.3536 C   0  0  0  0  0  0  0  0  0  0  0  0
   -0.2459   -0.3095    0.2753 N   0  0  0  0  0  0  0  0  0  0  0  0
   -1.0097   -0.8559   -0.7175 C   0  0  0  0  0  0  0  0  0  0  0  0
   -2.3279   -0.5402   -0.9128 C   0  0  0  0  0  0  0  0  0  0  0  0
   -2.8269   -1.2255   -1.9572 N   0  0  0  0  0  0  0  0  0  0  0  0
   -1.8255   -1.9860   -2.4365 C   0  0  0  0  0  0  0  0  0  0  0  0
   -0.7307   -1.7604   -1.6861 N   0  0  0  0  0  0  0  0  0  0  0  0
   -2.8930    0.3924   -0.0352 C   0  0  0  0  0  0  0  0  0  0  0  0
   -4.1162    0.6626   -0.2439 O   0  0  0  0  0  0  0  0  0  0  0  0
   -2.1411    0.9246    0.9351 N   0  0  0  0  0  0  0  0  0  0  0  0
   -2.7623    1.8913    1.8292 C   0  0  0  0  0  0  0  0  0  0  0  0
   -0.8705    0.5588    1.0493 C   0  0  0  0  0  0  0  0  0  0  0  0
   -0.2180    1.0907    1.9758 O   0  0  0  0  0  0  0  0  0  0  0  0
    3.6908   -0.7336    1.0240 H   0  0  0  0  0  0  0  0  0  0  0  0
    3.4416   -1.8079   -0.3990 H   0  0  0  0  0  0  0  0  0  0  0  0
    4.3211   -0.2860   -0.5777 H   0  0  0  0  0  0  0  0  0  0  0  0
    2.0515   -0.0546   -1.4694 H   0  0  0  0  0  0  0  0  0  0  0  0
    2.4100    1.4222    1.2386 H   0  0  0  0  0  0  0  0  0  0  0  0
    1.6526    2.0959   -0.3148 H   0  0  0  0  0  0  0  0  0  0  0  0
    3.3927    1.7584   -0.1777 H   0  0  0  0  0  0  0  0  0  0  0  0
    1.3679   -0.7448    1.4471 H   0  0  0  0  0  0  0  0  0  0  0  0
    1.1539   -1.8173    0.0720 H   0  0  0  0  0  0  0  0  0  0  0  0
   -1.8404   -2.6797   -3.2795 H   0  0  0  0  0  0  0  0  0  0  0  0
    0.1963   -2.2227   -1.8385 H   0  0  0  0  0  0  0  0  0  0  0  0
   -3.4982    2.4669    1.2179 H   0  0  0  0  0  0  0  0  0  0  0  0
   -3.3825    1.3323    2.5788 H   0  0  0  0  0  0  0  0  0  0  0  0
   -2.0528    2.5376    2.3477 H   0  0  0  0  0  0  0  0  0  0  0  0
  1  2  1  0
  2  3  1  0
  2  4  1  0
  4  5  1  0
  5  6  1  0
  6  7  2  0
  7  8  1  0
  8  9  2  0
  9 10  1  0
  7 11  1  0
 11 12  2  0
 11 13  1  0
 13 14  1  0
 13 15  1  0
 15 16  2  0
 15  5  1  0
 10  6  1  0
  1 17  1  0
  1 18  1  0
  1 19  1  0
  2 20  1  0
  3 21  1  0
  3 22  1  0
  3 23  1  0
  4 24  1  0
  4 25  1  0
  9 26  1  0
 10 27  1  0
 14 28  1  0
 14 29  1  0
 14 30  1  0
M  END
$$$$
