@<TRIPOS>MOLECULE
*****
 30 31 0 0 0
SMALL
GASTEIGER

@<TRIPOS>ATOM
      1 C           3.4568   -0.7525   -0.0571 C.3     1  UNL1       -0.0610
      2 C           2.1495   -0.0256   -0.3755 C.3     1  UNL1       -0.0285
      3 C           2.3689    1.3966    0.1339 C.3     1  UNL1       -0.0610
      4 C           1.0879   -0.7281    0.3536 C.3     1  UNL1        0.0318
      5 N          -0.2459   -0.3095    0.2753 N.ar    1  UNL1       -0.2776
      6 C          -1.0097   -0.8559   -0.7175 C.ar    1  UNL1        0.1476
      7 C          -2.3279   -0.5402   -0.9128 C.ar    1  UNL1        0.1704
      8 N          -2.8269   -1.2255   -1.9572 N.ar    1  UNL1       -0.2289
      9 C          -1.8255   -1.9860   -2.4365 C.ar    1  UNL1        0.0957
     10 N          -0.7307   -1.7604   -1.6861 N.ar    1  UNL1       -0.3304
     11 C          -2.8930    0.3924   -0.0352 C.ar    1  UNL1        0.2840
     12 O          -4.1162    0.6626   -0.2439 O.2     1  UNL1       -0.2651
     13 N          -2.1411    0.9246    0.9351 N.ar    1  UNL1       -0.2621
     14 C          -2.7623    1.8913    1.8292 C.3     1  UNL1        0.0196
     15 C          -0.8705    0.5588    1.0493 C.ar    1  UNL1        0.3333
     16 O          -0.2180    1.0907    1.9758 O.2     1  UNL1       -0.2462
     17 H           3.6908   -0.7336    1.0240 H       1  UNL1        0.0233
     18 H           3.4416   -1.8079   -0.3990 H       1  UNL1        0.0233
     19 H           4.3211   -0.2860   -0.5777 H       1  UNL1        0.0233
     20 H           2.0515   -0.0546   -1.4694 H       1  UNL1        0.0313
     21 H           2.4100    1.4222    1.2386 H       1  UNL1        0.0233
     22 H           1.6526    2.0959   -0.3148 H       1  UNL1        0.0233
     23 H           3.3927    1.7584   -0.1777 H       1  UNL1        0.0233
     24 H           1.3679   -0.7448    1.4471 H       1  UNL1        0.0496
     25 H           1.1539   -1.8173    0.0720 H       1  UNL1        0.0496
     26 H          -1.8404   -2.6797   -3.2795 H       1  UNL1        0.1027
     27 H           0.1963   -2.2227   -1.8385 H       1  UNL1        0.1682
     28 H          -3.4982    2.4669    1.2179 H       1  UNL1        0.0458
     29 H          -3.3825    1.3323    2.5788 H       1  UNL1        0.0458
     30 H          -2.0528    2.5376    2.3477 H       1  UNL1        0.0458
@<TRIPOS>BOND
     1     1     2    1
     2     2     3    1
     3     2     4    1
     4     4     5    1
     5     5     6   ar
     6     6     7   ar
     7     7     8   ar
     8     8     9   ar
     9     9    10   ar
    10     7    11   ar
    11    11    12    2
    12    11    13   ar
    13    13    14    1
    14    13    15   ar
    15    15    16    2
    16    15     5   ar
    17    10     6   ar
    18     1    17    1
    19     1    18    1
    20     1    19    1
    21     2    20    1
    22     3    21    1
    23     3    22    1
    24     3    23    1
    25     4    24    1
    26     4    25    1
    27     9    26    1
    28    10    27    1
    29    14    28    1
    30    14    29    1
    31    14    30    1
