
     RDKit          3D

 37 39  0  0  0  0  0  0  0  0999 V2000
    6.3897    0.2987    1.2445 O   0  0  0  0  0  0  0  0  0  0  0  0
    5.2552   -0.2054    1.4339 C   0  0  0  0  0  0  0  0  0  0  0  0
    4.9765   -0.6877    2.6897 O   0  0  0  0  0  0  0  0  0  0  0  0
    4.3128   -0.2497    0.3279 C   0  0  0  0  0  0  0  0  0  0  0  0
    4.6599    0.2533   -0.9068 C   0  0  0  0  0  0  0  0  0  0  0  0
    3.7711    0.2179   -1.9714 C   0  0  0  0  0  0  0  0  0  0  0  0
    2.5043   -0.3231   -1.8334 C   0  0  0  0  0  0  0  0  0  0  0  0
    2.1913   -0.8169   -0.5840 C   0  0  0  0  0  0  0  0  0  0  0  0
    0.6082   -1.5124   -0.3461 S   0  0  0  0  0  6  0  0  0  0  0  0
    0.7080   -2.6320    0.6766 O   0  0  0  0  0  0  0  0  0  0  0  0
    0.0810   -2.1466   -1.6015 O   0  0  0  0  0  0  0  0  0  0  0  0
   -0.5343   -0.3200    0.1682 N   0  0  0  0  0  0  0  0  0  0  0  0
   -0.6303    0.6679   -0.8697 C   0  0  0  0  0  0  0  0  0  0  0  0
   -1.7031    1.6778   -0.6693 C   0  0  0  0  0  0  0  0  0  0  0  0
   -2.9893    1.0842   -0.2367 C   0  0  0  0  0  0  0  0  0  0  0  0
   -4.1805    1.7632   -0.3559 C   0  0  0  0  0  0  0  0  0  0  0  0
   -5.3748    1.2171    0.0437 C   0  0  0  0  0  0  0  0  0  0  0  0
   -5.3622   -0.0455    0.5761 C   0  0  0  0  0  0  0  0  0  0  0  0
   -6.5530   -0.5668    0.9647 F   0  0  0  0  0  0  0  0  0  0  0  0
   -4.1672   -0.7297    0.6970 C   0  0  0  0  0  0  0  0  0  0  0  0
   -2.9627   -0.1742    0.2920 C   0  0  0  0  0  0  0  0  0  0  0  0
   -1.7511   -0.9971    0.4693 C   0  0  0  0  0  0  0  0  0  0  0  0
    3.0511   -0.7903    0.4713 C   0  0  0  0  0  0  0  0  0  0  0  0
    5.3948   -0.3430    3.5429 H   0  0  0  0  0  0  0  0  0  0  0  0
    5.6525    0.6837   -1.0368 H   0  0  0  0  0  0  0  0  0  0  0  0
    4.0573    0.6206   -2.9489 H   0  0  0  0  0  0  0  0  0  0  0  0
    1.7766   -0.3762   -2.6235 H   0  0  0  0  0  0  0  0  0  0  0  0
   -0.7155    0.1716   -1.8752 H   0  0  0  0  0  0  0  0  0  0  0  0
    0.3469    1.2075   -0.8992 H   0  0  0  0  0  0  0  0  0  0  0  0
   -1.9092    2.1463   -1.6768 H   0  0  0  0  0  0  0  0  0  0  0  0
   -1.4038    2.5185   -0.0198 H   0  0  0  0  0  0  0  0  0  0  0  0
   -4.1864    2.7654   -0.7792 H   0  0  0  0  0  0  0  0  0  0  0  0
   -6.2925    1.7733   -0.0622 H   0  0  0  0  0  0  0  0  0  0  0  0
   -4.1913   -1.7188    1.1189 H   0  0  0  0  0  0  0  0  0  0  0  0
   -1.8973   -1.9245   -0.1459 H   0  0  0  0  0  0  0  0  0  0  0  0
   -1.7208   -1.3249    1.5293 H   0  0  0  0  0  0  0  0  0  0  0  0
    2.7879   -1.1820    1.4424 H   0  0  0  0  0  0  0  0  0  0  0  0
  1  2  2  0
  2  3  1  0
  2  4  1  0
  4  5  2  0
  5  6  1  0
  6  7  2  0
  7  8  1  0
  8  9  1  0
  9 10  2  0
  9 11  2  0
  9 12  1  0
 12 13  1  0
 13 14  1  0
 14 15  1  0
 15 16  2  0
 16 17  1  0
 17 18  2  0
 18 19  1  0
 18 20  1  0
 20 21  2  0
 21 22  1  0
  8 23  2  0
 23  4  1  0
 22 12  1  0
 21 15  1  0
  3 24  1  0
  5 25  1  0
  6 26  1  0
  7 27  1  0
 13 28  1  0
 13 29  1  0
 14 30  1  0
 14 31  1  0
 16 32  1  0
 17 33  1  0
 20 34  1  0
 22 35  1  0
 22 36  1  0
 23 37  1  0
M  END
$$$$
