@<TRIPOS>MOLECULE
*****
 37 39 0 0 0
SMALL
GASTEIGER

@<TRIPOS>ATOM
      1 O           6.3897    0.2987    1.2445 O.2     1  UNL1       -0.2451
      2 C           5.2552   -0.2054    1.4339 C.2     1  UNL1        0.3369
      3 O           4.9765   -0.6877    2.6897 O.3     1  UNL1       -0.4771
      4 C           4.3128   -0.2497    0.3279 C.ar    1  UNL1        0.0607
      5 C           4.6599    0.2533   -0.9068 C.ar    1  UNL1       -0.0477
      6 C           3.7711    0.2179   -1.9714 C.ar    1  UNL1       -0.0591
      7 C           2.5043   -0.3231   -1.8334 C.ar    1  UNL1       -0.0353
      8 C           2.1913   -0.8169   -0.5840 C.ar    1  UNL1        0.1063
      9 S           0.6082   -1.5124   -0.3461 S.O2    1  UNL1        0.0612
     10 O           0.7080   -2.6320    0.6766 O.2     1  UNL1       -0.1528
     11 O           0.0810   -2.1466   -1.6015 O.2     1  UNL1       -0.1528
     12 N          -0.5343   -0.3200    0.1682 N.3     1  UNL1       -0.1720
     13 C          -0.6303    0.6679   -0.8697 C.3     1  UNL1        0.0248
     14 C          -1.7031    1.6778   -0.6693 C.3     1  UNL1       -0.0129
     15 C          -2.9893    1.0842   -0.2367 C.ar    1  UNL1       -0.0415
     16 C          -4.1805    1.7632   -0.3559 C.ar    1  UNL1       -0.0555
     17 C          -5.3748    1.2171    0.0437 C.ar    1  UNL1       -0.0262
     18 C          -5.3622   -0.0455    0.5761 C.ar    1  UNL1        0.1237
     19 F          -6.5530   -0.5668    0.9647 F       1  UNL1       -0.2055
     20 C          -4.1672   -0.7297    0.6970 C.ar    1  UNL1       -0.0217
     21 C          -2.9627   -0.1742    0.2920 C.ar    1  UNL1       -0.0257
     22 C          -1.7511   -0.9971    0.4693 C.3     1  UNL1        0.0459
     23 C           3.0511   -0.7903    0.4713 C.ar    1  UNL1       -0.0214
     24 H           5.3948   -0.3430    3.5429 H       1  UNL1        0.2954
     25 H           5.6525    0.6837   -1.0368 H       1  UNL1        0.0626
     26 H           4.0573    0.6206   -2.9489 H       1  UNL1        0.0618
     27 H           1.7766   -0.3762   -2.6235 H       1  UNL1        0.0637
     28 H          -0.7155    0.1716   -1.8752 H       1  UNL1        0.0447
     29 H           0.3469    1.2075   -0.8992 H       1  UNL1        0.0447
     30 H          -1.9092    2.1463   -1.6768 H       1  UNL1        0.0326
     31 H          -1.4038    2.5185   -0.0198 H       1  UNL1        0.0326
     32 H          -4.1864    2.7654   -0.7792 H       1  UNL1        0.0621
     33 H          -6.2925    1.7733   -0.0622 H       1  UNL1        0.0646
     34 H          -4.1913   -1.7188    1.1189 H       1  UNL1        0.0649
     35 H          -1.8973   -1.9245   -0.1459 H       1  UNL1        0.0493
     36 H          -1.7208   -1.3249    1.5293 H       1  UNL1        0.0493
     37 H           2.7879   -1.1820    1.4424 H       1  UNL1        0.0645
@<TRIPOS>BOND
     1     1     2    2
     2     2     3    1
     3     2     4    1
     4     4     5   ar
     5     5     6   ar
     6     6     7   ar
     7     7     8   ar
     8     8     9    1
     9     9    10    2
    10     9    11    2
    11     9    12    1
    12    12    13    1
    13    13    14    1
    14    14    15    1
    15    15    16   ar
    16    16    17   ar
    17    17    18   ar
    18    18    19    1
    19    18    20   ar
    20    20    21   ar
    21    21    22    1
    22     8    23   ar
    23    23     4   ar
    24    22    12    1
    25    21    15   ar
    26     3    24    1
    27     5    25    1
    28     6    26    1
    29     7    27    1
    30    13    28    1
    31    13    29    1
    32    14    30    1
    33    14    31    1
    34    16    32    1
    35    17    33    1
    36    20    34    1
    37    22    35    1
    38    22    36    1
    39    23    37    1
