@<TRIPOS>MOLECULE
*****
 40 41 0 0 0
SMALL
GASTEIGER

@<TRIPOS>ATOM
      1 C           2.1884   -0.5607    0.5007 C.3     1  UNL1        0.0447
      2 C           2.0485   -2.0737    0.4182 C.3     1  UNL1       -0.0425
      3 N           1.2741    0.0789   -0.4426 N.pl3   1  UNL1       -0.3190
      4 C          -0.1204   -0.2235   -0.2128 C.2     1  UNL1        0.1479
      5 N          -0.6602   -1.0606    0.5798 N.am    1  UNL1       -0.1581
      6 C          -2.0476   -1.1306    0.5829 C.2     1  UNL1        0.2572
      7 O          -2.5471   -2.2692    0.8575 O.2     1  UNL1       -0.2720
      8 C          -2.6789    0.1973    0.2502 C.3     1  UNL1        0.1264
      9 C          -2.4724    1.2082    1.3273 C.3     1  UNL1       -0.0388
     10 S          -1.4903    0.5983   -1.0804 S.3     1  UNL1       -0.0742
     11 C          -4.0730    0.0817   -0.2440 C.3     1  UNL1        0.0836
     12 C          -4.5886    1.4699   -0.5395 C.3     1  UNL1       -0.0346
     13 C          -4.9172   -0.4697    0.8814 C.3     1  UNL1       -0.0346
     14 O          -4.1352   -0.7133   -1.3603 O.3     1  UNL1       -0.3873
     15 C           3.5746   -0.0962    0.3519 C.ar    1  UNL1       -0.0273
     16 C           4.1475    0.0250   -0.8912 C.ar    1  UNL1       -0.0541
     17 C           5.4532    0.4631   -1.0233 C.ar    1  UNL1       -0.0261
     18 C           6.2085    0.7880    0.0911 C.ar    1  UNL1        0.1234
     19 F           7.4821    1.2182    0.0104 F       1  UNL1       -0.2055
     20 C           5.6690    0.6795    1.3537 C.ar    1  UNL1       -0.0261
     21 C           4.3633    0.2397    1.4583 C.ar    1  UNL1       -0.0541
     22 H           1.8752   -0.3155    1.5586 H       1  UNL1        0.0545
     23 H           1.2663   -2.4649    1.1075 H       1  UNL1        0.0251
     24 H           1.8027   -2.3127   -0.6400 H       1  UNL1        0.0251
     25 H           3.0043   -2.5309    0.7121 H       1  UNL1        0.0251
     26 H           1.5000    0.7149   -1.2462 H       1  UNL1        0.1483
     27 H          -1.3826    1.1269    1.6141 H       1  UNL1        0.0249
     28 H          -2.5715    2.2277    0.8657 H       1  UNL1        0.0249
     29 H          -3.1358    1.0679    2.1895 H       1  UNL1        0.0249
     30 H          -4.5493    2.0887    0.3859 H       1  UNL1        0.0258
     31 H          -5.6682    1.3706   -0.7949 H       1  UNL1        0.0258
     32 H          -4.0739    1.9496   -1.3893 H       1  UNL1        0.0258
     33 H          -5.5692   -1.2941    0.5221 H       1  UNL1        0.0258
     34 H          -4.2902   -0.9158    1.6921 H       1  UNL1        0.0258
     35 H          -5.5061    0.3371    1.3931 H       1  UNL1        0.0258
     36 H          -5.1085   -0.9405   -1.5055 H       1  UNL1        0.2102
     37 H           3.6166   -0.2120   -1.8170 H       1  UNL1        0.0622
     38 H           5.9505    0.5754   -1.9821 H       1  UNL1        0.0646
     39 H           6.2264    0.9236    2.2486 H       1  UNL1        0.0646
     40 H           3.9349    0.1539    2.4672 H       1  UNL1        0.0622
@<TRIPOS>BOND
     1     1     2    1
     2     1     3    1
     3     3     4    1
     4     4     5    2
     5     5     6    1
     6     6     7    2
     7     6     8    1
     8     8     9    1
     9     8    10    1
    10     8    11    1
    11    11    12    1
    12    11    13    1
    13    11    14    1
    14     1    15    1
    15    15    16   ar
    16    16    17   ar
    17    17    18   ar
    18    18    19    1
    19    18    20   ar
    20    20    21   ar
    21    10     4    1
    22    21    15   ar
    23     1    22    1
    24     2    23    1
    25     2    24    1
    26     2    25    1
    27     3    26    1
    28     9    27    1
    29     9    28    1
    30     9    29    1
    31    12    30    1
    32    12    31    1
    33    12    32    1
    34    13    33    1
    35    13    34    1
    36    13    35    1
    37    14    36    1
    38    16    37    1
    39    17    38    1
    40    20    39    1
    41    21    40    1
