
     RDKit          3D

 73 79  0  0  0  0  0  0  0  0999 V2000
   -0.8688    8.6733   -0.9453 C   0  0  0  0  0  0  0  0  0  0  0  0
   -0.3667    7.3572   -0.9900 O   0  0  0  0  0  0  0  0  0  0  0  0
   -1.0919    6.3025   -0.4504 C   0  0  0  0  0  0  0  0  0  0  0  0
   -0.6045    5.0187   -0.4932 C   0  0  0  0  0  0  0  0  0  0  0  0
   -1.3226    3.9776    0.0406 C   0  0  0  0  0  0  0  0  0  0  0  0
   -0.8828    2.6343    0.0309 N   0  0  0  0  0  0  0  0  0  0  0  0
    0.3451    2.1259   -0.5222 C   0  0  0  0  0  0  0  0  0  0  0  0
    0.9937    2.6385   -1.4670 O   0  0  0  0  0  0  0  0  0  0  0  0
    0.6976    0.9331    0.1935 N   0  0  0  0  0  0  0  0  0  0  0  0
    1.8370    0.1049   -0.0218 C   0  0  0  0  0  0  0  0  0  0  0  0
    2.9808    0.4145    0.6818 C   0  0  0  0  0  0  0  0  0  0  0  0
    4.1472   -0.3427    0.5340 C   0  0  0  0  0  0  0  0  0  0  0  0
    4.1570   -1.4241   -0.3339 C   0  0  0  0  0  0  0  0  0  0  0  0
    5.3807   -2.1929   -0.4695 C   0  0  0  0  0  0  0  0  0  0  0  0
    6.2428   -2.3281    0.6186 C   0  0  0  0  0  0  0  0  0  0  0  0
    7.4161   -3.0464    0.5465 C   0  0  0  0  0  0  0  0  0  0  0  0
    7.7594   -3.6573   -0.6402 C   0  0  0  0  0  0  0  0  0  0  0  0
    8.8503   -4.4291   -1.0100 C   0  0  0  0  0  0  0  0  0  0  0  0
    8.6661   -4.7642   -2.3012 N   0  0  0  0  0  0  0  0  0  0  0  0
    7.5147   -4.2351   -2.7414 N   0  0  0  0  0  0  0  0  0  0  0  0
    6.9241   -3.5459   -1.7521 C   0  0  0  0  0  0  0  0  0  0  0  0
    5.7524   -2.8149   -1.6401 C   0  0  0  0  0  0  0  0  0  0  0  0
    3.0014   -1.7186   -1.0298 C   0  0  0  0  0  0  0  0  0  0  0  0
    1.8427   -0.9685   -0.8849 C   0  0  0  0  0  0  0  0  0  0  0  0
   -0.3335    0.7610    1.1587 C   0  0  0  0  0  0  0  0  0  0  0  0
   -0.2354    0.1553    2.2576 O   0  0  0  0  0  0  0  0  0  0  0  0
   -1.5224    1.4575    0.5584 C   0  0  0  0  0  0  0  0  0  0  0  0
   -2.5686    1.7603    1.5767 C   0  0  0  0  0  0  0  0  0  0  0  0
   -3.1086    0.5039    2.2247 C   0  0  0  0  0  0  0  0  0  0  0  0
   -3.3722   -0.5354    1.2621 N   0  0  0  0  0  0  0  0  0  0  0  0
   -4.6285   -1.1826    1.5789 C   0  0  0  0  0  0  0  0  0  0  0  0
   -4.8603   -2.2312    0.5532 C   0  0  0  0  0  0  0  0  0  0  0  0
   -5.7735   -2.0133   -0.4231 N   0  0  0  0  0  0  0  0  0  0  0  0
   -6.0439   -2.8963   -1.3762 C   0  0  0  0  0  0  0  0  0  0  0  0
   -5.3513   -4.0865   -1.3541 C   0  0  0  0  0  0  0  0  0  0  0  0
   -4.4129   -4.3609   -0.3861 C   0  0  0  0  0  0  0  0  0  0  0  0
   -4.1562   -3.4174    0.5925 C   0  0  0  0  0  0  0  0  0  0  0  0
   -3.1513   -3.6794    1.6443 C   0  0  0  0  0  0  0  0  0  0  0  0
   -3.3019   -0.1228   -0.1139 C   0  0  0  0  0  0  0  0  0  0  0  0
   -2.0223    0.5201   -0.5217 C   0  0  0  0  0  0  0  0  0  0  0  0
   -2.5107    4.3043    0.5949 N   0  0  0  0  0  0  0  0  0  0  0  0
   -2.9893    5.5402    0.6408 C   0  0  0  0  0  0  0  0  0  0  0  0
   -2.2764    6.5396    0.1164 N   0  0  0  0  0  0  0  0  0  0  0  0
   -0.8987    9.1554   -1.9407 H   0  0  0  0  0  0  0  0  0  0  0  0
   -0.1673    9.2694   -0.3269 H   0  0  0  0  0  0  0  0  0  0  0  0
   -1.8495    8.7222   -0.4237 H   0  0  0  0  0  0  0  0  0  0  0  0
    0.3598    4.7929   -0.9475 H   0  0  0  0  0  0  0  0  0  0  0  0
    2.9894    1.2543    1.3622 H   0  0  0  0  0  0  0  0  0  0  0  0
    5.0528   -0.1142    1.0780 H   0  0  0  0  0  0  0  0  0  0  0  0
    5.9950   -1.8594    1.5564 H   0  0  0  0  0  0  0  0  0  0  0  0
    8.0517   -3.1163    1.4362 H   0  0  0  0  0  0  0  0  0  0  0  0
    9.6555   -4.6714   -0.3316 H   0  0  0  0  0  0  0  0  0  0  0  0
    7.1039   -4.3220   -3.7010 H   0  0  0  0  0  0  0  0  0  0  0  0
    5.0938   -2.7204   -2.4978 H   0  0  0  0  0  0  0  0  0  0  0  0
    3.0091   -2.5695   -1.7125 H   0  0  0  0  0  0  0  0  0  0  0  0
    0.9554   -1.2237   -1.4425 H   0  0  0  0  0  0  0  0  0  0  0  0
   -2.1522    2.4012    2.3693 H   0  0  0  0  0  0  0  0  0  0  0  0
   -3.4375    2.2052    1.0360 H   0  0  0  0  0  0  0  0  0  0  0  0
   -4.0745    0.7760    2.6968 H   0  0  0  0  0  0  0  0  0  0  0  0
   -2.4437    0.1500    3.0388 H   0  0  0  0  0  0  0  0  0  0  0  0
   -5.4236   -0.3955    1.4177 H   0  0  0  0  0  0  0  0  0  0  0  0
   -4.6832   -1.5374    2.6075 H   0  0  0  0  0  0  0  0  0  0  0  0
   -6.7877   -2.6428   -2.1178 H   0  0  0  0  0  0  0  0  0  0  0  0
   -5.5850   -4.7991   -2.1432 H   0  0  0  0  0  0  0  0  0  0  0  0
   -3.8690   -5.2941   -0.3675 H   0  0  0  0  0  0  0  0  0  0  0  0
   -2.1189   -3.5384    1.2537 H   0  0  0  0  0  0  0  0  0  0  0  0
   -3.3130   -3.0128    2.4923 H   0  0  0  0  0  0  0  0  0  0  0  0
   -3.2366   -4.7617    1.9187 H   0  0  0  0  0  0  0  0  0  0  0  0
   -4.1441    0.5078   -0.4352 H   0  0  0  0  0  0  0  0  0  0  0  0
   -3.3930   -1.0749   -0.7150 H   0  0  0  0  0  0  0  0  0  0  0  0
   -2.2282    1.1181   -1.4565 H   0  0  0  0  0  0  0  0  0  0  0  0
   -1.2592   -0.2247   -0.8297 H   0  0  0  0  0  0  0  0  0  0  0  0
   -3.9541    5.7965    1.0922 H   0  0  0  0  0  0  0  0  0  0  0  0
  1  2  1  0
  2  3  1  0
  3  4  2  0
  4  5  1  0
  5  6  1  0
  6  7  1  0
  7  8  2  0
  7  9  1  0
  9 10  1  0
 10 11  2  0
 11 12  1  0
 12 13  2  0
 13 14  1  0
 14 15  2  0
 15 16  1  0
 16 17  2  0
 17 18  1  0
 18 19  2  0
 19 20  1  0
 20 21  1  0
 21 22  2  0
 13 23  1  0
 23 24  2  0
  9 25  1  0
 25 26  2  0
 25 27  1  0
 27 28  1  0
 28 29  1  0
 29 30  1  0
 30 31  1  0
 31 32  1  0
 32 33  2  0
 33 34  1  0
 34 35  2  0
 35 36  1  0
 36 37  2  0
 37 38  1  0
 30 39  1  0
 39 40  1  0
  5 41  2  0
 41 42  1  0
 42 43  2  0
 43  3  1  0
 27  6  1  0
 37 32  1  0
 24 10  1  0
 40 27  1  0
 22 14  1  0
 21 17  1  0
  1 44  1  0
  1 45  1  0
  1 46  1  0
  4 47  1  0
 11 48  1  0
 12 49  1  0
 15 50  1  0
 16 51  1  0
 18 52  1  0
 20 53  1  0
 22 54  1  0
 23 55  1  0
 24 56  1  0
 28 57  1  0
 28 58  1  0
 29 59  1  0
 29 60  1  0
 31 61  1  0
 31 62  1  0
 34 63  1  0
 35 64  1  0
 36 65  1  0
 38 66  1  0
 38 67  1  0
 38 68  1  0
 39 69  1  0
 39 70  1  0
 40 71  1  0
 40 72  1  0
 42 73  1  0
M  END
$$$$
