@<TRIPOS>MOLECULE
*****
 73 79 0 0 0
SMALL
GASTEIGER

@<TRIPOS>ATOM
      1 C          -0.8688    8.6733   -0.9453 C.3     1  UNL1        0.0804
      2 O          -0.3667    7.3572   -0.9900 O.3     1  UNL1       -0.4795
      3 C          -1.0919    6.3025   -0.4504 C.ar    1  UNL1        0.2191
      4 C          -0.6045    5.0187   -0.4932 C.ar    1  UNL1        0.0404
      5 C          -1.3226    3.9776    0.0406 C.ar    1  UNL1        0.1364
      6 N          -0.8828    2.6343    0.0309 N.am    1  UNL1       -0.2240
      7 C           0.3451    2.1259   -0.5222 C.2     1  UNL1        0.3219
      8 O           0.9937    2.6385   -1.4670 O.2     1  UNL1       -0.2512
      9 N           0.6976    0.9331    0.1935 N.am    1  UNL1       -0.1920
     10 C           1.8370    0.1049   -0.0218 C.ar    1  UNL1        0.0455
     11 C           2.9808    0.4145    0.6818 C.ar    1  UNL1       -0.0392
     12 C           4.1472   -0.3427    0.5340 C.ar    1  UNL1       -0.0523
     13 C           4.1570   -1.4241   -0.3339 C.ar    1  UNL1       -0.0177
     14 C           5.3807   -2.1929   -0.4695 C.ar    1  UNL1       -0.0159
     15 C           6.2428   -2.3281    0.6186 C.ar    1  UNL1       -0.0533
     16 C           7.4161   -3.0464    0.5465 C.ar    1  UNL1       -0.0505
     17 C           7.7594   -3.6573   -0.6402 C.ar    1  UNL1        0.0195
     18 C           8.8503   -4.4291   -1.0100 C.ar    1  UNL1        0.0569
     19 N           8.6661   -4.7642   -2.3012 N.ar    1  UNL1       -0.1812
     20 N           7.5147   -4.2351   -2.7414 N.ar    1  UNL1       -0.2769
     21 C           6.9241   -3.5459   -1.7521 C.ar    1  UNL1        0.0663
     22 C           5.7524   -2.8149   -1.6401 C.ar    1  UNL1       -0.0286
     23 C           3.0014   -1.7186   -1.0298 C.ar    1  UNL1       -0.0523
     24 C           1.8427   -0.9685   -0.8849 C.ar    1  UNL1       -0.0392
     25 C          -0.3335    0.7610    1.1587 C.2     1  UNL1        0.2516
     26 O          -0.2354    0.1553    2.2576 O.2     1  UNL1       -0.2724
     27 C          -1.5224    1.4575    0.5584 C.3     1  UNL1        0.1240
     28 C          -2.5686    1.7603    1.5767 C.3     1  UNL1       -0.0095
     29 C          -3.1086    0.5039    2.2247 C.3     1  UNL1        0.0017
     30 N          -3.3722   -0.5354    1.2621 N.3     1  UNL1       -0.2965
     31 C          -4.6285   -1.1826    1.5789 C.3     1  UNL1        0.0415
     32 C          -4.8603   -2.2312    0.5532 C.ar    1  UNL1        0.0581
     33 N          -5.7735   -2.0133   -0.4231 N.ar    1  UNL1       -0.2583
     34 C          -6.0439   -2.8963   -1.3762 C.ar    1  UNL1        0.0279
     35 C          -5.3513   -4.0865   -1.3541 C.ar    1  UNL1       -0.0433
     36 C          -4.4129   -4.3609   -0.3861 C.ar    1  UNL1       -0.0557
     37 C          -4.1562   -3.4174    0.5925 C.ar    1  UNL1       -0.0279
     38 C          -3.1513   -3.6794    1.6443 C.3     1  UNL1       -0.0380
     39 C          -3.3019   -0.1228   -0.1139 C.3     1  UNL1        0.0017
     40 C          -2.0223    0.5201   -0.5217 C.3     1  UNL1       -0.0095
     41 N          -2.5107    4.3043    0.5949 N.ar    1  UNL1       -0.2200
     42 C          -2.9893    5.5402    0.6408 C.ar    1  UNL1        0.1219
     43 N          -2.2764    6.5396    0.1164 N.ar    1  UNL1       -0.2013
     44 H          -0.8987    9.1554   -1.9407 H       1  UNL1        0.0660
     45 H          -0.1673    9.2694   -0.3269 H       1  UNL1        0.0660
     46 H          -1.8495    8.7222   -0.4237 H       1  UNL1        0.0660
     47 H           0.3598    4.7929   -0.9475 H       1  UNL1        0.0705
     48 H           2.9894    1.2543    1.3622 H       1  UNL1        0.0636
     49 H           5.0528   -0.1142    1.0780 H       1  UNL1        0.0624
     50 H           5.9950   -1.8594    1.5564 H       1  UNL1        0.0624
     51 H           8.0517   -3.1163    1.4362 H       1  UNL1        0.0625
     52 H           9.6555   -4.6714   -0.3316 H       1  UNL1        0.0854
     53 H           7.1039   -4.3220   -3.7010 H       1  UNL1        0.1889
     54 H           5.0938   -2.7204   -2.4978 H       1  UNL1        0.0645
     55 H           3.0091   -2.5695   -1.7125 H       1  UNL1        0.0624
     56 H           0.9554   -1.2237   -1.4425 H       1  UNL1        0.0636
     57 H          -2.1522    2.4012    2.3693 H       1  UNL1        0.0303
     58 H          -3.4375    2.2052    1.0360 H       1  UNL1        0.0303
     59 H          -4.0745    0.7760    2.6968 H       1  UNL1        0.0427
     60 H          -2.4437    0.1500    3.0388 H       1  UNL1        0.0427
     61 H          -5.4236   -0.3955    1.4177 H       1  UNL1        0.0491
     62 H          -4.6832   -1.5374    2.6075 H       1  UNL1        0.0491
     63 H          -6.7877   -2.6428   -2.1178 H       1  UNL1        0.0829
     64 H          -5.5850   -4.7991   -2.1432 H       1  UNL1        0.0633
     65 H          -3.8690   -5.2941   -0.3675 H       1  UNL1        0.0621
     66 H          -2.1189   -3.5384    1.2537 H       1  UNL1        0.0278
     67 H          -3.3130   -3.0128    2.4923 H       1  UNL1        0.0278
     68 H          -3.2366   -4.7617    1.9187 H       1  UNL1        0.0278
     69 H          -4.1441    0.5078   -0.4352 H       1  UNL1        0.0427
     70 H          -3.3930   -1.0749   -0.7150 H       1  UNL1        0.0427
     71 H          -2.2282    1.1181   -1.4565 H       1  UNL1        0.0303
     72 H          -1.2592   -0.2247   -0.8297 H       1  UNL1        0.0303
     73 H          -3.9541    5.7965    1.0922 H       1  UNL1        0.1049
@<TRIPOS>BOND
     1     1     2    1
     2     2     3    1
     3     3     4   ar
     4     4     5   ar
     5     5     6    1
     6     6     7   am
     7     7     8    2
     8     7     9   am
     9     9    10    1
    10    10    11   ar
    11    11    12   ar
    12    12    13   ar
    13    13    14    1
    14    14    15   ar
    15    15    16   ar
    16    16    17   ar
    17    17    18   ar
    18    18    19   ar
    19    19    20   ar
    20    20    21   ar
    21    21    22   ar
    22    13    23   ar
    23    23    24   ar
    24     9    25   am
    25    25    26    2
    26    25    27    1
    27    27    28    1
    28    28    29    1
    29    29    30    1
    30    30    31    1
    31    31    32    1
    32    32    33   ar
    33    33    34   ar
    34    34    35   ar
    35    35    36   ar
    36    36    37   ar
    37    37    38    1
    38    30    39    1
    39    39    40    1
    40     5    41   ar
    41    41    42   ar
    42    42    43   ar
    43    43     3   ar
    44    27     6    1
    45    37    32   ar
    46    24    10   ar
    47    40    27    1
    48    22    14   ar
    49    21    17   ar
    50     1    44    1
    51     1    45    1
    52     1    46    1
    53     4    47    1
    54    11    48    1
    55    12    49    1
    56    15    50    1
    57    16    51    1
    58    18    52    1
    59    20    53    1
    60    22    54    1
    61    23    55    1
    62    24    56    1
    63    28    57    1
    64    28    58    1
    65    29    59    1
    66    29    60    1
    67    31    61    1
    68    31    62    1
    69    34    63    1
    70    35    64    1
    71    36    65    1
    72    38    66    1
    73    38    67    1
    74    38    68    1
    75    39    69    1
    76    39    70    1
    77    40    71    1
    78    40    72    1
    79    42    73    1
