
     RDKit          3D

 49 52  0  0  0  0  0  0  0  0999 V2000
   -2.7514    0.9289    1.0002 C   0  0  0  0  0  0  0  0  0  0  0  0
   -2.3165   -0.4092    0.4124 C   0  0  2  0  0  0  0  0  0  0  0  0
   -1.4905   -1.1810    1.3581 C   0  0  0  0  0  0  0  0  0  0  0  0
   -0.0526   -1.3150    1.0980 C   0  0  0  0  0  0  0  0  0  0  0  0
    0.5802   -0.4835    0.0436 C   0  0  1  0  0  0  0  0  0  0  0  0
   -0.3395    0.5768   -0.5348 C   0  0  1  0  0  0  0  0  0  0  0  0
    0.2817    1.2205   -1.7456 C   0  0  0  0  0  0  0  0  0  0  0  0
    1.6707    1.6964   -1.5083 C   0  0  0  0  0  0  0  0  0  0  0  0
    2.5209    0.7262   -0.7403 C   0  0  0  0  0  0  0  0  0  0  0  0
    3.7602    0.5278   -1.1832 C   0  0  0  0  0  0  0  0  0  0  0  0
    4.6202   -0.4016   -0.4713 C   0  0  0  0  0  0  0  0  0  0  0  0
    5.6104   -0.9587   -0.9545 O   0  0  0  0  0  0  0  0  0  0  0  0
    4.2141   -0.6584    0.9597 C   0  0  0  0  0  0  0  0  0  0  0  0
    2.7684   -1.0952    0.8675 C   0  0  0  0  0  0  0  0  0  0  0  0
    1.9340    0.0665    0.4456 C   0  0  2  0  0  0  0  0  0  0  0  0
    1.8257    1.0085    1.6227 C   0  0  0  0  0  0  0  0  0  0  0  0
   -1.5634   -0.2009   -0.9036 C   0  0  2  0  0  0  0  0  0  0  0  0
   -2.5724    0.4709   -1.7206 C   0  0  0  0  0  0  0  0  0  0  0  0
   -3.8565   -0.2495   -1.3498 C   0  0  0  0  0  0  0  0  0  0  0  0
   -3.5354   -1.0849   -0.1130 C   0  0  2  0  0  0  0  0  0  0  0  0
   -4.6201   -0.8739    0.7690 O   0  0  0  0  0  0  0  0  0  0  0  0
   -3.8557    0.9684    1.1383 H   0  0  0  0  0  0  0  0  0  0  0  0
   -2.4668    1.7820    0.3879 H   0  0  0  0  0  0  0  0  0  0  0  0
   -2.3253    1.0091    2.0427 H   0  0  0  0  0  0  0  0  0  0  0  0
   -1.9809   -2.1962    1.4689 H   0  0  0  0  0  0  0  0  0  0  0  0
   -1.6583   -0.7273    2.3822 H   0  0  0  0  0  0  0  0  0  0  0  0
    0.5192   -1.0993    2.0524 H   0  0  0  0  0  0  0  0  0  0  0  0
    0.1838   -2.4095    0.9290 H   0  0  0  0  0  0  0  0  0  0  0  0
    0.8031   -1.1651   -0.8343 H   0  0  0  0  0  0  0  0  0  0  0  0
   -0.4828    1.3355    0.2342 H   0  0  0  0  0  0  0  0  0  0  0  0
    0.1896    0.5553   -2.6244 H   0  0  0  0  0  0  0  0  0  0  0  0
   -0.3433    2.1180   -1.9816 H   0  0  0  0  0  0  0  0  0  0  0  0
    2.1333    1.9121   -2.4879 H   0  0  0  0  0  0  0  0  0  0  0  0
    1.6687    2.6339   -0.9063 H   0  0  0  0  0  0  0  0  0  0  0  0
    4.1562    1.0321   -2.0567 H   0  0  0  0  0  0  0  0  0  0  0  0
    4.2524    0.3259    1.4651 H   0  0  0  0  0  0  0  0  0  0  0  0
    4.8634   -1.4206    1.4186 H   0  0  0  0  0  0  0  0  0  0  0  0
    2.5032   -1.5054    1.8540 H   0  0  0  0  0  0  0  0  0  0  0  0
    2.7535   -1.9165    0.0932 H   0  0  0  0  0  0  0  0  0  0  0  0
    2.3172    0.6009    2.5344 H   0  0  0  0  0  0  0  0  0  0  0  0
    0.7706    1.1831    1.8954 H   0  0  0  0  0  0  0  0  0  0  0  0
    2.3720    1.9301    1.3572 H   0  0  0  0  0  0  0  0  0  0  0  0
   -1.3246   -1.1853   -1.3041 H   0  0  0  0  0  0  0  0  0  0  0  0
   -2.3856    0.2186   -2.8059 H   0  0  0  0  0  0  0  0  0  0  0  0
   -2.6501    1.5627   -1.6312 H   0  0  0  0  0  0  0  0  0  0  0  0
   -4.6217    0.5236   -1.1386 H   0  0  0  0  0  0  0  0  0  0  0  0
   -4.1940   -0.9494   -2.1366 H   0  0  0  0  0  0  0  0  0  0  0  0
   -3.4239   -2.1470   -0.3417 H   0  0  0  0  0  0  0  0  0  0  0  0
   -4.4614   -1.2806    1.6440 H   0  0  0  0  0  0  0  0  0  0  0  0
  2  1  1  1
  2  3  1  0
  3  4  1  0
  4  5  1  0
  5  6  1  0
  6  7  1  0
  7  8  1  0
  8  9  1  0
  9 10  2  0
 10 11  1  0
 11 12  2  0
 11 13  1  0
 13 14  1  0
 14 15  1  0
 15 16  1  1
  6 17  1  0
 17 18  1  0
 18 19  1  0
 19 20  1  0
 20 21  1  0
 17  2  1  0
 20  2  1  0
 15  5  1  0
 15  9  1  0
  1 22  1  0
  1 23  1  0
  1 24  1  0
  3 25  1  0
  3 26  1  0
  4 27  1  0
  4 28  1  0
  5 29  1  6
  6 30  1  1
  7 31  1  0
  7 32  1  0
  8 33  1  0
  8 34  1  0
 10 35  1  0
 13 36  1  0
 13 37  1  0
 14 38  1  0
 14 39  1  0
 16 40  1  0
 16 41  1  0
 16 42  1  0
 17 43  1  6
 18 44  1  0
 18 45  1  0
 19 46  1  0
 19 47  1  0
 20 48  1  6
 21 49  1  0
M  END
$$$$
