@<TRIPOS>MOLECULE
*****
 49 52 0 0 0
SMALL
GASTEIGER

@<TRIPOS>ATOM
      1 C          -2.7514    0.9289    1.0002 C.3     1  UNL1       -0.0569
      2 C          -2.3165   -0.4092    0.4124 C.3     1  UNL1       -0.0030
      3 C          -1.4905   -1.1810    1.3581 C.3     1  UNL1       -0.0447
      4 C          -0.0526   -1.3150    1.0980 C.3     1  UNL1       -0.0486
      5 C           0.5802   -0.4835    0.0436 C.3     1  UNL1       -0.0288
      6 C          -0.3395    0.5768   -0.5348 C.3     1  UNL1       -0.0337
      7 C           0.2817    1.2205   -1.7456 C.3     1  UNL1       -0.0459
      8 C           1.6707    1.6964   -1.5083 C.3     1  UNL1       -0.0305
      9 C           2.5209    0.7262   -0.7403 C.2     1  UNL1       -0.0601
     10 C           3.7602    0.5278   -1.1832 C.2     1  UNL1       -0.0194
     11 C           4.6202   -0.4016   -0.4713 C.2     1  UNL1        0.1561
     12 O           5.6104   -0.9587   -0.9545 O.2     1  UNL1       -0.2927
     13 C           4.2141   -0.6584    0.9597 C.3     1  UNL1        0.0107
     14 C           2.7684   -1.0952    0.8675 C.3     1  UNL1       -0.0367
     15 C           1.9340    0.0665    0.4456 C.3     1  UNL1       -0.0072
     16 C           1.8257    1.0085    1.6227 C.3     1  UNL1       -0.0556
     17 C          -1.5634   -0.2009   -0.9036 C.3     1  UNL1       -0.0301
     18 C          -2.5724    0.4709   -1.7206 C.3     1  UNL1       -0.0470
     19 C          -3.8565   -0.2495   -1.3498 C.3     1  UNL1       -0.0261
     20 C          -3.5354   -1.0849   -0.1130 C.3     1  UNL1        0.0609
     21 O          -4.6201   -0.8739    0.7690 O.3     1  UNL1       -0.3912
     22 H          -3.8557    0.9684    1.1383 H       1  UNL1        0.0236
     23 H          -2.4668    1.7820    0.3879 H       1  UNL1        0.0236
     24 H          -2.3253    1.0091    2.0427 H       1  UNL1        0.0236
     25 H          -1.9809   -2.1962    1.4689 H       1  UNL1        0.0271
     26 H          -1.6583   -0.7273    2.3822 H       1  UNL1        0.0271
     27 H           0.5192   -1.0993    2.0524 H       1  UNL1        0.0268
     28 H           0.1838   -2.4095    0.9290 H       1  UNL1        0.0268
     29 H           0.8031   -1.1651   -0.8343 H       1  UNL1        0.0312
     30 H          -0.4828    1.3355    0.2342 H       1  UNL1        0.0307
     31 H           0.1896    0.5553   -2.6244 H       1  UNL1        0.0271
     32 H          -0.3433    2.1180   -1.9816 H       1  UNL1        0.0271
     33 H           2.1333    1.9121   -2.4879 H       1  UNL1        0.0310
     34 H           1.6687    2.6339   -0.9063 H       1  UNL1        0.0310
     35 H           4.1562    1.0321   -2.0567 H       1  UNL1        0.0652
     36 H           4.2524    0.3259    1.4651 H       1  UNL1        0.0345
     37 H           4.8634   -1.4206    1.4186 H       1  UNL1        0.0345
     38 H           2.5032   -1.5054    1.8540 H       1  UNL1        0.0278
     39 H           2.7535   -1.9165    0.0932 H       1  UNL1        0.0278
     40 H           2.3172    0.6009    2.5344 H       1  UNL1        0.0238
     41 H           0.7706    1.1831    1.8954 H       1  UNL1        0.0238
     42 H           2.3720    1.9301    1.3572 H       1  UNL1        0.0238
     43 H          -1.3246   -1.1853   -1.3041 H       1  UNL1        0.0310
     44 H          -2.3856    0.2186   -2.8059 H       1  UNL1        0.0269
     45 H          -2.6501    1.5627   -1.6312 H       1  UNL1        0.0269
     46 H          -4.6217    0.5236   -1.1386 H       1  UNL1        0.0290
     47 H          -4.1940   -0.9494   -2.1366 H       1  UNL1        0.0290
     48 H          -3.4239   -2.1470   -0.3417 H       1  UNL1        0.0599
     49 H          -4.4614   -1.2806    1.6440 H       1  UNL1        0.2098
@<TRIPOS>BOND
     1     2     1    1
     2     2     3    1
     3     3     4    1
     4     4     5    1
     5     5     6    1
     6     6     7    1
     7     7     8    1
     8     8     9    1
     9     9    10    2
    10    10    11    1
    11    11    12    2
    12    11    13    1
    13    13    14    1
    14    14    15    1
    15    15    16    1
    16     6    17    1
    17    17    18    1
    18    18    19    1
    19    19    20    1
    20    20    21    1
    21    17     2    1
    22    20     2    1
    23    15     5    1
    24    15     9    1
    25     1    22    1
    26     1    23    1
    27     1    24    1
    28     3    25    1
    29     3    26    1
    30     4    27    1
    31     4    28    1
    32     5    29    1
    33     6    30    1
    34     7    31    1
    35     7    32    1
    36     8    33    1
    37     8    34    1
    38    10    35    1
    39    13    36    1
    40    13    37    1
    41    14    38    1
    42    14    39    1
    43    16    40    1
    44    16    41    1
    45    16    42    1
    46    17    43    1
    47    18    44    1
    48    18    45    1
    49    19    46    1
    50    19    47    1
    51    20    48    1
    52    21    49    1
