@<TRIPOS>MOLECULE
*****
 52 55 0 0 0
SMALL
GASTEIGER

@<TRIPOS>ATOM
      1 C           8.9640    0.7039   -0.1990 C.3     1  UNL1       -0.0363
      2 C           7.5082    0.4239   -0.0861 C.ar    1  UNL1       -0.0090
      3 C           7.0882   -0.8748    0.0466 C.ar    1  UNL1       -0.0548
      4 C           5.7309   -1.1135    0.1496 C.ar    1  UNL1       -0.0521
      5 C           4.8090   -0.1176    0.1244 C.ar    1  UNL1        0.0038
      6 C           3.3579   -0.3658    0.2316 C.ar    1  UNL1        0.0711
      7 C           2.8432   -1.6270    0.3608 C.ar    1  UNL1       -0.0354
      8 C           1.4605   -1.8152    0.4567 C.ar    1  UNL1       -0.0548
      9 C           0.5850   -0.7545    0.4247 C.ar    1  UNL1       -0.0246
     10 C          -0.8830   -0.8628    0.5167 C.3     1  UNL1        0.0024
     11 C          -1.5375    0.2382    1.3345 C.3     1  UNL1       -0.0287
     12 C          -1.7747    0.1528   -0.0995 C.3     1  UNL1        0.0154
     13 N          -2.9633   -0.1772   -0.7686 N.3     1  UNL1       -0.3099
     14 C          -4.0214   -0.8314   -0.1065 C.3     1  UNL1        0.0080
     15 C          -4.7034   -0.0950    0.9932 C.3     1  UNL1       -0.0361
     16 C          -6.2165   -0.3379    0.9075 C.3     1  UNL1       -0.0363
     17 C          -6.7311    0.4801   -0.2486 C.3     1  UNL1        0.0049
     18 N          -6.6511    1.8991    0.0307 N.3     1  UNL1       -0.3272
     19 C          -5.9217    0.0710   -1.4639 C.3     1  UNL1       -0.0363
     20 C          -5.0695   -1.1317   -1.1919 C.3     1  UNL1       -0.0361
     21 C           1.1520    0.4936    0.2937 C.ar    1  UNL1        0.0317
     22 N           2.4878    0.6722    0.2013 N.ar    1  UNL1       -0.2547
     23 C           5.2673    1.1960   -0.0119 C.ar    1  UNL1       -0.0107
     24 C           6.6038    1.4608   -0.1159 C.ar    1  UNL1        0.1204
     25 O           7.1188    2.7449   -0.2535 O.3     1  UNL1       -0.5065
     26 H           9.0656    1.6156   -0.8388 H       1  UNL1        0.0279
     27 H           9.4089    0.8603    0.7987 H       1  UNL1        0.0279
     28 H           9.4775   -0.1475   -0.7267 H       1  UNL1        0.0279
     29 H           7.8107   -1.6689    0.0677 H       1  UNL1        0.0622
     30 H           5.4316   -2.1402    0.2520 H       1  UNL1        0.0624
     31 H           3.4735   -2.5016    0.3914 H       1  UNL1        0.0639
     32 H           1.0397   -2.8031    0.5606 H       1  UNL1        0.0621
     33 H          -1.2325   -1.9178    0.6405 H       1  UNL1        0.0365
     34 H          -2.1467   -0.1639    2.1415 H       1  UNL1        0.0287
     35 H          -0.8657    1.0610    1.7193 H       1  UNL1        0.0287
     36 H          -1.1657    0.9069   -0.7116 H       1  UNL1        0.0466
     37 H          -3.2940    0.5662   -1.4039 H       1  UNL1        0.1225
     38 H          -3.7614   -1.8385    0.2941 H       1  UNL1        0.0460
     39 H          -4.5080    0.9891    1.0076 H       1  UNL1        0.0281
     40 H          -4.4478   -0.4606    2.0156 H       1  UNL1        0.0281
     41 H          -6.6685   -0.0258    1.8745 H       1  UNL1        0.0281
     42 H          -6.4533   -1.3919    0.7457 H       1  UNL1        0.0281
     43 H          -7.8067    0.2191   -0.3710 H       1  UNL1        0.0458
     44 H          -6.1946    2.1226    0.9385 H       1  UNL1        0.1185
     45 H          -6.2415    2.4415   -0.7580 H       1  UNL1        0.1185
     46 H          -5.3215    0.9332   -1.8116 H       1  UNL1        0.0281
     47 H          -6.6325   -0.1842   -2.2638 H       1  UNL1        0.0281
     48 H          -5.6617   -2.0153   -0.9944 H       1  UNL1        0.0281
     49 H          -4.5198   -1.3383   -2.1544 H       1  UNL1        0.0281
     50 H           0.5585    1.3977    0.2577 H       1  UNL1        0.0832
     51 H           4.5443    1.9931   -0.0330 H       1  UNL1        0.0661
     52 H           7.6080    3.0595   -1.0760 H       1  UNL1        0.2921
@<TRIPOS>BOND
     1     1     2    1
     2     2     3   ar
     3     3     4   ar
     4     4     5   ar
     5     5     6    1
     6     6     7   ar
     7     7     8   ar
     8     8     9   ar
     9     9    10    1
    10    10    11    1
    11    11    12    1
    12    12    13    1
    13    13    14    1
    14    14    15    1
    15    15    16    1
    16    16    17    1
    17    17    18    1
    18    17    19    1
    19    19    20    1
    20     9    21   ar
    21    21    22   ar
    22     5    23   ar
    23    23    24   ar
    24    24    25    1
    25    24     2   ar
    26    22     6   ar
    27    12    10    1
    28    20    14    1
    29     1    26    1
    30     1    27    1
    31     1    28    1
    32     3    29    1
    33     4    30    1
    34     7    31    1
    35     8    32    1
    36    10    33    1
    37    11    34    1
    38    11    35    1
    39    12    36    1
    40    13    37    1
    41    14    38    1
    42    15    39    1
    43    15    40    1
    44    16    41    1
    45    16    42    1
    46    17    43    1
    47    18    44    1
    48    18    45    1
    49    19    46    1
    50    19    47    1
    51    20    48    1
    52    20    49    1
    53    21    50    1
    54    23    51    1
    55    25    52    1
