@<TRIPOS>MOLECULE
*****
 49 52 0 0 0
SMALL
GASTEIGER

@<TRIPOS>ATOM
      1 C          -2.8321   -1.2748    1.0543 C.3     1  UNL1       -0.0374
      2 C          -3.8216   -0.2956    0.6157 C.ar    1  UNL1       -0.0165
      3 C          -5.1616   -0.7047    0.5732 C.ar    1  UNL1       -0.0131
      4 C          -6.1890    0.1346    0.2252 C.ar    1  UNL1        0.1452
      5 O          -7.5164   -0.2006    0.1638 O.3     1  UNL1       -0.4327
      6 C          -8.0555   -1.4516    0.4438 C.3     1  UNL1        0.3893
      7 F          -8.6599   -1.9263   -0.7245 F       1  UNL1       -0.1663
      8 F          -9.0489   -1.3061    1.4260 F       1  UNL1       -0.1663
      9 C          -5.8018    1.4428   -0.0880 C.ar    1  UNL1        0.0703
     10 N          -4.5349    1.8113   -0.0438 N.ar    1  UNL1       -0.2465
     11 C          -3.4930    0.9783    0.3029 C.ar    1  UNL1        0.1288
     12 C          -2.1585    1.5339    0.2298 C.2     1  UNL1        0.2668
     13 O          -2.1062    2.8143    0.3772 O.2     1  UNL1       -0.2682
     14 N          -0.9453    0.9066    0.0232 N.am    1  UNL1       -0.2802
     15 C           0.3668    1.4523   -0.0366 C.ar    1  UNL1        0.0341
     16 C           0.6604    2.7779    0.1136 C.ar    1  UNL1       -0.0391
     17 C           1.9629    3.2097    0.0400 C.ar    1  UNL1       -0.0413
     18 C           3.0043    2.3184   -0.1868 C.ar    1  UNL1        0.0467
     19 CL          4.6070    3.0266   -0.1739 Cl      1  UNL1       -0.0832
     20 C           2.7601    0.9802   -0.3461 C.ar    1  UNL1        0.0059
     21 C           3.8663    0.0492   -0.6407 C.3     1  UNL1        0.1590
     22 C           4.4466    0.3111   -1.9938 C.3     1  UNL1        0.2685
     23 F           3.4779    0.1652   -2.9911 F       1  UNL1       -0.2062
     24 F           5.0700    1.4907   -2.2045 F       1  UNL1       -0.2062
     25 N           4.8244    0.1687    0.3921 N.2     1  UNL1       -0.2194
     26 C           4.9359   -0.5223    1.4485 C.2     1  UNL1        0.2764
     27 N           5.9035   -0.3820    2.4698 N.pl3   1  UNL1       -0.3134
     28 O           3.9797   -1.5429    1.6072 O.2     1  UNL1       -0.4622
     29 C           3.4863   -2.2101    0.4545 C.3     1  UNL1        0.1091
     30 C           4.3911   -2.4337   -0.7019 C.3     1  UNL1       -0.0064
     31 C           3.3194   -1.3853   -0.7213 C.3     1  UNL1        0.0344
     32 C           1.4508    0.5864   -0.2654 C.ar    1  UNL1       -0.0334
     33 H          -2.0217   -0.8966    1.6949 H       1  UNL1        0.0278
     34 H          -3.4007   -1.9795    1.7677 H       1  UNL1        0.0278
     35 H          -2.4567   -1.8436    0.2077 H       1  UNL1        0.0278
     36 H          -5.3982   -1.7284    0.8260 H       1  UNL1        0.0658
     37 H          -7.3204   -2.2061    0.7348 H       1  UNL1        0.1520
     38 H          -6.6030    2.1221   -0.3653 H       1  UNL1        0.0867
     39 H          -0.9872   -0.1441   -0.1492 H       1  UNL1        0.1552
     40 H          -0.1389    3.5039    0.2939 H       1  UNL1        0.0636
     41 H           2.1390    4.2829    0.1680 H       1  UNL1        0.0633
     42 H           5.2065   -0.5016   -2.2608 H       1  UNL1        0.1047
     43 H           5.5856   -0.3451    3.4697 H       1  UNL1        0.1466
     44 H           6.9125   -0.3156    2.2504 H       1  UNL1        0.1466
     45 H           2.7291   -2.9815    0.6853 H       1  UNL1        0.0737
     46 H           4.2954   -3.3465   -1.3053 H       1  UNL1        0.0306
     47 H           5.4594   -2.1161   -0.5794 H       1  UNL1        0.0306
     48 H           2.5437   -1.5559   -1.4691 H       1  UNL1        0.0366
     49 H           1.2671   -0.4704   -0.3861 H       1  UNL1        0.0640
@<TRIPOS>BOND
     1     1     2    1
     2     2     3   ar
     3     3     4   ar
     4     4     5    1
     5     5     6    1
     6     6     7    1
     7     6     8    1
     8     4     9   ar
     9     9    10   ar
    10    10    11   ar
    11    11    12    1
    12    12    13    2
    13    12    14   am
    14    14    15    1
    15    15    16   ar
    16    16    17   ar
    17    17    18   ar
    18    18    19    1
    19    18    20   ar
    20    20    21    1
    21    21    22    1
    22    22    23    1
    23    22    24    1
    24    21    25    1
    25    25    26    2
    26    26    27    1
    27    26    28    1
    28    28    29    1
    29    29    30    1
    30    30    31    1
    31    20    32   ar
    32    11     2   ar
    33    32    15   ar
    34    31    21    1
    35    31    29    1
    36     1    33    1
    37     1    34    1
    38     1    35    1
    39     3    36    1
    40     6    37    1
    41     9    38    1
    42    14    39    1
    43    16    40    1
    44    17    41    1
    45    22    42    1
    46    27    43    1
    47    27    44    1
    48    29    45    1
    49    30    46    1
    50    30    47    1
    51    31    48    1
    52    32    49    1
