
     RDKit          3D

 49 52  0  0  0  0  0  0  0  0999 V2000
   -2.8321   -1.2748    1.0543 C   0  0  0  0  0  0  0  0  0  0  0  0
   -3.8216   -0.2956    0.6157 C   0  0  0  0  0  0  0  0  0  0  0  0
   -5.1616   -0.7047    0.5732 C   0  0  0  0  0  0  0  0  0  0  0  0
   -6.1890    0.1346    0.2252 C   0  0  0  0  0  0  0  0  0  0  0  0
   -7.5164   -0.2006    0.1638 O   0  0  0  0  0  0  0  0  0  0  0  0
   -8.0555   -1.4516    0.4438 C   0  0  0  0  0  0  0  0  0  0  0  0
   -8.6599   -1.9263   -0.7245 F   0  0  0  0  0  0  0  0  0  0  0  0
   -9.0489   -1.3061    1.4260 F   0  0  0  0  0  0  0  0  0  0  0  0
   -5.8018    1.4428   -0.0880 C   0  0  0  0  0  0  0  0  0  0  0  0
   -4.5349    1.8113   -0.0438 N   0  0  0  0  0  0  0  0  0  0  0  0
   -3.4930    0.9783    0.3029 C   0  0  0  0  0  0  0  0  0  0  0  0
   -2.1585    1.5339    0.2298 C   0  0  0  0  0  0  0  0  0  0  0  0
   -2.1062    2.8143    0.3772 O   0  0  0  0  0  0  0  0  0  0  0  0
   -0.9453    0.9066    0.0232 N   0  0  0  0  0  0  0  0  0  0  0  0
    0.3668    1.4523   -0.0366 C   0  0  0  0  0  0  0  0  0  0  0  0
    0.6604    2.7779    0.1136 C   0  0  0  0  0  0  0  0  0  0  0  0
    1.9629    3.2097    0.0400 C   0  0  0  0  0  0  0  0  0  0  0  0
    3.0043    2.3184   -0.1868 C   0  0  0  0  0  0  0  0  0  0  0  0
    4.6070    3.0266   -0.1739 Cl  0  0  0  0  0  0  0  0  0  0  0  0
    2.7601    0.9802   -0.3461 C   0  0  0  0  0  0  0  0  0  0  0  0
    3.8663    0.0492   -0.6407 C   0  0  1  0  0  0  0  0  0  0  0  0
    4.4466    0.3111   -1.9938 C   0  0  0  0  0  0  0  0  0  0  0  0
    3.4779    0.1652   -2.9911 F   0  0  0  0  0  0  0  0  0  0  0  0
    5.0700    1.4907   -2.2045 F   0  0  0  0  0  0  0  0  0  0  0  0
    4.8244    0.1687    0.3921 N   0  0  0  0  0  0  0  0  0  0  0  0
    4.9359   -0.5223    1.4485 C   0  0  0  0  0  0  0  0  0  0  0  0
    5.9035   -0.3820    2.4698 N   0  0  0  0  0  0  0  0  0  0  0  0
    3.9797   -1.5429    1.6072 O   0  0  0  0  0  0  0  0  0  0  0  0
    3.4863   -2.2101    0.4545 C   0  0  2  0  0  0  0  0  0  0  0  0
    4.3911   -2.4337   -0.7019 C   0  0  0  0  0  0  0  0  0  0  0  0
    3.3194   -1.3853   -0.7213 C   0  0  2  0  0  0  0  0  0  0  0  0
    1.4508    0.5864   -0.2654 C   0  0  0  0  0  0  0  0  0  0  0  0
   -2.0217   -0.8966    1.6949 H   0  0  0  0  0  0  0  0  0  0  0  0
   -3.4007   -1.9795    1.7677 H   0  0  0  0  0  0  0  0  0  0  0  0
   -2.4567   -1.8436    0.2077 H   0  0  0  0  0  0  0  0  0  0  0  0
   -5.3982   -1.7284    0.8260 H   0  0  0  0  0  0  0  0  0  0  0  0
   -7.3204   -2.2061    0.7348 H   0  0  0  0  0  0  0  0  0  0  0  0
   -6.6030    2.1221   -0.3653 H   0  0  0  0  0  0  0  0  0  0  0  0
   -0.9872   -0.1441   -0.1492 H   0  0  0  0  0  0  0  0  0  0  0  0
   -0.1389    3.5039    0.2939 H   0  0  0  0  0  0  0  0  0  0  0  0
    2.1390    4.2829    0.1680 H   0  0  0  0  0  0  0  0  0  0  0  0
    5.2065   -0.5016   -2.2608 H   0  0  0  0  0  0  0  0  0  0  0  0
    5.5856   -0.3451    3.4697 H   0  0  0  0  0  0  0  0  0  0  0  0
    6.9125   -0.3156    2.2504 H   0  0  0  0  0  0  0  0  0  0  0  0
    2.7291   -2.9815    0.6853 H   0  0  0  0  0  0  0  0  0  0  0  0
    4.2954   -3.3465   -1.3053 H   0  0  0  0  0  0  0  0  0  0  0  0
    5.4594   -2.1161   -0.5794 H   0  0  0  0  0  0  0  0  0  0  0  0
    2.5437   -1.5559   -1.4691 H   0  0  0  0  0  0  0  0  0  0  0  0
    1.2671   -0.4704   -0.3861 H   0  0  0  0  0  0  0  0  0  0  0  0
  1  2  1  0
  2  3  2  0
  3  4  1  0
  4  5  1  0
  5  6  1  0
  6  7  1  0
  6  8  1  0
  4  9  2  0
  9 10  1  0
 10 11  2  0
 11 12  1  0
 12 13  2  0
 12 14  1  0
 14 15  1  0
 15 16  2  0
 16 17  1  0
 17 18  2  0
 18 19  1  0
 18 20  1  0
 20 21  1  0
 21 22  1  6
 22 23  1  0
 22 24  1  0
 21 25  1  0
 25 26  2  0
 26 27  1  0
 26 28  1  0
 28 29  1  0
 29 30  1  0
 30 31  1  0
 20 32  2  0
 11  2  1  0
 32 15  1  0
 31 21  1  0
 31 29  1  0
  1 33  1  0
  1 34  1  0
  1 35  1  0
  3 36  1  0
  6 37  1  0
  9 38  1  0
 14 39  1  0
 16 40  1  0
 17 41  1  0
 22 42  1  0
 27 43  1  0
 27 44  1  0
 29 45  1  1
 30 46  1  0
 30 47  1  0
 31 48  1  6
 32 49  1  0
M  END
$$$$
