@<TRIPOS>MOLECULE
*****
 96 101 0 0 0
SMALL
GASTEIGER

@<TRIPOS>ATOM
      1 C           9.2827    3.7023    1.6970 C.3     1  UNL1        0.0789
      2 O           7.9441    3.2754    1.8087 O.3     1  UNL1       -0.4932
      3 C           7.4411    2.2418    0.9962 C.ar    1  UNL1        0.1419
      4 C           8.3157    1.6752    0.0955 C.ar    1  UNL1       -0.0060
      5 C           7.9244    0.6595   -0.7434 C.ar    1  UNL1        0.0403
      6 C           8.8073    0.0352   -1.7115 C.2     1  UNL1        0.2442
      7 O           8.3774   -0.9556   -2.3790 O.2     1  UNL1       -0.2702
      8 N          10.1174    0.5398   -1.8897 N.am    1  UNL1       -0.3101
      9 C          10.9851   -0.0911   -2.8503 C.3     1  UNL1        0.0246
     10 C          11.2810   -1.5271   -2.5786 C.3     1  UNL1        0.0139
     11 N          11.9248   -1.8099   -1.3346 N.3     1  UNL1       -0.3069
     12 C          12.1592   -3.2682   -1.3247 C.3     1  UNL1       -0.0130
     13 C          11.0977   -1.5694   -0.1642 C.3     1  UNL1       -0.0130
     14 C           6.6160    0.2525   -0.6232 C.ar    1  UNL1       -0.0477
     15 C           5.7224    0.8219    0.2876 C.ar    1  UNL1       -0.0362
     16 C           6.1127    1.8340    1.1233 C.ar    1  UNL1        0.0758
     17 N           5.3341    2.4818    2.0876 N.pl3   1  UNL1       -0.2806
     18 C           3.9554    2.2576    2.2937 C.ar    1  UNL1        0.2226
     19 N           3.3641    2.9100    3.3379 N.ar    1  UNL1       -0.2225
     20 C           2.0541    2.7285    3.5364 C.ar    1  UNL1        0.0362
     21 C           1.3098    1.9133    2.7231 C.ar    1  UNL1        0.0186
     22 C           1.9192    1.2657    1.6784 C.ar    1  UNL1        0.2249
     23 O           1.2277    0.4194    0.8117 O.3     1  UNL1       -0.4373
     24 C          -0.1512    0.2542    0.9322 C.ar    1  UNL1        0.1381
     25 C          -0.6624   -0.9929    1.2992 C.ar    1  UNL1       -0.0169
     26 C          -2.0174   -1.1897    1.4292 C.ar    1  UNL1       -0.0363
     27 C          -2.8906   -0.1727    1.2024 C.ar    1  UNL1        0.0427
     28 N          -4.3121   -0.3293    1.3275 N.am    1  UNL1       -0.2686
     29 C          -5.1518   -0.6709    0.2232 C.2     1  UNL1        0.3092
     30 O          -4.6330   -0.8362   -0.9028 O.2     1  UNL1       -0.2521
     31 N          -6.5475   -0.8286    0.3537 N.am    1  UNL1       -0.2538
     32 C          -7.4431   -1.1447   -0.6993 C.ar    1  UNL1        0.1299
     33 C          -7.1641   -1.3258   -2.0278 C.ar    1  UNL1        0.0018
     34 C          -8.3452   -1.6121   -2.6722 C.ar    1  UNL1        0.0679
     35 C          -8.5621   -1.8888   -4.1382 C.3     1  UNL1       -0.0025
     36 C          -9.2586   -3.1877   -4.3417 C.3     1  UNL1       -0.0572
     37 C          -9.3809   -0.7395   -4.6995 C.3     1  UNL1       -0.0572
     38 N          -9.3018   -1.5964   -1.7151 N.ar    1  UNL1       -0.1694
     39 N          -8.7765   -1.3190   -0.5348 N.ar    1  UNL1       -0.2181
     40 C          -9.4680   -1.2202    0.7043 C.ar    1  UNL1        0.0674
     41 C          -9.4806   -0.0515    1.4298 C.ar    1  UNL1       -0.0359
     42 C         -10.1558    0.0416    2.6431 C.ar    1  UNL1       -0.0568
     43 C         -10.8412   -1.0347    3.1687 C.ar    1  UNL1       -0.0503
     44 C         -11.5622   -0.9284    4.4762 C.3     1  UNL1       -0.0397
     45 C         -10.8297   -2.2069    2.4430 C.ar    1  UNL1       -0.0568
     46 C         -10.1601   -2.3010    1.2394 C.ar    1  UNL1       -0.0359
     47 C          -2.4255    1.0704    0.8367 C.ar    1  UNL1        0.0069
     48 C          -3.3165    2.1010    0.5850 C.ar    1  UNL1       -0.0521
     49 C          -2.8237    3.3285    0.1990 C.ar    1  UNL1       -0.0611
     50 C          -1.4733    3.5515    0.0587 C.ar    1  UNL1       -0.0611
     51 C          -0.6100    2.5127    0.3150 C.ar    1  UNL1       -0.0505
     52 C          -1.0658    1.2604    0.7081 C.ar    1  UNL1        0.0262
     53 N           3.2346    1.4675    1.5056 N.ar    1  UNL1       -0.1789
     54 H           9.4051    4.6037    2.3569 H       1  UNL1        0.0660
     55 H           9.5124    3.9765    0.6305 H       1  UNL1        0.0660
     56 H           9.9308    2.9011    2.0673 H       1  UNL1        0.0660
     57 H           9.3451    2.0349    0.0436 H       1  UNL1        0.0662
     58 H          10.5210    1.3633   -1.3678 H       1  UNL1        0.1490
     59 H          10.4218   -0.0622   -3.8304 H       1  UNL1        0.0475
     60 H          11.9012    0.5063   -3.0526 H       1  UNL1        0.0475
     61 H          11.9610   -1.8698   -3.4109 H       1  UNL1        0.0442
     62 H          10.3480   -2.1460   -2.6680 H       1  UNL1        0.0442
     63 H          11.3059   -3.7229   -1.8255 H       1  UNL1        0.0391
     64 H          12.2795   -3.5778   -0.2530 H       1  UNL1        0.0391
     65 H          13.0952   -3.4393   -1.8970 H       1  UNL1        0.0391
     66 H          11.6268   -2.0413    0.7150 H       1  UNL1        0.0391
     67 H          10.1209   -2.0774   -0.2521 H       1  UNL1        0.0391
     68 H          11.0622   -0.4964    0.0222 H       1  UNL1        0.0391
     69 H           6.2790   -0.5568   -1.2786 H       1  UNL1        0.0626
     70 H           4.7233    0.4383    0.3200 H       1  UNL1        0.0637
     71 H           5.8318    3.2024    2.7155 H       1  UNL1        0.1551
     72 H           1.6118    3.2651    4.3816 H       1  UNL1        0.0832
     73 H           0.2726    1.8057    2.9394 H       1  UNL1        0.0686
     74 H           0.0393   -1.7929    1.4770 H       1  UNL1        0.0655
     75 H          -2.3964   -2.1594    1.7150 H       1  UNL1        0.0637
     76 H          -4.7857   -0.1942    2.2536 H       1  UNL1        0.1564
     77 H          -6.9244   -0.6779    1.3370 H       1  UNL1        0.1578
     78 H          -6.2246   -1.2694   -2.5343 H       1  UNL1        0.0671
     79 H          -7.5954   -1.8949   -4.6581 H       1  UNL1        0.0359
     80 H          -9.8223   -3.1079   -5.3133 H       1  UNL1        0.0236
     81 H         -10.0312   -3.3792   -3.5643 H       1  UNL1        0.0236
     82 H          -8.5809   -4.0505   -4.4843 H       1  UNL1        0.0236
     83 H         -10.2275   -0.4759   -4.0114 H       1  UNL1        0.0236
     84 H          -9.7706   -1.0749   -5.6829 H       1  UNL1        0.0236
     85 H          -8.7160    0.1304   -4.8555 H       1  UNL1        0.0236
     86 H          -8.9451    0.8132    1.0326 H       1  UNL1        0.0639
     87 H         -10.1658    0.9580    3.2168 H       1  UNL1        0.0621
     88 H         -10.9074   -0.3682    5.1640 H       1  UNL1        0.0278
     89 H         -11.6692   -1.9520    4.9325 H       1  UNL1        0.0278
     90 H         -12.5360   -0.4345    4.3984 H       1  UNL1        0.0278
     91 H         -11.3573   -3.0555    2.8347 H       1  UNL1        0.0621
     92 H         -10.1309   -3.2099    0.6432 H       1  UNL1        0.0639
     93 H          -4.3670    1.9006    0.7017 H       1  UNL1        0.0624
     94 H          -3.5086    4.1456   -0.0023 H       1  UNL1        0.0618
     95 H          -1.0912    4.5355   -0.2513 H       1  UNL1        0.0618
     96 H           0.4617    2.7027    0.1806 H       1  UNL1        0.0625
@<TRIPOS>BOND
     1     1     2    1
     2     2     3    1
     3     3     4   ar
     4     4     5   ar
     5     5     6    1
     6     6     7    2
     7     6     8   am
     8     8     9    1
     9     9    10    1
    10    10    11    1
    11    11    12    1
    12    11    13    1
    13     5    14   ar
    14    14    15   ar
    15    15    16   ar
    16    16    17    1
    17    17    18    1
    18    18    19   ar
    19    19    20   ar
    20    20    21   ar
    21    21    22   ar
    22    22    23    1
    23    23    24    1
    24    24    25   ar
    25    25    26   ar
    26    26    27   ar
    27    27    28    1
    28    28    29   am
    29    29    30    2
    30    29    31   am
    31    31    32    1
    32    32    33   ar
    33    33    34   ar
    34    34    35    1
    35    35    36    1
    36    35    37    1
    37    34    38   ar
    38    38    39   ar
    39    39    40    1
    40    40    41   ar
    41    41    42   ar
    42    42    43   ar
    43    43    44    1
    44    43    45   ar
    45    45    46   ar
    46    27    47   ar
    47    47    48   ar
    48    48    49   ar
    49    49    50   ar
    50    50    51   ar
    51    51    52   ar
    52    22    53   ar
    53    16     3   ar
    54    53    18   ar
    55    52    24   ar
    56    39    32   ar
    57    46    40   ar
    58    52    47   ar
    59     1    54    1
    60     1    55    1
    61     1    56    1
    62     4    57    1
    63     8    58    1
    64     9    59    1
    65     9    60    1
    66    10    61    1
    67    10    62    1
    68    12    63    1
    69    12    64    1
    70    12    65    1
    71    13    66    1
    72    13    67    1
    73    13    68    1
    74    14    69    1
    75    15    70    1
    76    17    71    1
    77    20    72    1
    78    21    73    1
    79    25    74    1
    80    26    75    1
    81    28    76    1
    82    31    77    1
    83    33    78    1
    84    35    79    1
    85    36    80    1
    86    36    81    1
    87    36    82    1
    88    37    83    1
    89    37    84    1
    90    37    85    1
    91    41    86    1
    92    42    87    1
    93    44    88    1
    94    44    89    1
    95    44    90    1
    96    45    91    1
    97    46    92    1
    98    48    93    1
    99    49    94    1
   100    50    95    1
   101    51    96    1
