@<TRIPOS>MOLECULE
*****
 44 47 0 0 0
SMALL
GASTEIGER

@<TRIPOS>ATOM
      1 C          -2.1138   -3.8548   -0.9780 C.3     1  UNL1       -0.0650
      2 C          -1.8893   -2.6497   -0.0712 C.3     1  UNL1       -0.0518
      3 C          -2.0092   -1.4157   -0.9337 C.3     1  UNL1       -0.0247
      4 C          -1.7998   -0.1672   -0.1686 C.ar    1  UNL1       -0.0033
      5 C          -0.5412    0.3182    0.2274 C.ar    1  UNL1        0.0836
      6 S           0.9607   -0.4987   -0.2160 S.3     1  UNL1       -0.0709
      7 C           2.3959    0.5224   -0.1182 C.ar    1  UNL1        0.0218
      8 C           2.3861    1.8968   -0.0557 C.ar    1  UNL1       -0.0473
      9 C           3.5576    2.6552    0.0647 C.ar    1  UNL1       -0.0601
     10 C           4.7489    2.0036    0.1197 C.ar    1  UNL1       -0.0540
     11 C           4.7957    0.6303    0.0583 C.ar    1  UNL1       -0.0168
     12 C           6.0552    0.0402    0.1181 C.ar    1  UNL1       -0.0540
     13 C           6.1068   -1.3330    0.0550 C.ar    1  UNL1       -0.0612
     14 C           4.9488   -2.0800   -0.0629 C.ar    1  UNL1       -0.0611
     15 C           3.7019   -1.4901   -0.1221 C.ar    1  UNL1       -0.0530
     16 C           3.6486   -0.1115   -0.0587 C.ar    1  UNL1       -0.0041
     17 N          -0.7962    1.4412    0.8907 N.ar    1  UNL1       -0.3337
     18 C          -2.1370    1.6883    0.9316 C.ar    1  UNL1        0.1461
     19 N          -2.8722    2.6721    1.4680 N.ar    1  UNL1       -0.1967
     20 C          -4.2178    2.7048    1.3770 C.ar    1  UNL1        0.2161
     21 N          -5.0253    3.7300    1.9325 N.pl3   1  UNL1       -0.3274
     22 N          -4.8449    1.7039    0.7185 N.ar    1  UNL1       -0.1994
     23 C          -4.1854    0.6951    0.1606 C.ar    1  UNL1        0.1308
     24 N          -4.8505   -0.3487   -0.5239 N.pl3   1  UNL1       -0.3425
     25 C          -2.7996    0.6667    0.2571 C.ar    1  UNL1        0.0625
     26 H          -2.7445   -4.6038   -0.4232 H       1  UNL1        0.0230
     27 H          -1.1774   -4.3003   -1.3184 H       1  UNL1        0.0230
     28 H          -2.7316   -3.5265   -1.8294 H       1  UNL1        0.0230
     29 H          -2.7483   -2.5917    0.6486 H       1  UNL1        0.0266
     30 H          -0.9370   -2.7407    0.4549 H       1  UNL1        0.0266
     31 H          -2.9973   -1.4464   -1.4256 H       1  UNL1        0.0314
     32 H          -1.2770   -1.4692   -1.7946 H       1  UNL1        0.0314
     33 H           1.4444    2.4110   -0.1357 H       1  UNL1        0.0629
     34 H           3.4529    3.7251    0.1079 H       1  UNL1        0.0618
     35 H           5.6536    2.6150    0.2139 H       1  UNL1        0.0624
     36 H           6.9283    0.6656    0.2098 H       1  UNL1        0.0624
     37 H           7.0670   -1.8306    0.0978 H       1  UNL1        0.0618
     38 H           5.0035   -3.1366   -0.1111 H       1  UNL1        0.0618
     39 H           2.7858   -2.0439   -0.2135 H       1  UNL1        0.0624
     40 H          -0.0907    2.0552    1.3533 H       1  UNL1        0.1678
     41 H          -4.8911    4.7217    1.6392 H       1  UNL1        0.1452
     42 H          -5.7671    3.5341    2.6399 H       1  UNL1        0.1452
     43 H          -5.0951   -0.2359   -1.5451 H       1  UNL1        0.1437
     44 H          -5.1028   -1.2217   -0.0436 H       1  UNL1        0.1437
@<TRIPOS>BOND
     1     1     2    1
     2     2     3    1
     3     3     4    1
     4     4     5   ar
     5     5     6    1
     6     6     7    1
     7     7     8   ar
     8     8     9   ar
     9     9    10   ar
    10    10    11   ar
    11    11    12   ar
    12    12    13   ar
    13    13    14   ar
    14    14    15   ar
    15    15    16   ar
    16     5    17   ar
    17    17    18   ar
    18    18    19   ar
    19    19    20   ar
    20    20    21    1
    21    20    22   ar
    22    22    23   ar
    23    23    24    1
    24    23    25   ar
    25    25     4   ar
    26    16     7   ar
    27    25    18   ar
    28    16    11   ar
    29     1    26    1
    30     1    27    1
    31     1    28    1
    32     2    29    1
    33     2    30    1
    34     3    31    1
    35     3    32    1
    36     8    33    1
    37     9    34    1
    38    10    35    1
    39    12    36    1
    40    13    37    1
    41    14    38    1
    42    15    39    1
    43    17    40    1
    44    21    41    1
    45    21    42    1
    46    24    43    1
    47    24    44    1
