
     RDKit          3D

 65 68  0  0  0  0  0  0  0  0999 V2000
   -2.1977    2.8597    0.8727 C   0  0  1  0  0  0  0  0  0  0  0  0
   -3.2749    3.0269   -0.1865 C   0  0  0  0  0  0  0  0  0  0  0  0
   -3.1574    1.8007   -1.1062 C   0  0  0  0  0  0  0  0  0  0  0  0
   -2.2008    0.9443   -0.3551 C   0  0  1  0  0  0  0  0  0  0  0  0
   -1.5163   -0.1225   -1.1549 C   0  0  2  0  0  0  0  0  0  0  0  0
   -2.5199   -1.0715   -1.6989 C   0  0  0  0  0  0  0  0  0  0  0  0
   -1.9456   -2.3961   -2.1509 C   0  0  0  0  0  0  0  0  0  0  0  0
   -1.1898   -2.9087   -0.9752 C   0  0  0  0  0  0  0  0  0  0  0  0
   -1.5973   -4.0364   -0.3644 C   0  0  0  0  0  0  0  0  0  0  0  0
   -0.8263   -4.5210    0.8005 C   0  0  0  0  0  0  0  0  0  0  0  0
   -1.5246   -5.1430    1.6526 O   0  0  0  0  0  0  0  0  0  0  0  0
    0.6084   -4.1613    0.6999 C   0  0  0  0  0  0  0  0  0  0  0  0
    0.7270   -2.6717    0.5804 C   0  0  0  0  0  0  0  0  0  0  0  0
    0.0029   -2.0651   -0.5806 C   0  0  1  0  0  0  0  0  0  0  0  0
    0.9555   -1.9431   -1.7477 C   0  0  0  0  0  0  0  0  0  0  0  0
   -0.5433   -0.7580   -0.1507 C   0  0  1  0  0  0  0  0  0  0  0  0
    0.4687    0.3145    0.1461 C   0  0  1  0  0  0  0  0  0  0  0  0
   -0.1547    1.3971    1.0164 C   0  0  0  0  0  0  0  0  0  0  0  0
   -1.2307    1.9984    0.1390 C   0  0  2  0  0  0  0  0  0  0  0  0
   -0.5939    2.7783   -0.9723 C   0  0  0  0  0  0  0  0  0  0  0  0
    1.7064   -0.1110    0.5915 O   0  0  0  0  0  0  0  0  0  0  0  0
    2.9084    0.1439   -0.0908 C   0  0  0  0  0  0  0  0  0  0  0  0
    2.9164    0.8007   -1.1889 O   0  0  0  0  0  0  0  0  0  0  0  0
    4.2910   -0.2136    0.2111 C   0  0  0  0  0  0  0  0  0  0  0  0
    4.4777   -1.0010    1.4900 C   0  0  0  0  0  0  0  0  0  0  0  0
    5.9504   -1.2831    1.6490 C   0  0  0  0  0  0  0  0  0  0  0  0
    7.1357   -1.0297    0.9726 O   0  0  0  0  0  0  0  0  0  0  0  0
    6.4240   -1.9321    2.6350 O   0  0  0  0  0  0  0  0  0  0  0  0
   -1.6244    4.1431    1.3347 C   0  0  0  0  0  0  0  0  0  0  0  0
   -2.5387    5.1409    1.9597 C   0  0  0  0  0  0  0  0  0  0  0  0
   -0.4427    4.4325    1.2332 O   0  0  0  0  0  0  0  0  0  0  0  0
   -2.6747    2.2784    1.6899 H   0  0  0  0  0  0  0  0  0  0  0  0
   -4.2763    3.0641    0.3044 H   0  0  0  0  0  0  0  0  0  0  0  0
   -3.1628    3.9646   -0.7533 H   0  0  0  0  0  0  0  0  0  0  0  0
   -4.1429    1.3524   -1.3021 H   0  0  0  0  0  0  0  0  0  0  0  0
   -2.6465    2.1639   -2.0271 H   0  0  0  0  0  0  0  0  0  0  0  0
   -2.6790    0.4821    0.5129 H   0  0  0  0  0  0  0  0  0  0  0  0
   -0.8861    0.2347   -1.9720 H   0  0  0  0  0  0  0  0  0  0  0  0
   -3.3828   -1.2411   -1.0249 H   0  0  0  0  0  0  0  0  0  0  0  0
   -2.9474   -0.6082   -2.6109 H   0  0  0  0  0  0  0  0  0  0  0  0
   -1.2668   -2.2428   -3.0122 H   0  0  0  0  0  0  0  0  0  0  0  0
   -2.7803   -3.0788   -2.3730 H   0  0  0  0  0  0  0  0  0  0  0  0
   -2.4858   -4.5089   -0.7912 H   0  0  0  0  0  0  0  0  0  0  0  0
    1.1137   -4.6883   -0.1374 H   0  0  0  0  0  0  0  0  0  0  0  0
    1.1258   -4.4443    1.6391 H   0  0  0  0  0  0  0  0  0  0  0  0
    0.3606   -2.2654    1.5673 H   0  0  0  0  0  0  0  0  0  0  0  0
    1.8171   -2.4443    0.5754 H   0  0  0  0  0  0  0  0  0  0  0  0
    1.9718   -2.2414   -1.4280 H   0  0  0  0  0  0  0  0  0  0  0  0
    0.6832   -2.6453   -2.5652 H   0  0  0  0  0  0  0  0  0  0  0  0
    1.0014   -0.9155   -2.1365 H   0  0  0  0  0  0  0  0  0  0  0  0
   -1.1883   -0.9512    0.7498 H   0  0  0  0  0  0  0  0  0  0  0  0
    0.6650    0.8481   -0.8278 H   0  0  0  0  0  0  0  0  0  0  0  0
   -0.5442    1.0069    1.9593 H   0  0  0  0  0  0  0  0  0  0  0  0
    0.6103    2.1971    1.1135 H   0  0  0  0  0  0  0  0  0  0  0  0
   -1.1313    3.7383   -1.1800 H   0  0  0  0  0  0  0  0  0  0  0  0
    0.4449    3.0317   -0.6709 H   0  0  0  0  0  0  0  0  0  0  0  0
   -0.5280    2.2468   -1.9297 H   0  0  0  0  0  0  0  0  0  0  0  0
    4.8150   -0.7673   -0.5757 H   0  0  0  0  0  0  0  0  0  0  0  0
    4.8732    0.7475    0.3305 H   0  0  0  0  0  0  0  0  0  0  0  0
    4.0817   -0.4582    2.3525 H   0  0  0  0  0  0  0  0  0  0  0  0
    4.0203   -2.0084    1.4056 H   0  0  0  0  0  0  0  0  0  0  0  0
    7.8732   -0.4206    1.3158 H   0  0  0  0  0  0  0  0  0  0  0  0
   -2.5259    6.1126    1.4254 H   0  0  0  0  0  0  0  0  0  0  0  0
   -3.5473    4.7265    2.1091 H   0  0  0  0  0  0  0  0  0  0  0  0
   -2.1538    5.3217    3.0061 H   0  0  0  0  0  0  0  0  0  0  0  0
  1  2  1  0
  2  3  1  0
  3  4  1  0
  4  5  1  0
  5  6  1  0
  6  7  1  0
  7  8  1  0
  8  9  2  0
  9 10  1  0
 10 11  2  0
 10 12  1  0
 12 13  1  0
 13 14  1  0
 14 15  1  6
 14 16  1  0
 16 17  1  0
 17 18  1  0
 18 19  1  0
 19 20  1  6
 17 21  1  0
 21 22  1  0
 22 23  2  0
 22 24  1  0
 24 25  1  0
 25 26  1  0
 26 27  1  0
 26 28  2  0
  1 29  1  0
 29 30  1  0
 29 31  2  0
 19  1  1  0
 19  4  1  0
 16  5  1  0
 14  8  1  0
  1 32  1  1
  2 33  1  0
  2 34  1  0
  3 35  1  0
  3 36  1  0
  4 37  1  1
  5 38  1  6
  6 39  1  0
  6 40  1  0
  7 41  1  0
  7 42  1  0
  9 43  1  0
 12 44  1  0
 12 45  1  0
 13 46  1  0
 13 47  1  0
 15 48  1  0
 15 49  1  0
 15 50  1  0
 16 51  1  1
 17 52  1  6
 18 53  1  0
 18 54  1  0
 20 55  1  0
 20 56  1  0
 20 57  1  0
 24 58  1  0
 24 59  1  0
 25 60  1  0
 25 61  1  0
 27 62  1  0
 30 63  1  0
 30 64  1  0
 30 65  1  0
M  END
$$$$
