@<TRIPOS>MOLECULE
*****
 65 68 0 0 0
SMALL
GASTEIGER

@<TRIPOS>ATOM
      1 C          -2.1977    2.8597    0.8727 C.3     1  UNL1        0.0230
      2 C          -3.2749    3.0269   -0.1865 C.3     1  UNL1       -0.0427
      3 C          -3.1574    1.8007   -1.1062 C.3     1  UNL1       -0.0488
      4 C          -2.2008    0.9443   -0.3551 C.3     1  UNL1       -0.0316
      5 C          -1.5163   -0.1225   -1.1549 C.3     1  UNL1       -0.0304
      6 C          -2.5199   -1.0715   -1.6989 C.3     1  UNL1       -0.0458
      7 C          -1.9456   -2.3961   -2.1509 C.3     1  UNL1       -0.0305
      8 C          -1.1898   -2.9087   -0.9752 C.2     1  UNL1       -0.0599
      9 C          -1.5973   -4.0364   -0.3644 C.2     1  UNL1       -0.0194
     10 C          -0.8263   -4.5210    0.8005 C.2     1  UNL1        0.1561
     11 O          -1.5246   -5.1430    1.6526 O.2     1  UNL1       -0.2927
     12 C           0.6084   -4.1613    0.6999 C.3     1  UNL1        0.0107
     13 C           0.7270   -2.6717    0.5804 C.3     1  UNL1       -0.0365
     14 C           0.0029   -2.0651   -0.5806 C.3     1  UNL1       -0.0039
     15 C           0.9555   -1.9431   -1.7477 C.3     1  UNL1       -0.0554
     16 C          -0.5433   -0.7580   -0.1507 C.3     1  UNL1        0.0084
     17 C           0.4687    0.3145    0.1461 C.3     1  UNL1        0.1074
     18 C          -0.1547    1.3971    1.0164 C.3     1  UNL1       -0.0091
     19 C          -1.2307    1.9984    0.1390 C.3     1  UNL1       -0.0161
     20 C          -0.5939    2.7783   -0.9723 C.3     1  UNL1       -0.0585
     21 O           1.7064   -0.1110    0.5915 O.3     1  UNL1       -0.4610
     22 C           2.9084    0.1439   -0.0908 C.2     1  UNL1        0.3079
     23 O           2.9164    0.8007   -1.1889 O.2     1  UNL1       -0.2508
     24 C           4.2910   -0.2136    0.2111 C.3     1  UNL1        0.0550
     25 C           4.4777   -1.0010    1.4900 C.3     1  UNL1        0.0548
     26 C           5.9504   -1.2831    1.6490 C.2     1  UNL1        0.3052
     27 O           7.1357   -1.0297    0.9726 O.3     1  UNL1       -0.4806
     28 O           6.4240   -1.9321    2.6350 O.2     1  UNL1       -0.2510
     29 C          -1.6244    4.1431    1.3347 C.2     1  UNL1        0.1339
     30 C          -2.5387    5.1409    1.9597 C.3     1  UNL1       -0.0058
     31 O          -0.4427    4.4325    1.2332 O.2     1  UNL1       -0.2974
     32 H          -2.6747    2.2784    1.6899 H       1  UNL1        0.0383
     33 H          -4.2763    3.0641    0.3044 H       1  UNL1        0.0272
     34 H          -3.1628    3.9646   -0.7533 H       1  UNL1        0.0272
     35 H          -4.1429    1.3524   -1.3021 H       1  UNL1        0.0268
     36 H          -2.6465    2.1639   -2.0271 H       1  UNL1        0.0268
     37 H          -2.6790    0.4821    0.5129 H       1  UNL1        0.0309
     38 H          -0.8861    0.2347   -1.9720 H       1  UNL1        0.0308
     39 H          -3.3828   -1.2411   -1.0249 H       1  UNL1        0.0271
     40 H          -2.9474   -0.6082   -2.6109 H       1  UNL1        0.0271
     41 H          -1.2668   -2.2428   -3.0122 H       1  UNL1        0.0310
     42 H          -2.7803   -3.0788   -2.3730 H       1  UNL1        0.0310
     43 H          -2.4858   -4.5089   -0.7912 H       1  UNL1        0.0652
     44 H           1.1137   -4.6883   -0.1374 H       1  UNL1        0.0345
     45 H           1.1258   -4.4443    1.6391 H       1  UNL1        0.0345
     46 H           0.3606   -2.2654    1.5673 H       1  UNL1        0.0278
     47 H           1.8171   -2.4443    0.5754 H       1  UNL1        0.0278
     48 H           1.9718   -2.2414   -1.4280 H       1  UNL1        0.0238
     49 H           0.6832   -2.6453   -2.5652 H       1  UNL1        0.0238
     50 H           1.0014   -0.9155   -2.1365 H       1  UNL1        0.0238
     51 H          -1.1883   -0.9512    0.7498 H       1  UNL1        0.0348
     52 H           0.6650    0.8481   -0.8278 H       1  UNL1        0.0737
     53 H          -0.5442    1.0069    1.9593 H       1  UNL1        0.0306
     54 H           0.6103    2.1971    1.1135 H       1  UNL1        0.0306
     55 H          -1.1313    3.7383   -1.1800 H       1  UNL1        0.0235
     56 H           0.4449    3.0317   -0.6709 H       1  UNL1        0.0235
     57 H          -0.5280    2.2468   -1.9297 H       1  UNL1        0.0235
     58 H           4.8150   -0.7673   -0.5757 H       1  UNL1        0.0383
     59 H           4.8732    0.7475    0.3305 H       1  UNL1        0.0383
     60 H           4.0817   -0.4582    2.3525 H       1  UNL1        0.0383
     61 H           4.0203   -2.0084    1.4056 H       1  UNL1        0.0383
     62 H           7.8732   -0.4206    1.3158 H       1  UNL1        0.2951
     63 H          -2.5259    6.1126    1.4254 H       1  UNL1        0.0306
     64 H          -3.5473    4.7265    2.1091 H       1  UNL1        0.0306
     65 H          -2.1538    5.3217    3.0061 H       1  UNL1        0.0306
@<TRIPOS>BOND
     1     1     2    1
     2     2     3    1
     3     3     4    1
     4     4     5    1
     5     5     6    1
     6     6     7    1
     7     7     8    1
     8     8     9    2
     9     9    10    1
    10    10    11    2
    11    10    12    1
    12    12    13    1
    13    13    14    1
    14    14    15    1
    15    14    16    1
    16    16    17    1
    17    17    18    1
    18    18    19    1
    19    19    20    1
    20    17    21    1
    21    21    22    1
    22    22    23    2
    23    22    24    1
    24    24    25    1
    25    25    26    1
    26    26    27    1
    27    26    28    2
    28     1    29    1
    29    29    30    1
    30    29    31    2
    31    19     1    1
    32    19     4    1
    33    16     5    1
    34    14     8    1
    35     1    32    1
    36     2    33    1
    37     2    34    1
    38     3    35    1
    39     3    36    1
    40     4    37    1
    41     5    38    1
    42     6    39    1
    43     6    40    1
    44     7    41    1
    45     7    42    1
    46     9    43    1
    47    12    44    1
    48    12    45    1
    49    13    46    1
    50    13    47    1
    51    15    48    1
    52    15    49    1
    53    15    50    1
    54    16    51    1
    55    17    52    1
    56    18    53    1
    57    18    54    1
    58    20    55    1
    59    20    56    1
    60    20    57    1
    61    24    58    1
    62    24    59    1
    63    25    60    1
    64    25    61    1
    65    27    62    1
    66    30    63    1
    67    30    64    1
    68    30    65    1
