
     RDKit          3D

 63 67  0  0  0  0  0  0  0  0999 V2000
    0.8005   -0.0368   -0.0748 O   0  0  0  0  0  0  0  0  0  0  0  0
    0.3049    0.6906    0.7967 C   0  0  0  0  0  0  0  0  0  0  0  0
    1.1041    1.5395    1.6066 N   0  0  0  0  0  0  0  0  0  0  0  0
    2.5217    1.5417    1.3958 C   0  0  0  0  0  0  0  0  0  0  0  0
    3.2821    0.6571    2.1088 C   0  0  0  0  0  0  0  0  0  0  0  0
    4.6441    0.6328    1.9310 C   0  0  0  0  0  0  0  0  0  0  0  0
    5.2959    1.4729    1.0515 C   0  0  0  0  0  0  0  0  0  0  0  0
    6.6828    1.4101    0.9059 O   0  0  0  0  0  0  0  0  0  0  0  0
    7.2343    0.5623   -0.0416 C   0  0  0  0  0  0  0  0  0  0  0  0
    7.4491    1.0448   -1.3045 C   0  0  0  0  0  0  0  0  0  0  0  0
    8.0001    0.2032   -2.2571 C   0  0  0  0  0  0  0  0  0  0  0  0
    8.3168   -1.0890   -1.9155 C   0  0  0  0  0  0  0  0  0  0  0  0
    8.8629   -1.9768   -2.8005 F   0  0  0  0  0  0  0  0  0  0  0  0
    8.0928   -1.5590   -0.6346 C   0  0  0  0  0  0  0  0  0  0  0  0
    7.5451   -0.7344    0.3253 C   0  0  0  0  0  0  0  0  0  0  0  0
    4.5050    2.3506    0.3494 C   0  0  0  0  0  0  0  0  0  0  0  0
    3.1364    2.3960    0.5085 C   0  0  0  0  0  0  0  0  0  0  0  0
   -1.1654    0.6924    1.0198 C   0  0  2  0  0  0  0  0  0  0  0  0
   -1.5032    0.1681    2.4116 C   0  0  0  0  0  0  0  0  0  0  0  0
   -2.8048   -0.5571    2.1380 C   0  0  1  0  0  0  0  0  0  0  0  0
   -3.8590    0.4879    1.9132 C   0  0  0  0  0  0  0  0  0  0  0  0
   -5.2036   -0.0530    1.6320 C   0  0  0  0  0  0  0  0  0  0  0  0
   -5.6161   -0.2944    0.3452 C   0  0  0  0  0  0  0  0  0  0  0  0
   -6.8799   -0.8078    0.0592 C   0  0  0  0  0  0  0  0  0  0  0  0
   -7.7454   -1.0830    1.0982 C   0  0  0  0  0  0  0  0  0  0  0  0
   -8.9723   -1.5825    0.8024 F   0  0  0  0  0  0  0  0  0  0  0  0
   -7.3483   -0.8474    2.3868 C   0  0  0  0  0  0  0  0  0  0  0  0
   -6.0983   -0.3415    2.6414 C   0  0  0  0  0  0  0  0  0  0  0  0
   -2.4861   -1.2653    0.8415 C   0  0  0  0  0  0  0  0  0  0  0  0
   -1.7963   -0.2345    0.0997 N   0  0  0  0  0  0  0  0  0  0  0  0
   -1.7307   -0.1298   -1.3110 C   0  0  0  0  0  0  0  0  0  0  0  0
   -1.1002    0.8178   -1.8833 O   0  0  0  0  0  0  0  0  0  0  0  0
   -2.3979   -1.1264   -2.1494 C   0  0  0  0  0  0  0  0  0  0  0  0
   -2.2208   -0.8535   -3.5621 N   0  0  0  0  0  0  0  0  0  0  0  0
   -3.0410   -0.0955   -4.3227 C   0  0  0  0  0  0  0  0  0  0  0  0
   -2.5593   -0.0594   -5.6143 C   0  0  0  0  0  0  0  0  0  0  0  0
   -1.4409   -0.8117   -5.5933 N   0  0  0  0  0  0  0  0  0  0  0  0
   -1.2596   -1.2720   -4.3676 N   0  0  0  0  0  0  0  0  0  0  0  0
    0.6441    2.1285    2.3211 H   0  0  0  0  0  0  0  0  0  0  0  0
    2.7953   -0.0250    2.8167 H   0  0  0  0  0  0  0  0  0  0  0  0
    5.2496   -0.0754    2.5023 H   0  0  0  0  0  0  0  0  0  0  0  0
    7.1936    2.0740   -1.5657 H   0  0  0  0  0  0  0  0  0  0  0  0
    8.1826    0.5423   -3.2523 H   0  0  0  0  0  0  0  0  0  0  0  0
    8.3403   -2.5853   -0.3493 H   0  0  0  0  0  0  0  0  0  0  0  0
    7.3787   -1.1258    1.3233 H   0  0  0  0  0  0  0  0  0  0  0  0
    4.9985    3.0184   -0.3460 H   0  0  0  0  0  0  0  0  0  0  0  0
    2.5270    3.1094   -0.0670 H   0  0  0  0  0  0  0  0  0  0  0  0
   -1.5732    1.7141    0.8832 H   0  0  0  0  0  0  0  0  0  0  0  0
   -1.6413    0.9990    3.1336 H   0  0  0  0  0  0  0  0  0  0  0  0
   -0.7195   -0.5434    2.7052 H   0  0  0  0  0  0  0  0  0  0  0  0
   -3.0648   -1.2634    2.9491 H   0  0  0  0  0  0  0  0  0  0  0  0
   -3.5240    1.1844    1.0993 H   0  0  0  0  0  0  0  0  0  0  0  0
   -3.9718    1.1553    2.8092 H   0  0  0  0  0  0  0  0  0  0  0  0
   -4.9795   -0.0941   -0.5021 H   0  0  0  0  0  0  0  0  0  0  0  0
   -7.2161   -1.0021   -0.9501 H   0  0  0  0  0  0  0  0  0  0  0  0
   -8.0138   -1.0584    3.1950 H   0  0  0  0  0  0  0  0  0  0  0  0
   -5.7854   -0.1544    3.6800 H   0  0  0  0  0  0  0  0  0  0  0  0
   -3.3797   -1.6621    0.3278 H   0  0  0  0  0  0  0  0  0  0  0  0
   -1.7447   -2.0656    1.0671 H   0  0  0  0  0  0  0  0  0  0  0  0
   -3.4684   -1.2891   -1.9237 H   0  0  0  0  0  0  0  0  0  0  0  0
   -1.9010   -2.1173   -1.9327 H   0  0  0  0  0  0  0  0  0  0  0  0
   -3.9290    0.3995   -3.9698 H   0  0  0  0  0  0  0  0  0  0  0  0
   -2.9469    0.4419   -6.4906 H   0  0  0  0  0  0  0  0  0  0  0  0
  1  2  2  0
  2  3  1  0
  3  4  1  0
  4  5  2  0
  5  6  1  0
  6  7  2  0
  7  8  1  0
  8  9  1  0
  9 10  2  0
 10 11  1  0
 11 12  2  0
 12 13  1  0
 12 14  1  0
 14 15  2  0
  7 16  1  0
 16 17  2  0
  2 18  1  0
 18 19  1  0
 19 20  1  0
 20 21  1  0
 21 22  1  0
 22 23  2  0
 23 24  1  0
 24 25  2  0
 25 26  1  0
 25 27  1  0
 27 28  2  0
 20 29  1  0
 29 30  1  0
 30 31  1  0
 31 32  2  0
 31 33  1  0
 33 34  1  0
 34 35  1  0
 35 36  2  0
 36 37  1  0
 37 38  2  0
 17  4  1  0
 30 18  1  0
 38 34  1  0
 15  9  1  0
 28 22  1  0
  3 39  1  0
  5 40  1  0
  6 41  1  0
 10 42  1  0
 11 43  1  0
 14 44  1  0
 15 45  1  0
 16 46  1  0
 17 47  1  0
 18 48  1  1
 19 49  1  0
 19 50  1  0
 20 51  1  1
 21 52  1  0
 21 53  1  0
 23 54  1  0
 24 55  1  0
 27 56  1  0
 28 57  1  0
 29 58  1  0
 29 59  1  0
 33 60  1  0
 33 61  1  0
 35 62  1  0
 36 63  1  0
M  END
$$$$
