@<TRIPOS>MOLECULE
*****
 63 67 0 0 0
SMALL
GASTEIGER

@<TRIPOS>ATOM
      1 O           0.8005   -0.0368   -0.0748 O.2     1  UNL1       -0.2734
      2 C           0.3049    0.6906    0.7967 C.2     1  UNL1        0.2378
      3 N           1.1041    1.5395    1.6066 N.am    1  UNL1       -0.2840
      4 C           2.5217    1.5417    1.3958 C.ar    1  UNL1        0.0337
      5 C           3.2821    0.6571    2.1088 C.ar    1  UNL1       -0.0370
      6 C           4.6441    0.6328    1.9310 C.ar    1  UNL1       -0.0176
      7 C           5.2959    1.4729    1.0515 C.ar    1  UNL1        0.1286
      8 O           6.6828    1.4101    0.9059 O.3     1  UNL1       -0.4560
      9 C           7.2343    0.5623   -0.0416 C.ar    1  UNL1        0.1286
     10 C           7.4491    1.0448   -1.3045 C.ar    1  UNL1       -0.0166
     11 C           8.0001    0.2032   -2.2571 C.ar    1  UNL1       -0.0230
     12 C           8.3168   -1.0890   -1.9155 C.ar    1  UNL1        0.1236
     13 F           8.8629   -1.9768   -2.8005 F       1  UNL1       -0.2055
     14 C           8.0928   -1.5590   -0.6346 C.ar    1  UNL1       -0.0230
     15 C           7.5451   -0.7344    0.3253 C.ar    1  UNL1       -0.0166
     16 C           4.5050    2.3506    0.3494 C.ar    1  UNL1       -0.0176
     17 C           3.1364    2.3960    0.5085 C.ar    1  UNL1       -0.0370
     18 C          -1.1654    0.6924    1.0198 C.3     1  UNL1        0.1028
     19 C          -1.5032    0.1681    2.4116 C.3     1  UNL1       -0.0212
     20 C          -2.8048   -0.5571    2.1380 C.3     1  UNL1       -0.0191
     21 C          -3.8590    0.4879    1.9132 C.3     1  UNL1       -0.0233
     22 C          -5.2036   -0.0530    1.6320 C.ar    1  UNL1       -0.0469
     23 C          -5.6161   -0.2944    0.3452 C.ar    1  UNL1       -0.0559
     24 C          -6.8799   -0.8078    0.0592 C.ar    1  UNL1       -0.0262
     25 C          -7.7454   -1.0830    1.0982 C.ar    1  UNL1        0.1234
     26 F          -8.9723   -1.5825    0.8024 F       1  UNL1       -0.2055
     27 C          -7.3483   -0.8474    2.3868 C.ar    1  UNL1       -0.0262
     28 C          -6.0983   -0.3415    2.6414 C.ar    1  UNL1       -0.0559
     29 C          -2.4861   -1.2653    0.8415 C.3     1  UNL1        0.0187
     30 N          -1.7963   -0.2345    0.0997 N.am    1  UNL1       -0.2881
     31 C          -1.7307   -0.1298   -1.3110 C.2     1  UNL1        0.2377
     32 O          -1.1002    0.8178   -1.8833 O.2     1  UNL1       -0.2736
     33 C          -2.3979   -1.1264   -2.1494 C.3     1  UNL1        0.1194
     34 N          -2.2208   -0.8535   -3.5621 N.ar    1  UNL1       -0.2429
     35 C          -3.0410   -0.0955   -4.3227 C.ar    1  UNL1        0.0460
     36 C          -2.5593   -0.0594   -5.6143 C.ar    1  UNL1        0.0693
     37 N          -1.4409   -0.8117   -5.5933 N.ar    1  UNL1       -0.1379
     38 N          -1.2596   -1.2720   -4.3676 N.ar    1  UNL1       -0.0653
     39 H           0.6441    2.1285    2.3211 H       1  UNL1        0.1549
     40 H           2.7953   -0.0250    2.8167 H       1  UNL1        0.0637
     41 H           5.2496   -0.0754    2.5023 H       1  UNL1        0.0655
     42 H           7.1936    2.0740   -1.5657 H       1  UNL1        0.0655
     43 H           8.1826    0.5423   -3.2523 H       1  UNL1        0.0647
     44 H           8.3403   -2.5853   -0.3493 H       1  UNL1        0.0647
     45 H           7.3787   -1.1258    1.3233 H       1  UNL1        0.0655
     46 H           4.9985    3.0184   -0.3460 H       1  UNL1        0.0655
     47 H           2.5270    3.1094   -0.0670 H       1  UNL1        0.0637
     48 H          -1.5732    1.7141    0.8832 H       1  UNL1        0.0597
     49 H          -1.6413    0.9990    3.1336 H       1  UNL1        0.0291
     50 H          -0.7195   -0.5434    2.7052 H       1  UNL1        0.0291
     51 H          -3.0648   -1.2634    2.9491 H       1  UNL1        0.0320
     52 H          -3.5240    1.1844    1.0993 H       1  UNL1        0.0316
     53 H          -3.9718    1.1553    2.8092 H       1  UNL1        0.0316
     54 H          -4.9795   -0.0941   -0.5021 H       1  UNL1        0.0621
     55 H          -7.2161   -1.0021   -0.9501 H       1  UNL1        0.0646
     56 H          -8.0138   -1.0584    3.1950 H       1  UNL1        0.0646
     57 H          -5.7854   -0.1544    3.6800 H       1  UNL1        0.0621
     58 H          -3.3797   -1.6621    0.3278 H       1  UNL1        0.0467
     59 H          -1.7447   -2.0656    1.0671 H       1  UNL1        0.0467
     60 H          -3.4684   -1.2891   -1.9237 H       1  UNL1        0.0606
     61 H          -1.9010   -2.1173   -1.9327 H       1  UNL1        0.0606
     62 H          -3.9290    0.3995   -3.9698 H       1  UNL1        0.0842
     63 H          -2.9469    0.4419   -6.4906 H       1  UNL1        0.0864
@<TRIPOS>BOND
     1     1     2    2
     2     2     3   am
     3     3     4    1
     4     4     5   ar
     5     5     6   ar
     6     6     7   ar
     7     7     8    1
     8     8     9    1
     9     9    10   ar
    10    10    11   ar
    11    11    12   ar
    12    12    13    1
    13    12    14   ar
    14    14    15   ar
    15     7    16   ar
    16    16    17   ar
    17     2    18    1
    18    18    19    1
    19    19    20    1
    20    20    21    1
    21    21    22    1
    22    22    23   ar
    23    23    24   ar
    24    24    25   ar
    25    25    26    1
    26    25    27   ar
    27    27    28   ar
    28    20    29    1
    29    29    30    1
    30    30    31   am
    31    31    32    2
    32    31    33    1
    33    33    34    1
    34    34    35   ar
    35    35    36   ar
    36    36    37   ar
    37    37    38   ar
    38    17     4   ar
    39    30    18    1
    40    38    34   ar
    41    15     9   ar
    42    28    22   ar
    43     3    39    1
    44     5    40    1
    45     6    41    1
    46    10    42    1
    47    11    43    1
    48    14    44    1
    49    15    45    1
    50    16    46    1
    51    17    47    1
    52    18    48    1
    53    19    49    1
    54    19    50    1
    55    20    51    1
    56    21    52    1
    57    21    53    1
    58    23    54    1
    59    24    55    1
    60    27    56    1
    61    28    57    1
    62    29    58    1
    63    29    59    1
    64    33    60    1
    65    33    61    1
    66    35    62    1
    67    36    63    1
