@<TRIPOS>MOLECULE
*****
 118 122 0 0 0
SMALL
GASTEIGER

@<TRIPOS>ATOM
      1 C           5.2295    4.3701   -1.8981 C.3     1  UNL1        0.0788
      2 O           5.5071    3.2686   -1.2317 O.3     1  UNL1       -0.4942
      3 C           5.5658    2.2531   -0.4304 C.ar    1  UNL1        0.1375
      4 C           4.6213    2.1177    0.5996 C.ar    1  UNL1        0.0022
      5 C           4.6757    1.0594    1.4420 C.ar    1  UNL1        0.0394
      6 N           3.6903    0.9043    2.4928 N.pl3   1  UNL1       -0.2992
      7 C           2.6992   -0.1323    2.2474 C.ar    1  UNL1        0.1264
      8 C           1.4995    0.3502    1.8004 C.ar    1  UNL1        0.0208
      9 C           0.4500   -0.5299    1.4143 C.ar    1  UNL1        0.1332
     10 O          -0.6656    0.0319    0.9982 O.3     1  UNL1       -0.4553
     11 C          -1.8188   -0.2451    0.4466 C.ar    1  UNL1        0.1362
     12 C          -2.1895    0.3228   -0.8082 C.ar    1  UNL1       -0.0170
     13 C          -3.4052    0.0399   -1.3870 C.ar    1  UNL1       -0.0364
     14 C          -4.3013   -0.7852   -0.8053 C.ar    1  UNL1        0.0427
     15 N          -5.5927   -1.0657   -1.3256 N.am    1  UNL1       -0.2686
     16 C          -6.7489   -0.4152   -0.7538 C.2     1  UNL1        0.3082
     17 O          -6.4498    0.4896    0.1223 O.2     1  UNL1       -0.2521
     18 N          -8.0584   -0.6756   -1.0348 N.am    1  UNL1       -0.2660
     19 C          -9.2591   -0.1634   -0.4988 C.ar    1  UNL1        0.0789
     20 C         -10.1452    0.5506   -1.3378 C.ar    1  UNL1       -0.0330
     21 C         -11.3981    0.9534   -0.8873 C.ar    1  UNL1       -0.0382
     22 C         -12.3259    1.6869   -1.7849 C.3     1  UNL1       -0.0126
     23 C         -13.6411    1.8665   -1.0448 C.3     1  UNL1       -0.0560
     24 C         -12.5819    0.7655   -2.9905 C.3     1  UNL1       -0.0560
     25 C         -11.8251    3.0103   -2.2321 C.3     1  UNL1       -0.0560
     26 C         -11.7465    0.6364    0.4088 C.ar    1  UNL1       -0.0320
     27 C         -10.9149   -0.0534    1.2659 C.ar    1  UNL1        0.0913
     28 N         -11.2308   -0.4268    2.5880 N.pl3   1  UNL1       -0.2173
     29 S         -12.5951    0.1334    3.4947 S.O2    1  UNL1        0.0404
     30 C         -14.1290   -0.3479    2.7163 C.3     1  UNL1        0.0736
     31 O         -12.5788    1.6329    3.6328 O.2     1  UNL1       -0.1555
     32 O         -12.5178   -0.4587    4.8807 O.2     1  UNL1       -0.1555
     33 C          -9.6469   -0.4484    0.7801 C.ar    1  UNL1        0.1634
     34 O          -8.8545   -1.1054    1.6863 O.3     1  UNL1       -0.4914
     35 C          -8.0460   -0.4125    2.6220 C.3     1  UNL1        0.0790
     36 C          -3.9393   -1.3539    0.4270 C.ar    1  UNL1        0.0069
     37 C          -4.9039   -2.2015    0.9881 C.ar    1  UNL1       -0.0521
     38 C          -4.5891   -2.7744    2.2017 C.ar    1  UNL1       -0.0611
     39 C          -3.4071   -2.5319    2.8320 C.ar    1  UNL1       -0.0611
     40 C          -2.4587   -1.6934    2.2773 C.ar    1  UNL1       -0.0505
     41 C          -2.7380   -1.0979    1.0445 C.ar    1  UNL1        0.0262
     42 C           0.7722   -1.8757    1.5411 C.ar    1  UNL1       -0.0011
     43 C           2.0063   -2.3002    2.0040 C.ar    1  UNL1        0.0332
     44 N           2.9400   -1.4265    2.3462 N.ar    1  UNL1       -0.2400
     45 C           5.6554    0.1289    1.2861 C.ar    1  UNL1        0.0022
     46 C           6.6282    0.2040    0.2827 C.ar    1  UNL1        0.1375
     47 O           7.5294   -0.7237    0.1872 O.3     1  UNL1       -0.4942
     48 C           8.4197   -1.6459    0.0977 C.3     1  UNL1        0.0788
     49 C           6.5745    1.2920   -0.5866 C.ar    1  UNL1        0.1198
     50 C           7.4976    1.4298   -1.7224 C.2     1  UNL1        0.2512
     51 O           7.0210    1.7952   -2.8284 O.2     1  UNL1       -0.2699
     52 N           8.8533    1.1629   -1.5579 N.am    1  UNL1       -0.3090
     53 C           9.8344    1.2284   -2.5936 C.3     1  UNL1        0.0353
     54 C           9.6666    0.2844   -3.7423 C.3     1  UNL1        0.0633
     55 O           9.6669   -1.0524   -3.3456 O.3     1  UNL1       -0.3760
     56 C          10.7344   -1.3804   -2.5674 C.3     1  UNL1        0.0711
     57 C          12.0989   -1.2294   -3.0939 C.3     1  UNL1        0.0711
     58 O          13.0344   -1.6174   -2.1377 O.3     1  UNL1       -0.3752
     59 C          12.9153   -0.8934   -0.9906 C.3     1  UNL1        0.0717
     60 C          14.0374   -1.2283    0.0118 C.3     1  UNL1        0.0824
     61 O          13.7555   -0.4045    1.1206 O.3     1  UNL1       -0.2845
     62 P          15.0944   -0.2250    2.0944 P.3     1  UNL1        0.4724
     63 O          15.0217    1.0756    2.8924 O.2     1  UNL1       -0.2275
     64 O          15.1651   -1.5215    3.2052 O.3     1  UNL1       -0.3026
     65 O          16.5218   -0.1749    1.2145 O.3     1  UNL1       -0.3026
     66 H           4.1166    4.5655   -1.9813 H       1  UNL1        0.0660
     67 H           5.5992    5.3440   -1.4246 H       1  UNL1        0.0660
     68 H           5.6529    4.4554   -2.9411 H       1  UNL1        0.0660
     69 H           3.8634    2.8706    0.6819 H       1  UNL1        0.0673
     70 H           3.7008    1.4829    3.3065 H       1  UNL1        0.1536
     71 H           1.2676    1.3954    1.7187 H       1  UNL1        0.0689
     72 H          -1.4576    0.9764   -1.2430 H       1  UNL1        0.0655
     73 H          -3.6364    0.4999   -2.3577 H       1  UNL1        0.0637
     74 H          -5.7677   -1.7241   -2.1113 H       1  UNL1        0.1564
     75 H          -8.2816   -1.4201   -1.8332 H       1  UNL1        0.1565
     76 H          -9.8338    0.7723   -2.3366 H       1  UNL1        0.0640
     77 H         -14.3764    2.2858   -1.7687 H       1  UNL1        0.0238
     78 H         -13.4908    2.5587   -0.2076 H       1  UNL1        0.0238
     79 H         -14.0694    0.8896   -0.7516 H       1  UNL1        0.0238
     80 H         -11.7079    0.1128   -3.1771 H       1  UNL1        0.0238
     81 H         -13.4501    0.1208   -2.8086 H       1  UNL1        0.0238
     82 H         -12.7053    1.3796   -3.9352 H       1  UNL1        0.0238
     83 H         -11.2554    3.4884   -1.4008 H       1  UNL1        0.0238
     84 H         -12.7125    3.6980   -2.4098 H       1  UNL1        0.0238
     85 H         -11.1595    2.9963   -3.1032 H       1  UNL1        0.0238
     86 H         -12.7244    0.9313    0.7849 H       1  UNL1        0.0641
     87 H         -10.6237   -1.1194    3.0803 H       1  UNL1        0.1734
     88 H         -13.9162   -0.9212    1.7840 H       1  UNL1        0.0482
     89 H         -14.7857    0.5153    2.5514 H       1  UNL1        0.0482
     90 H         -14.6427   -1.0357    3.3993 H       1  UNL1        0.0482
     91 H          -6.9690   -0.5383    2.4937 H       1  UNL1        0.0660
     92 H          -8.2579    0.6880    2.4060 H       1  UNL1        0.0660
     93 H          -8.3916   -0.5648    3.6752 H       1  UNL1        0.0660
     94 H          -5.8423   -2.3816    0.4808 H       1  UNL1        0.0624
     95 H          -5.3370   -3.4558    2.6487 H       1  UNL1        0.0618
     96 H          -3.1371   -2.9898    3.7849 H       1  UNL1        0.0618
     97 H          -1.5539   -1.4830    2.8036 H       1  UNL1        0.0625
     98 H           0.0394   -2.6061    1.2642 H       1  UNL1        0.0669
     99 H           2.1570   -3.3800    2.0687 H       1  UNL1        0.0831
    100 H           5.7035   -0.7360    1.9772 H       1  UNL1        0.0673
    101 H           9.4405   -1.3563    0.4704 H       1  UNL1        0.0660
    102 H           8.1063   -2.6083    0.6444 H       1  UNL1        0.0660
    103 H           8.5436   -2.0058   -0.9933 H       1  UNL1        0.0660
    104 H           9.1517    0.9104   -0.5380 H       1  UNL1        0.1491
    105 H           9.8599    2.2486   -3.0332 H       1  UNL1        0.0485
    106 H          10.8328    1.0864   -2.1379 H       1  UNL1        0.0485
    107 H           8.6562    0.4596   -4.2006 H       1  UNL1        0.0575
    108 H          10.3890    0.5278   -4.5250 H       1  UNL1        0.0575
    109 H          10.6204   -0.8756   -1.5428 H       1  UNL1        0.0583
    110 H          10.5870   -2.4688   -2.2934 H       1  UNL1        0.0583
    111 H          12.3762   -0.2156   -3.4251 H       1  UNL1        0.0583
    112 H          12.3076   -1.8651   -3.9928 H       1  UNL1        0.0583
    113 H          12.0028   -1.1789   -0.3718 H       1  UNL1        0.0583
    114 H          12.8099    0.1977   -1.1234 H       1  UNL1        0.0583
    115 H          15.0267   -1.0633   -0.4001 H       1  UNL1        0.0588
    116 H          13.8602   -2.2699    0.3430 H       1  UNL1        0.0588
    117 H          15.8780   -2.1657    2.9031 H       1  UNL1        0.2220
    118 H          16.8568    0.7388    1.0213 H       1  UNL1        0.2220
@<TRIPOS>BOND
     1     1     2    1
     2     2     3    1
     3     3     4   ar
     4     4     5   ar
     5     5     6    1
     6     6     7    1
     7     7     8   ar
     8     8     9   ar
     9     9    10    1
    10    10    11    1
    11    11    12   ar
    12    12    13   ar
    13    13    14   ar
    14    14    15    1
    15    15    16   am
    16    16    17    2
    17    16    18   am
    18    18    19    1
    19    19    20   ar
    20    20    21   ar
    21    21    22    1
    22    22    23    1
    23    22    24    1
    24    22    25    1
    25    21    26   ar
    26    26    27   ar
    27    27    28    1
    28    28    29    1
    29    29    30    1
    30    29    31    2
    31    29    32    2
    32    27    33   ar
    33    33    34    1
    34    34    35    1
    35    14    36   ar
    36    36    37   ar
    37    37    38   ar
    38    38    39   ar
    39    39    40   ar
    40    40    41   ar
    41     9    42   ar
    42    42    43   ar
    43    43    44   ar
    44     5    45   ar
    45    45    46   ar
    46    46    47    1
    47    47    48    1
    48    46    49   ar
    49    49    50    1
    50    50    51    2
    51    50    52   am
    52    52    53    1
    53    53    54    1
    54    54    55    1
    55    55    56    1
    56    56    57    1
    57    57    58    1
    58    58    59    1
    59    59    60    1
    60    60    61    1
    61    61    62    1
    62    62    63    2
    63    62    64    1
    64    62    65    1
    65    49     3   ar
    66    44     7   ar
    67    41    11   ar
    68    33    19   ar
    69    41    36   ar
    70     1    66    1
    71     1    67    1
    72     1    68    1
    73     4    69    1
    74     6    70    1
    75     8    71    1
    76    12    72    1
    77    13    73    1
    78    15    74    1
    79    18    75    1
    80    20    76    1
    81    23    77    1
    82    23    78    1
    83    23    79    1
    84    24    80    1
    85    24    81    1
    86    24    82    1
    87    25    83    1
    88    25    84    1
    89    25    85    1
    90    26    86    1
    91    28    87    1
    92    30    88    1
    93    30    89    1
    94    30    90    1
    95    35    91    1
    96    35    92    1
    97    35    93    1
    98    37    94    1
    99    38    95    1
   100    39    96    1
   101    40    97    1
   102    42    98    1
   103    43    99    1
   104    45   100    1
   105    48   101    1
   106    48   102    1
   107    48   103    1
   108    52   104    1
   109    53   105    1
   110    53   106    1
   111    54   107    1
   112    54   108    1
   113    56   109    1
   114    56   110    1
   115    57   111    1
   116    57   112    1
   117    59   113    1
   118    59   114    1
   119    60   115    1
   120    60   116    1
   121    64   117    1
   122    65   118    1
