
     RDKit          3D

118122  0  0  0  0  0  0  0  0999 V2000
    5.2295    4.3701   -1.8981 C   0  0  0  0  0  0  0  0  0  0  0  0
    5.5071    3.2686   -1.2317 O   0  0  0  0  0  0  0  0  0  0  0  0
    5.5658    2.2531   -0.4304 C   0  0  0  0  0  0  0  0  0  0  0  0
    4.6213    2.1177    0.5996 C   0  0  0  0  0  0  0  0  0  0  0  0
    4.6757    1.0594    1.4420 C   0  0  0  0  0  0  0  0  0  0  0  0
    3.6903    0.9043    2.4928 N   0  0  0  0  0  0  0  0  0  0  0  0
    2.6992   -0.1323    2.2474 C   0  0  0  0  0  0  0  0  0  0  0  0
    1.4995    0.3502    1.8004 C   0  0  0  0  0  0  0  0  0  0  0  0
    0.4500   -0.5299    1.4143 C   0  0  0  0  0  0  0  0  0  0  0  0
   -0.6656    0.0319    0.9982 O   0  0  0  0  0  0  0  0  0  0  0  0
   -1.8188   -0.2451    0.4466 C   0  0  0  0  0  0  0  0  0  0  0  0
   -2.1895    0.3228   -0.8082 C   0  0  0  0  0  0  0  0  0  0  0  0
   -3.4052    0.0399   -1.3870 C   0  0  0  0  0  0  0  0  0  0  0  0
   -4.3013   -0.7852   -0.8053 C   0  0  0  0  0  0  0  0  0  0  0  0
   -5.5927   -1.0657   -1.3256 N   0  0  0  0  0  0  0  0  0  0  0  0
   -6.7489   -0.4152   -0.7538 C   0  0  0  0  0  0  0  0  0  0  0  0
   -6.4498    0.4896    0.1223 O   0  0  0  0  0  0  0  0  0  0  0  0
   -8.0584   -0.6756   -1.0348 N   0  0  0  0  0  0  0  0  0  0  0  0
   -9.2591   -0.1634   -0.4988 C   0  0  0  0  0  0  0  0  0  0  0  0
  -10.1452    0.5506   -1.3378 C   0  0  0  0  0  0  0  0  0  0  0  0
  -11.3981    0.9534   -0.8873 C   0  0  0  0  0  0  0  0  0  0  0  0
  -12.3259    1.6869   -1.7849 C   0  0  0  0  0  0  0  0  0  0  0  0
  -13.6411    1.8665   -1.0448 C   0  0  0  0  0  0  0  0  0  0  0  0
  -12.5819    0.7655   -2.9905 C   0  0  0  0  0  0  0  0  0  0  0  0
  -11.8251    3.0103   -2.2321 C   0  0  0  0  0  0  0  0  0  0  0  0
  -11.7465    0.6364    0.4088 C   0  0  0  0  0  0  0  0  0  0  0  0
  -10.9149   -0.0534    1.2659 C   0  0  0  0  0  0  0  0  0  0  0  0
  -11.2308   -0.4268    2.5880 N   0  0  0  0  0  0  0  0  0  0  0  0
  -12.5951    0.1334    3.4947 S   0  0  0  0  0  6  0  0  0  0  0  0
  -14.1290   -0.3479    2.7163 C   0  0  0  0  0  0  0  0  0  0  0  0
  -12.5788    1.6329    3.6328 O   0  0  0  0  0  0  0  0  0  0  0  0
  -12.5178   -0.4587    4.8807 O   0  0  0  0  0  0  0  0  0  0  0  0
   -9.6469   -0.4484    0.7801 C   0  0  0  0  0  0  0  0  0  0  0  0
   -8.8545   -1.1054    1.6863 O   0  0  0  0  0  0  0  0  0  0  0  0
   -8.0460   -0.4125    2.6220 C   0  0  0  0  0  0  0  0  0  0  0  0
   -3.9393   -1.3539    0.4270 C   0  0  0  0  0  0  0  0  0  0  0  0
   -4.9039   -2.2015    0.9881 C   0  0  0  0  0  0  0  0  0  0  0  0
   -4.5891   -2.7744    2.2017 C   0  0  0  0  0  0  0  0  0  0  0  0
   -3.4071   -2.5319    2.8320 C   0  0  0  0  0  0  0  0  0  0  0  0
   -2.4587   -1.6934    2.2773 C   0  0  0  0  0  0  0  0  0  0  0  0
   -2.7380   -1.0979    1.0445 C   0  0  0  0  0  0  0  0  0  0  0  0
    0.7722   -1.8757    1.5411 C   0  0  0  0  0  0  0  0  0  0  0  0
    2.0063   -2.3002    2.0040 C   0  0  0  0  0  0  0  0  0  0  0  0
    2.9400   -1.4265    2.3462 N   0  0  0  0  0  0  0  0  0  0  0  0
    5.6554    0.1289    1.2861 C   0  0  0  0  0  0  0  0  0  0  0  0
    6.6282    0.2040    0.2827 C   0  0  0  0  0  0  0  0  0  0  0  0
    7.5294   -0.7237    0.1872 O   0  0  0  0  0  0  0  0  0  0  0  0
    8.4197   -1.6459    0.0977 C   0  0  0  0  0  0  0  0  0  0  0  0
    6.5745    1.2920   -0.5866 C   0  0  0  0  0  0  0  0  0  0  0  0
    7.4976    1.4298   -1.7224 C   0  0  0  0  0  0  0  0  0  0  0  0
    7.0210    1.7952   -2.8284 O   0  0  0  0  0  0  0  0  0  0  0  0
    8.8533    1.1629   -1.5579 N   0  0  0  0  0  0  0  0  0  0  0  0
    9.8344    1.2284   -2.5936 C   0  0  0  0  0  0  0  0  0  0  0  0
    9.6666    0.2844   -3.7423 C   0  0  0  0  0  0  0  0  0  0  0  0
    9.6669   -1.0524   -3.3456 O   0  0  0  0  0  0  0  0  0  0  0  0
   10.7344   -1.3804   -2.5674 C   0  0  0  0  0  0  0  0  0  0  0  0
   12.0989   -1.2294   -3.0939 C   0  0  0  0  0  0  0  0  0  0  0  0
   13.0344   -1.6174   -2.1377 O   0  0  0  0  0  0  0  0  0  0  0  0
   12.9153   -0.8934   -0.9906 C   0  0  0  0  0  0  0  0  0  0  0  0
   14.0374   -1.2283    0.0118 C   0  0  0  0  0  0  0  0  0  0  0  0
   13.7555   -0.4045    1.1206 O   0  0  0  0  0  0  0  0  0  0  0  0
   15.0944   -0.2250    2.0944 P   0  0  0  0  0  5  0  0  0  0  0  0
   15.0217    1.0756    2.8924 O   0  0  0  0  0  0  0  0  0  0  0  0
   15.1651   -1.5215    3.2052 O   0  0  0  0  0  0  0  0  0  0  0  0
   16.5218   -0.1749    1.2145 O   0  0  0  0  0  0  0  0  0  0  0  0
    4.1166    4.5655   -1.9813 H   0  0  0  0  0  0  0  0  0  0  0  0
    5.5992    5.3440   -1.4246 H   0  0  0  0  0  0  0  0  0  0  0  0
    5.6529    4.4554   -2.9411 H   0  0  0  0  0  0  0  0  0  0  0  0
    3.8634    2.8706    0.6819 H   0  0  0  0  0  0  0  0  0  0  0  0
    3.7008    1.4829    3.3065 H   0  0  0  0  0  0  0  0  0  0  0  0
    1.2676    1.3954    1.7187 H   0  0  0  0  0  0  0  0  0  0  0  0
   -1.4576    0.9764   -1.2430 H   0  0  0  0  0  0  0  0  0  0  0  0
   -3.6364    0.4999   -2.3577 H   0  0  0  0  0  0  0  0  0  0  0  0
   -5.7677   -1.7241   -2.1113 H   0  0  0  0  0  0  0  0  0  0  0  0
   -8.2816   -1.4201   -1.8332 H   0  0  0  0  0  0  0  0  0  0  0  0
   -9.8338    0.7723   -2.3366 H   0  0  0  0  0  0  0  0  0  0  0  0
  -14.3764    2.2858   -1.7687 H   0  0  0  0  0  0  0  0  0  0  0  0
  -13.4908    2.5587   -0.2076 H   0  0  0  0  0  0  0  0  0  0  0  0
  -14.0694    0.8896   -0.7516 H   0  0  0  0  0  0  0  0  0  0  0  0
  -11.7079    0.1128   -3.1771 H   0  0  0  0  0  0  0  0  0  0  0  0
  -13.4501    0.1208   -2.8086 H   0  0  0  0  0  0  0  0  0  0  0  0
  -12.7053    1.3796   -3.9352 H   0  0  0  0  0  0  0  0  0  0  0  0
  -11.2554    3.4884   -1.4008 H   0  0  0  0  0  0  0  0  0  0  0  0
  -12.7125    3.6980   -2.4098 H   0  0  0  0  0  0  0  0  0  0  0  0
  -11.1595    2.9963   -3.1032 H   0  0  0  0  0  0  0  0  0  0  0  0
  -12.7244    0.9313    0.7849 H   0  0  0  0  0  0  0  0  0  0  0  0
  -10.6237   -1.1194    3.0803 H   0  0  0  0  0  0  0  0  0  0  0  0
  -13.9162   -0.9212    1.7840 H   0  0  0  0  0  0  0  0  0  0  0  0
  -14.7857    0.5153    2.5514 H   0  0  0  0  0  0  0  0  0  0  0  0
  -14.6427   -1.0357    3.3993 H   0  0  0  0  0  0  0  0  0  0  0  0
   -6.9690   -0.5383    2.4937 H   0  0  0  0  0  0  0  0  0  0  0  0
   -8.2579    0.6880    2.4060 H   0  0  0  0  0  0  0  0  0  0  0  0
   -8.3916   -0.5648    3.6752 H   0  0  0  0  0  0  0  0  0  0  0  0
   -5.8423   -2.3816    0.4808 H   0  0  0  0  0  0  0  0  0  0  0  0
   -5.3370   -3.4558    2.6487 H   0  0  0  0  0  0  0  0  0  0  0  0
   -3.1371   -2.9898    3.7849 H   0  0  0  0  0  0  0  0  0  0  0  0
   -1.5539   -1.4830    2.8036 H   0  0  0  0  0  0  0  0  0  0  0  0
    0.0394   -2.6061    1.2642 H   0  0  0  0  0  0  0  0  0  0  0  0
    2.1570   -3.3800    2.0687 H   0  0  0  0  0  0  0  0  0  0  0  0
    5.7035   -0.7360    1.9772 H   0  0  0  0  0  0  0  0  0  0  0  0
    9.4405   -1.3563    0.4704 H   0  0  0  0  0  0  0  0  0  0  0  0
    8.1063   -2.6083    0.6444 H   0  0  0  0  0  0  0  0  0  0  0  0
    8.5436   -2.0058   -0.9933 H   0  0  0  0  0  0  0  0  0  0  0  0
    9.1517    0.9104   -0.5380 H   0  0  0  0  0  0  0  0  0  0  0  0
    9.8599    2.2486   -3.0332 H   0  0  0  0  0  0  0  0  0  0  0  0
   10.8328    1.0864   -2.1379 H   0  0  0  0  0  0  0  0  0  0  0  0
    8.6562    0.4596   -4.2006 H   0  0  0  0  0  0  0  0  0  0  0  0
   10.3890    0.5278   -4.5250 H   0  0  0  0  0  0  0  0  0  0  0  0
   10.6204   -0.8756   -1.5428 H   0  0  0  0  0  0  0  0  0  0  0  0
   10.5870   -2.4688   -2.2934 H   0  0  0  0  0  0  0  0  0  0  0  0
   12.3762   -0.2156   -3.4251 H   0  0  0  0  0  0  0  0  0  0  0  0
   12.3076   -1.8651   -3.9928 H   0  0  0  0  0  0  0  0  0  0  0  0
   12.0028   -1.1789   -0.3718 H   0  0  0  0  0  0  0  0  0  0  0  0
   12.8099    0.1977   -1.1234 H   0  0  0  0  0  0  0  0  0  0  0  0
   15.0267   -1.0633   -0.4001 H   0  0  0  0  0  0  0  0  0  0  0  0
   13.8602   -2.2699    0.3430 H   0  0  0  0  0  0  0  0  0  0  0  0
   15.8780   -2.1657    2.9031 H   0  0  0  0  0  0  0  0  0  0  0  0
   16.8568    0.7388    1.0213 H   0  0  0  0  0  0  0  0  0  0  0  0
  1  2  1  0
  2  3  1  0
  3  4  2  0
  4  5  1  0
  5  6  1  0
  6  7  1  0
  7  8  2  0
  8  9  1  0
  9 10  1  0
 10 11  1  0
 11 12  2  0
 12 13  1  0
 13 14  2  0
 14 15  1  0
 15 16  1  0
 16 17  2  0
 16 18  1  0
 18 19  1  0
 19 20  2  0
 20 21  1  0
 21 22  1  0
 22 23  1  0
 22 24  1  0
 22 25  1  0
 21 26  2  0
 26 27  1  0
 27 28  1  0
 28 29  1  0
 29 30  1  0
 29 31  2  0
 29 32  2  0
 27 33  2  0
 33 34  1  0
 34 35  1  0
 14 36  1  0
 36 37  2  0
 37 38  1  0
 38 39  2  0
 39 40  1  0
 40 41  2  0
  9 42  2  0
 42 43  1  0
 43 44  2  0
  5 45  2  0
 45 46  1  0
 46 47  1  0
 47 48  1  0
 46 49  2  0
 49 50  1  0
 50 51  2  0
 50 52  1  0
 52 53  1  0
 53 54  1  0
 54 55  1  0
 55 56  1  0
 56 57  1  0
 57 58  1  0
 58 59  1  0
 59 60  1  0
 60 61  1  0
 61 62  1  0
 62 63  2  0
 62 64  1  0
 62 65  1  0
 49  3  1  0
 44  7  1  0
 41 11  1  0
 33 19  1  0
 41 36  1  0
  1 66  1  0
  1 67  1  0
  1 68  1  0
  4 69  1  0
  6 70  1  0
  8 71  1  0
 12 72  1  0
 13 73  1  0
 15 74  1  0
 18 75  1  0
 20 76  1  0
 23 77  1  0
 23 78  1  0
 23 79  1  0
 24 80  1  0
 24 81  1  0
 24 82  1  0
 25 83  1  0
 25 84  1  0
 25 85  1  0
 26 86  1  0
 28 87  1  0
 30 88  1  0
 30 89  1  0
 30 90  1  0
 35 91  1  0
 35 92  1  0
 35 93  1  0
 37 94  1  0
 38 95  1  0
 39 96  1  0
 40 97  1  0
 42 98  1  0
 43 99  1  0
 45100  1  0
 48101  1  0
 48102  1  0
 48103  1  0
 52104  1  0
 53105  1  0
 53106  1  0
 54107  1  0
 54108  1  0
 56109  1  0
 56110  1  0
 57111  1  0
 57112  1  0
 59113  1  0
 59114  1  0
 60115  1  0
 60116  1  0
 64117  1  0
 65118  1  0
M  END
$$$$
