@<TRIPOS>MOLECULE
*****
 63 68 0 0 0
SMALL
GASTEIGER

@<TRIPOS>ATOM
      1 C          10.6837    1.7317    0.0014 C.3     1  UNL1        0.0805
      2 O           9.9517    1.0341   -0.9863 O.3     1  UNL1       -0.4786
      3 C           8.6594    0.6166   -0.6886 C.ar    1  UNL1        0.2332
      4 C           7.8849   -0.0666   -1.5991 C.ar    1  UNL1        0.0899
      5 N           6.6182   -0.4787   -1.3144 N.ar    1  UNL1       -0.2435
      6 C           6.0812   -0.2233   -0.1122 C.ar    1  UNL1        0.1439
      7 C           4.7287   -0.6403    0.2432 C.2     1  UNL1        0.2681
      8 O           4.2866   -0.3769    1.3947 O.2     1  UNL1       -0.2681
      9 N           3.8805   -1.3360   -0.6588 N.am    1  UNL1       -0.2802
     10 C           2.5752   -1.7002   -0.2141 C.ar    1  UNL1        0.0343
     11 C           2.3925   -2.9452    0.3971 C.ar    1  UNL1       -0.0370
     12 C           1.1766   -3.3505    0.8481 C.ar    1  UNL1       -0.0172
     13 C           0.0975   -2.4811    0.6848 C.ar    1  UNL1        0.1345
     14 C           0.2283   -1.2710    0.0996 C.ar    1  UNL1        0.0285
     15 C           1.4785   -0.8964   -0.3446 C.ar    1  UNL1       -0.0312
     16 C          -0.9151   -0.3280   -0.1290 C.3     1  UNL1        0.1217
     17 C          -1.0318   -0.2397   -1.6134 C.3     1  UNL1       -0.0096
     18 C          -1.7128    0.8970   -2.2420 C.3     1  UNL1        0.0037
     19 S          -1.1689    2.4513   -1.4893 S.3     1  UNL1       -0.0910
     20 C          -0.6251    2.0562    0.1646 C.2     1  UNL1        0.1478
     21 N          -0.2428    3.1120    1.0304 N.pl3   1  UNL1       -0.3380
     22 N          -0.5785    0.8633    0.5691 N.2     1  UNL1       -0.2472
     23 C          -2.1724   -0.8494    0.4460 C.ar    1  UNL1        0.0314
     24 C          -3.3328   -0.0920    0.3747 C.ar    1  UNL1       -0.0312
     25 C          -4.5275   -0.5630    0.8719 C.ar    1  UNL1        0.0331
     26 N          -5.7453    0.2018    0.8182 N.pl3   1  UNL1       -0.3254
     27 C          -5.7111    1.5266    0.2666 C.3     1  UNL1        0.0357
     28 C          -6.9320    2.3514    0.4631 C.3     1  UNL1        0.0634
     29 O          -7.8065    1.8816    1.4168 O.3     1  UNL1       -0.3767
     30 C          -8.1528    0.5473    1.1921 C.3     1  UNL1        0.0634
     31 C          -6.9672   -0.3707    1.3131 C.3     1  UNL1        0.0357
     32 C          -4.5976   -1.8091    1.4571 C.ar    1  UNL1       -0.0017
     33 C          -3.4359   -2.5491    1.5222 C.ar    1  UNL1        0.1675
     34 F          -3.4857   -3.7677    2.0915 F       1  UNL1       -0.2016
     35 C          -2.2303   -2.0804    1.0247 C.ar    1  UNL1        0.1693
     36 O          -1.1265   -2.8959    1.1492 O.3     1  UNL1       -0.4524
     37 C           6.8578    0.4599    0.7960 C.ar    1  UNL1        0.0619
     38 N           8.1117    0.8679    0.5134 N.ar    1  UNL1       -0.2178
     39 H          10.3723    2.7964    0.0716 H       1  UNL1        0.0660
     40 H          11.7682    1.7382   -0.2166 H       1  UNL1        0.0660
     41 H          10.5521    1.3014    1.0152 H       1  UNL1        0.0660
     42 H           8.3164   -0.2743   -2.5681 H       1  UNL1        0.0884
     43 H           4.2549   -1.5452   -1.6049 H       1  UNL1        0.1552
     44 H           3.2452   -3.6076    0.5152 H       1  UNL1        0.0637
     45 H           1.0687   -4.3141    1.3138 H       1  UNL1        0.0655
     46 H           1.5935    0.0841   -0.8189 H       1  UNL1        0.0641
     47 H          -0.0379   -0.3662   -2.1153 H       1  UNL1        0.0303
     48 H          -1.6094   -1.1734   -1.9176 H       1  UNL1        0.0303
     49 H          -2.8223    0.8423   -2.3170 H       1  UNL1        0.0381
     50 H          -1.4044    0.8813   -3.3430 H       1  UNL1        0.0381
     51 H          -0.9491    3.6826    1.5328 H       1  UNL1        0.1442
     52 H           0.7703    3.2940    1.1424 H       1  UNL1        0.1442
     53 H          -3.3030    0.9090   -0.0714 H       1  UNL1        0.0641
     54 H          -5.5041    1.4138   -0.8276 H       1  UNL1        0.0486
     55 H          -4.7905    2.0411    0.6696 H       1  UNL1        0.0486
     56 H          -7.4232    2.5351   -0.5183 H       1  UNL1        0.0575
     57 H          -6.6046    3.3697    0.8158 H       1  UNL1        0.0575
     58 H          -8.7441    0.4118    0.2762 H       1  UNL1        0.0575
     59 H          -8.8397    0.2803    2.0469 H       1  UNL1        0.0575
     60 H          -7.1622   -1.3094    0.7261 H       1  UNL1        0.0486
     61 H          -6.8313   -0.7308    2.3654 H       1  UNL1        0.0486
     62 H          -5.5357   -2.2150    1.8620 H       1  UNL1        0.0666
     63 H           6.4253    0.6676    1.7698 H       1  UNL1        0.0854
@<TRIPOS>BOND
     1     1     2    1
     2     2     3    1
     3     3     4   ar
     4     4     5   ar
     5     5     6   ar
     6     6     7    1
     7     7     8    2
     8     7     9   am
     9     9    10    1
    10    10    11   ar
    11    11    12   ar
    12    12    13   ar
    13    13    14   ar
    14    14    15   ar
    15    14    16    1
    16    16    17    1
    17    17    18    1
    18    18    19    1
    19    19    20    1
    20    20    21    1
    21    20    22    2
    22    16    23    1
    23    23    24   ar
    24    24    25   ar
    25    25    26    1
    26    26    27    1
    27    27    28    1
    28    28    29    1
    29    29    30    1
    30    30    31    1
    31    25    32   ar
    32    32    33   ar
    33    33    34    1
    34    33    35   ar
    35    35    36    1
    36     6    37   ar
    37    37    38   ar
    38    38     3   ar
    39    15    10   ar
    40    22    16    1
    41    35    23   ar
    42    36    13    1
    43    31    26    1
    44     1    39    1
    45     1    40    1
    46     1    41    1
    47     4    42    1
    48     9    43    1
    49    11    44    1
    50    12    45    1
    51    15    46    1
    52    17    47    1
    53    17    48    1
    54    18    49    1
    55    18    50    1
    56    21    51    1
    57    21    52    1
    58    24    53    1
    59    27    54    1
    60    27    55    1
    61    28    56    1
    62    28    57    1
    63    30    58    1
    64    30    59    1
    65    31    60    1
    66    31    61    1
    67    32    62    1
    68    37    63    1
