
     RDKit          3D

 63 68  0  0  0  0  0  0  0  0999 V2000
   10.6837    1.7317    0.0014 C   0  0  0  0  0  0  0  0  0  0  0  0
    9.9517    1.0341   -0.9863 O   0  0  0  0  0  0  0  0  0  0  0  0
    8.6594    0.6166   -0.6886 C   0  0  0  0  0  0  0  0  0  0  0  0
    7.8849   -0.0666   -1.5991 C   0  0  0  0  0  0  0  0  0  0  0  0
    6.6182   -0.4787   -1.3144 N   0  0  0  0  0  0  0  0  0  0  0  0
    6.0812   -0.2233   -0.1122 C   0  0  0  0  0  0  0  0  0  0  0  0
    4.7287   -0.6403    0.2432 C   0  0  0  0  0  0  0  0  0  0  0  0
    4.2866   -0.3769    1.3947 O   0  0  0  0  0  0  0  0  0  0  0  0
    3.8805   -1.3360   -0.6588 N   0  0  0  0  0  0  0  0  0  0  0  0
    2.5752   -1.7002   -0.2141 C   0  0  0  0  0  0  0  0  0  0  0  0
    2.3925   -2.9452    0.3971 C   0  0  0  0  0  0  0  0  0  0  0  0
    1.1766   -3.3505    0.8481 C   0  0  0  0  0  0  0  0  0  0  0  0
    0.0975   -2.4811    0.6848 C   0  0  0  0  0  0  0  0  0  0  0  0
    0.2283   -1.2710    0.0996 C   0  0  0  0  0  0  0  0  0  0  0  0
    1.4785   -0.8964   -0.3446 C   0  0  0  0  0  0  0  0  0  0  0  0
   -0.9151   -0.3280   -0.1290 C   0  0  0  0  0  0  0  0  0  0  0  0
   -1.0318   -0.2397   -1.6134 C   0  0  0  0  0  0  0  0  0  0  0  0
   -1.7128    0.8970   -2.2420 C   0  0  0  0  0  0  0  0  0  0  0  0
   -1.1689    2.4513   -1.4893 S   0  0  0  0  0  0  0  0  0  0  0  0
   -0.6251    2.0562    0.1646 C   0  0  0  0  0  0  0  0  0  0  0  0
   -0.2428    3.1120    1.0304 N   0  0  0  0  0  0  0  0  0  0  0  0
   -0.5785    0.8633    0.5691 N   0  0  0  0  0  0  0  0  0  0  0  0
   -2.1724   -0.8494    0.4460 C   0  0  0  0  0  0  0  0  0  0  0  0
   -3.3328   -0.0920    0.3747 C   0  0  0  0  0  0  0  0  0  0  0  0
   -4.5275   -0.5630    0.8719 C   0  0  0  0  0  0  0  0  0  0  0  0
   -5.7453    0.2018    0.8182 N   0  0  0  0  0  0  0  0  0  0  0  0
   -5.7111    1.5266    0.2666 C   0  0  0  0  0  0  0  0  0  0  0  0
   -6.9320    2.3514    0.4631 C   0  0  0  0  0  0  0  0  0  0  0  0
   -7.8065    1.8816    1.4168 O   0  0  0  0  0  0  0  0  0  0  0  0
   -8.1528    0.5473    1.1921 C   0  0  0  0  0  0  0  0  0  0  0  0
   -6.9672   -0.3707    1.3131 C   0  0  0  0  0  0  0  0  0  0  0  0
   -4.5976   -1.8091    1.4571 C   0  0  0  0  0  0  0  0  0  0  0  0
   -3.4359   -2.5491    1.5222 C   0  0  0  0  0  0  0  0  0  0  0  0
   -3.4857   -3.7677    2.0915 F   0  0  0  0  0  0  0  0  0  0  0  0
   -2.2303   -2.0804    1.0247 C   0  0  0  0  0  0  0  0  0  0  0  0
   -1.1265   -2.8959    1.1492 O   0  0  0  0  0  0  0  0  0  0  0  0
    6.8578    0.4599    0.7960 C   0  0  0  0  0  0  0  0  0  0  0  0
    8.1117    0.8679    0.5134 N   0  0  0  0  0  0  0  0  0  0  0  0
   10.3723    2.7964    0.0716 H   0  0  0  0  0  0  0  0  0  0  0  0
   11.7682    1.7382   -0.2166 H   0  0  0  0  0  0  0  0  0  0  0  0
   10.5521    1.3014    1.0152 H   0  0  0  0  0  0  0  0  0  0  0  0
    8.3164   -0.2743   -2.5681 H   0  0  0  0  0  0  0  0  0  0  0  0
    4.2549   -1.5452   -1.6049 H   0  0  0  0  0  0  0  0  0  0  0  0
    3.2452   -3.6076    0.5152 H   0  0  0  0  0  0  0  0  0  0  0  0
    1.0687   -4.3141    1.3138 H   0  0  0  0  0  0  0  0  0  0  0  0
    1.5935    0.0841   -0.8189 H   0  0  0  0  0  0  0  0  0  0  0  0
   -0.0379   -0.3662   -2.1153 H   0  0  0  0  0  0  0  0  0  0  0  0
   -1.6094   -1.1734   -1.9176 H   0  0  0  0  0  0  0  0  0  0  0  0
   -2.8223    0.8423   -2.3170 H   0  0  0  0  0  0  0  0  0  0  0  0
   -1.4044    0.8813   -3.3430 H   0  0  0  0  0  0  0  0  0  0  0  0
   -0.9491    3.6826    1.5328 H   0  0  0  0  0  0  0  0  0  0  0  0
    0.7703    3.2940    1.1424 H   0  0  0  0  0  0  0  0  0  0  0  0
   -3.3030    0.9090   -0.0714 H   0  0  0  0  0  0  0  0  0  0  0  0
   -5.5041    1.4138   -0.8276 H   0  0  0  0  0  0  0  0  0  0  0  0
   -4.7905    2.0411    0.6696 H   0  0  0  0  0  0  0  0  0  0  0  0
   -7.4232    2.5351   -0.5183 H   0  0  0  0  0  0  0  0  0  0  0  0
   -6.6046    3.3697    0.8158 H   0  0  0  0  0  0  0  0  0  0  0  0
   -8.7441    0.4118    0.2762 H   0  0  0  0  0  0  0  0  0  0  0  0
   -8.8397    0.2803    2.0469 H   0  0  0  0  0  0  0  0  0  0  0  0
   -7.1622   -1.3094    0.7261 H   0  0  0  0  0  0  0  0  0  0  0  0
   -6.8313   -0.7308    2.3654 H   0  0  0  0  0  0  0  0  0  0  0  0
   -5.5357   -2.2150    1.8620 H   0  0  0  0  0  0  0  0  0  0  0  0
    6.4253    0.6676    1.7698 H   0  0  0  0  0  0  0  0  0  0  0  0
  1  2  1  0
  2  3  1  0
  3  4  2  0
  4  5  1  0
  5  6  2  0
  6  7  1  0
  7  8  2  0
  7  9  1  0
  9 10  1  0
 10 11  2  0
 11 12  1  0
 12 13  2  0
 13 14  1  0
 14 15  2  0
 14 16  1  0
 16 17  1  0
 17 18  1  0
 18 19  1  0
 19 20  1  0
 20 21  1  0
 20 22  2  0
 16 23  1  0
 23 24  2  0
 24 25  1  0
 25 26  1  0
 26 27  1  0
 27 28  1  0
 28 29  1  0
 29 30  1  0
 30 31  1  0
 25 32  2  0
 32 33  1  0
 33 34  1  0
 33 35  2  0
 35 36  1  0
  6 37  1  0
 37 38  2  0
 38  3  1  0
 15 10  1  0
 22 16  1  0
 35 23  1  0
 36 13  1  0
 31 26  1  0
  1 39  1  0
  1 40  1  0
  1 41  1  0
  4 42  1  0
  9 43  1  0
 11 44  1  0
 12 45  1  0
 15 46  1  0
 17 47  1  0
 17 48  1  0
 18 49  1  0
 18 50  1  0
 21 51  1  0
 21 52  1  0
 24 53  1  0
 27 54  1  0
 27 55  1  0
 28 56  1  0
 28 57  1  0
 30 58  1  0
 30 59  1  0
 31 60  1  0
 31 61  1  0
 32 62  1  0
 37 63  1  0
M  END
$$$$
