
     RDKit          3D

 39 41  0  0  0  0  0  0  0  0999 V2000
   -5.9525    0.4604    0.8919 C   0  0  0  0  0  0  0  0  0  0  0  0
   -4.8918    0.1806   -0.1792 C   0  0  0  0  0  0  0  0  0  0  0  0
   -4.7127   -1.3106   -0.2327 C   0  0  0  0  0  0  0  0  0  0  0  0
   -3.4164   -1.6430   -0.9568 C   0  0  0  0  0  0  0  0  0  0  0  0
   -2.3237   -1.0623   -0.1567 C   0  0  0  0  0  0  0  0  0  0  0  0
   -1.1233   -1.4695   -0.2811 N   0  0  0  0  0  0  0  0  0  0  0  0
   -0.1085   -0.9432    0.4494 N   0  0  0  0  0  0  0  0  0  0  0  0
    1.1855   -0.7247   -0.1785 C   0  0  0  0  0  0  0  0  0  0  0  0
    2.2639   -0.3086    0.1045 N   0  0  0  0  0  0  0  0  0  0  0  0
    3.3158   -0.2064   -0.6660 C   0  0  0  0  0  0  0  0  0  0  0  0
    4.6158    0.3364   -0.1831 C   0  0  0  0  0  0  0  0  0  0  0  0
    4.7873    0.7681    1.1213 C   0  0  0  0  0  0  0  0  0  0  0  0
    5.9867    1.2570    1.5254 C   0  0  0  0  0  0  0  0  0  0  0  0
    7.0671    1.3447    0.6747 C   0  0  0  0  0  0  0  0  0  0  0  0
    8.2474    1.8385    1.1162 F   0  0  0  0  0  0  0  0  0  0  0  0
    6.9088    0.9174   -0.6286 C   0  0  0  0  0  0  0  0  0  0  0  0
    5.6836    0.4178   -1.0421 C   0  0  0  0  0  0  0  0  0  0  0  0
    3.1554   -0.6297   -1.9532 C   0  0  0  0  0  0  0  0  0  0  0  0
    1.4023   -1.1703   -1.9451 S   0  0  0  0  0  0  0  0  0  0  0  0
   -2.6290    0.0110    0.8059 C   0  0  0  0  0  0  0  0  0  0  0  0
   -3.6296    0.9363    0.1449 C   0  0  0  0  0  0  0  0  0  0  0  0
   -5.8026    1.4866    1.2878 H   0  0  0  0  0  0  0  0  0  0  0  0
   -5.8124   -0.2409    1.7476 H   0  0  0  0  0  0  0  0  0  0  0  0
   -6.9763    0.3359    0.4819 H   0  0  0  0  0  0  0  0  0  0  0  0
   -5.2927    0.5124   -1.1803 H   0  0  0  0  0  0  0  0  0  0  0  0
   -4.7486   -1.7553    0.7828 H   0  0  0  0  0  0  0  0  0  0  0  0
   -5.5869   -1.7268   -0.7909 H   0  0  0  0  0  0  0  0  0  0  0  0
   -3.5080   -1.1884   -1.9675 H   0  0  0  0  0  0  0  0  0  0  0  0
   -3.3274   -2.7336   -1.1064 H   0  0  0  0  0  0  0  0  0  0  0  0
   -0.1813   -0.6828    1.4244 H   0  0  0  0  0  0  0  0  0  0  0  0
    3.9167    0.6936    1.7936 H   0  0  0  0  0  0  0  0  0  0  0  0
    6.0742    1.5866    2.5677 H   0  0  0  0  0  0  0  0  0  0  0  0
    7.7358    0.9650   -1.3472 H   0  0  0  0  0  0  0  0  0  0  0  0
    5.5732    0.0803   -2.0872 H   0  0  0  0  0  0  0  0  0  0  0  0
    3.7925   -0.6777   -2.7986 H   0  0  0  0  0  0  0  0  0  0  0  0
   -3.0118   -0.3777    1.7738 H   0  0  0  0  0  0  0  0  0  0  0  0
   -1.7207    0.6028    1.0423 H   0  0  0  0  0  0  0  0  0  0  0  0
   -3.1300    1.2879   -0.8045 H   0  0  0  0  0  0  0  0  0  0  0  0
   -3.8260    1.8402    0.7496 H   0  0  0  0  0  0  0  0  0  0  0  0
  1  2  1  0
  2  3  1  0
  3  4  1  0
  4  5  1  0
  5  6  2  3
  6  7  1  0
  7  8  1  0
  8  9  2  0
  9 10  1  0
 10 11  1  0
 11 12  2  0
 12 13  1  0
 13 14  2  0
 14 15  1  0
 14 16  1  0
 16 17  2  0
 10 18  2  0
 18 19  1  0
  5 20  1  0
 20 21  1  0
 21  2  1  0
 19  8  1  0
 17 11  1  0
  1 22  1  0
  1 23  1  0
  1 24  1  0
  2 25  1  0
  3 26  1  0
  3 27  1  0
  4 28  1  0
  4 29  1  0
  7 30  1  0
 12 31  1  0
 13 32  1  0
 16 33  1  0
 17 34  1  0
 18 35  1  0
 20 36  1  0
 20 37  1  0
 21 38  1  0
 21 39  1  0
M  END
$$$$
