@<TRIPOS>MOLECULE
*****
 39 41 0 0 0
SMALL
GASTEIGER

@<TRIPOS>ATOM
      1 C          -5.9525    0.4604    0.8919 C.3     1  UNL1       -0.0624
      2 C          -4.8918    0.1806   -0.1792 C.3     1  UNL1       -0.0432
      3 C          -4.7127   -1.3106   -0.2327 C.3     1  UNL1       -0.0453
      4 C          -3.4164   -1.6430   -0.9568 C.3     1  UNL1       -0.0126
      5 C          -2.3237   -1.0623   -0.1567 C.2     1  UNL1        0.0369
      6 N          -1.1233   -1.4695   -0.2811 N.2     1  UNL1       -0.1898
      7 N          -0.1085   -0.9432    0.4494 N.pl3   1  UNL1       -0.2153
      8 C           1.1855   -0.7247   -0.1785 C.ar    1  UNL1        0.1783
      9 N           2.2639   -0.3086    0.1045 N.ar    1  UNL1       -0.2236
     10 C           3.3158   -0.2064   -0.6660 C.ar    1  UNL1        0.0803
     11 C           4.6158    0.3364   -0.1831 C.ar    1  UNL1        0.0011
     12 C           4.7873    0.7681    1.1213 C.ar    1  UNL1       -0.0498
     13 C           5.9867    1.2570    1.5254 C.ar    1  UNL1       -0.0258
     14 C           7.0671    1.3447    0.6747 C.ar    1  UNL1        0.1234
     15 F           8.2474    1.8385    1.1162 F       1  UNL1       -0.2055
     16 C           6.9088    0.9174   -0.6286 C.ar    1  UNL1       -0.0258
     17 C           5.6836    0.4178   -1.0421 C.ar    1  UNL1       -0.0498
     18 C           3.1554   -0.6297   -1.9532 C.ar    1  UNL1        0.0049
     19 S           1.4023   -1.1703   -1.9451 S.2     1  UNL1       -0.0586
     20 C          -2.6290    0.0110    0.8059 C.3     1  UNL1       -0.0126
     21 C          -3.6296    0.9363    0.1449 C.3     1  UNL1       -0.0453
     22 H          -5.8026    1.4866    1.2878 H       1  UNL1        0.0232
     23 H          -5.8124   -0.2409    1.7476 H       1  UNL1        0.0232
     24 H          -6.9763    0.3359    0.4819 H       1  UNL1        0.0232
     25 H          -5.2927    0.5124   -1.1803 H       1  UNL1        0.0298
     26 H          -4.7486   -1.7553    0.7828 H       1  UNL1        0.0271
     27 H          -5.5869   -1.7268   -0.7909 H       1  UNL1        0.0271
     28 H          -3.5080   -1.1884   -1.9675 H       1  UNL1        0.0326
     29 H          -3.3274   -2.7336   -1.1064 H       1  UNL1        0.0326
     30 H          -0.1813   -0.6828    1.4244 H       1  UNL1        0.1765
     31 H           3.9167    0.6936    1.7936 H       1  UNL1        0.0625
     32 H           6.0742    1.5866    2.5677 H       1  UNL1        0.0646
     33 H           7.7358    0.9650   -1.3472 H       1  UNL1        0.0646
     34 H           5.5732    0.0803   -2.0872 H       1  UNL1        0.0625
     35 H           3.7925   -0.6777   -2.7986 H       1  UNL1        0.0716
     36 H          -3.0118   -0.3777    1.7738 H       1  UNL1        0.0326
     37 H          -1.7207    0.6028    1.0423 H       1  UNL1        0.0326
     38 H          -3.1300    1.2879   -0.8045 H       1  UNL1        0.0271
     39 H          -3.8260    1.8402    0.7496 H       1  UNL1        0.0271
@<TRIPOS>BOND
     1     1     2    1
     2     2     3    1
     3     3     4    1
     4     4     5    1
     5     5     6    2
     6     6     7    1
     7     7     8    1
     8     8     9   ar
     9     9    10   ar
    10    10    11    1
    11    11    12   ar
    12    12    13   ar
    13    13    14   ar
    14    14    15    1
    15    14    16   ar
    16    16    17   ar
    17    10    18   ar
    18    18    19   ar
    19     5    20    1
    20    20    21    1
    21    21     2    1
    22    19     8   ar
    23    17    11   ar
    24     1    22    1
    25     1    23    1
    26     1    24    1
    27     2    25    1
    28     3    26    1
    29     3    27    1
    30     4    28    1
    31     4    29    1
    32     7    30    1
    33    12    31    1
    34    13    32    1
    35    16    33    1
    36    17    34    1
    37    18    35    1
    38    20    36    1
    39    20    37    1
    40    21    38    1
    41    21    39    1
