@<TRIPOS>MOLECULE
*****
 26 27 0 0 0
SMALL
GASTEIGER

@<TRIPOS>ATOM
      1 C          -0.9572   -1.2746   -1.0519 C.3     1  UNL1       -0.0379
      2 C          -0.8077   -0.6891    0.3285 C.3     1  UNL1        0.1130
      3 C          -1.9355   -0.9753    1.2429 C.3     1  UNL1       -0.0379
      4 C          -0.3966    0.7525    0.2678 C.3     1  UNL1        0.1488
      5 C          -1.3626    1.5933   -0.4680 C.2     1  UNL1        0.3277
      6 O          -2.5617    1.5902   -0.0846 O.2     1  UNL1       -0.2488
      7 O          -1.0453    2.3865   -1.5512 O.3     1  UNL1       -0.4793
      8 N           0.9020    0.8347   -0.2452 N.am    1  UNL1       -0.2633
      9 C           2.0779    1.3378   -0.8184 C.2     1  UNL1        0.2211
     10 O           2.3468    2.1063   -1.7189 O.2     1  UNL1       -0.2754
     11 C           2.7815    0.5000    0.1792 C.3     1  UNL1        0.0629
     12 C           1.6905   -0.4121   -0.1939 C.3     1  UNL1        0.1535
     13 S           0.7645   -1.3041    1.0045 S.O2    1  UNL1       -0.0042
     14 O           0.8281   -2.7730    0.8699 O.2     1  UNL1       -0.1720
     15 O           0.8959   -0.7760    2.3757 O.2     1  UNL1       -0.1720
     16 H          -0.4762   -2.2756   -1.0876 H       1  UNL1        0.0251
     17 H          -2.0017   -1.3000   -1.3707 H       1  UNL1        0.0251
     18 H          -0.3767   -0.6364   -1.7547 H       1  UNL1        0.0251
     19 H          -2.7945   -1.3712    0.6366 H       1  UNL1        0.0251
     20 H          -1.6233   -1.8227    1.9125 H       1  UNL1        0.0251
     21 H          -2.2308   -0.1470    1.9018 H       1  UNL1        0.0251
     22 H          -0.4785    1.0946    1.3570 H       1  UNL1        0.0639
     23 H          -1.5870    3.2550   -1.6782 H       1  UNL1        0.2951
     24 H           3.8165    0.2164   -0.0880 H       1  UNL1        0.0393
     25 H           2.6855    0.9901    1.1851 H       1  UNL1        0.0393
     26 H           1.8463   -0.9002   -1.1501 H       1  UNL1        0.0750
@<TRIPOS>BOND
     1     1     2    1
     2     2     3    1
     3     2     4    1
     4     4     5    1
     5     5     6    2
     6     5     7    1
     7     4     8    1
     8     8     9   am
     9     9    10    2
    10     9    11    1
    11    11    12    1
    12    12    13    1
    13    13    14    2
    14    13    15    2
    15    13     2    1
    16    12     8    1
    17     1    16    1
    18     1    17    1
    19     1    18    1
    20     3    19    1
    21     3    20    1
    22     3    21    1
    23     4    22    1
    24     7    23    1
    25    11    24    1
    26    11    25    1
    27    12    26    1
