
     RDKit          3D

 48 50  0  0  0  0  0  0  0  0999 V2000
   -0.1208   -4.5156    0.5427 C   0  0  0  0  0  0  0  0  0  0  0  0
   -0.2449   -3.0467    0.2216 C   0  0  0  0  0  0  0  0  0  0  0  0
    0.8736   -2.2483    0.1488 C   0  0  0  0  0  0  0  0  0  0  0  0
    0.8286   -0.9122   -0.1375 C   0  0  0  0  0  0  0  0  0  0  0  0
    1.9392   -0.0399   -0.2261 N   0  0  0  0  0  0  0  0  0  0  0  0
    3.2820   -0.3857   -0.0364 C   0  0  0  0  0  0  0  0  0  0  0  0
    3.5914   -1.5594    0.2391 O   0  0  0  0  0  0  0  0  0  0  0  0
    4.3358    0.6532   -0.1653 C   0  0  0  0  0  0  0  0  0  0  0  0
    5.6387    0.2793    0.0261 C   0  0  0  0  0  0  0  0  0  0  0  0
    6.6866    1.2029   -0.0793 C   0  0  0  0  0  0  0  0  0  0  0  0
    6.3625    2.5233   -0.3870 C   0  0  0  0  0  0  0  0  0  0  0  0
    7.4063    3.5175   -0.5081 C   0  0  0  0  0  0  0  0  0  0  0  0
    8.2678    4.3109   -0.6006 N   0  0  0  0  0  0  0  0  0  0  0  0
    5.0422    2.8572   -0.5715 C   0  0  0  0  0  0  0  0  0  0  0  0
    4.0547    1.9271   -0.4595 N   0  0  0  0  0  0  0  0  0  0  0  0
   -0.4592   -0.3783   -0.3615 C   0  0  0  0  0  0  0  0  0  0  0  0
   -1.6072   -1.1253   -0.3026 C   0  0  0  0  0  0  0  0  0  0  0  0
   -2.9435   -0.5352   -0.5776 C   0  0  2  0  0  0  0  0  0  0  0  0
   -3.6186   -1.1102   -1.7923 C   0  0  0  0  0  0  0  0  0  0  0  0
   -3.8664   -2.4523   -1.7596 F   0  0  0  0  0  0  0  0  0  0  0  0
   -2.8509    0.9807   -0.8380 C   0  0  0  0  0  0  0  0  0  0  0  0
   -2.7826    1.8002    0.3931 C   0  0  1  0  0  0  0  0  0  0  0  0
   -3.8739    2.8718    0.4040 C   0  0  0  0  0  0  0  0  0  0  0  0
   -3.7076    3.7032   -0.6966 F   0  0  0  0  0  0  0  0  0  0  0  0
   -5.1250    2.2926    0.3870 F   0  0  0  0  0  0  0  0  0  0  0  0
   -3.7644    3.6714    1.5218 F   0  0  0  0  0  0  0  0  0  0  0  0
   -2.9477    1.0717    1.5980 O   0  0  0  0  0  0  0  0  0  0  0  0
   -3.8194   -0.0013    1.5947 C   0  0  0  0  0  0  0  0  0  0  0  0
   -4.6651   -0.2073    2.7224 N   0  0  0  0  0  0  0  0  0  0  0  0
   -3.8181   -0.7557    0.5729 N   0  0  0  0  0  0  0  0  0  0  0  0
   -1.4722   -2.4729   -0.0049 C   0  0  0  0  0  0  0  0  0  0  0  0
   -2.5702   -3.2445    0.0968 F   0  0  0  0  0  0  0  0  0  0  0  0
    0.7431   -4.6632    1.2389 H   0  0  0  0  0  0  0  0  0  0  0  0
   -1.0443   -4.8287    1.0263 H   0  0  0  0  0  0  0  0  0  0  0  0
    0.1243   -5.0480   -0.3875 H   0  0  0  0  0  0  0  0  0  0  0  0
    1.8280   -2.7178    0.3298 H   0  0  0  0  0  0  0  0  0  0  0  0
    1.7558    0.9774   -0.4576 H   0  0  0  0  0  0  0  0  0  0  0  0
    5.9231   -0.7373    0.2660 H   0  0  0  0  0  0  0  0  0  0  0  0
    7.7201    0.9253    0.0686 H   0  0  0  0  0  0  0  0  0  0  0  0
    4.8020    3.8755   -0.8079 H   0  0  0  0  0  0  0  0  0  0  0  0
   -0.4968    0.6841   -0.5905 H   0  0  0  0  0  0  0  0  0  0  0  0
   -4.6435   -0.6273   -1.8604 H   0  0  0  0  0  0  0  0  0  0  0  0
   -3.1189   -0.7917   -2.7379 H   0  0  0  0  0  0  0  0  0  0  0  0
   -3.8230    1.2793   -1.3597 H   0  0  0  0  0  0  0  0  0  0  0  0
   -2.0796    1.2442   -1.5610 H   0  0  0  0  0  0  0  0  0  0  0  0
   -1.7996    2.3242    0.4398 H   0  0  0  0  0  0  0  0  0  0  0  0
   -4.3821    0.1289    3.6503 H   0  0  0  0  0  0  0  0  0  0  0  0
   -5.5602   -0.6970    2.5890 H   0  0  0  0  0  0  0  0  0  0  0  0
  1  2  1  0
  2  3  2  0
  3  4  1  0
  4  5  1  0
  5  6  1  0
  6  7  2  0
  6  8  1  0
  8  9  2  0
  9 10  1  0
 10 11  2  0
 11 12  1  0
 12 13  3  0
 11 14  1  0
 14 15  2  0
  4 16  2  0
 16 17  1  0
 17 18  1  0
 18 19  1  6
 19 20  1  0
 18 21  1  0
 21 22  1  0
 22 23  1  0
 23 24  1  0
 23 25  1  0
 23 26  1  0
 22 27  1  0
 27 28  1  0
 28 29  1  0
 28 30  2  0
 17 31  2  0
 31 32  1  0
 31  2  1  0
 15  8  1  0
 30 18  1  0
  1 33  1  0
  1 34  1  0
  1 35  1  0
  3 36  1  0
  5 37  1  0
  9 38  1  0
 10 39  1  0
 14 40  1  0
 16 41  1  0
 19 42  1  0
 19 43  1  0
 21 44  1  0
 21 45  1  0
 22 46  1  1
 29 47  1  0
 29 48  1  0
M  END
$$$$
