@<TRIPOS>MOLECULE
*****
 48 50 0 0 0
SMALL
GASTEIGER

@<TRIPOS>ATOM
      1 C          -0.1208   -4.5156    0.5427 C.3     1  UNL1       -0.0369
      2 C          -0.2449   -3.0467    0.2216 C.ar    1  UNL1       -0.0132
      3 C           0.8736   -2.2483    0.1488 C.ar    1  UNL1       -0.0348
      4 C           0.8286   -0.9122   -0.1375 C.ar    1  UNL1        0.0345
      5 N           1.9392   -0.0399   -0.2261 N.am    1  UNL1       -0.2802
      6 C           3.2820   -0.3857   -0.0364 C.2     1  UNL1        0.2666
      7 O           3.5914   -1.5594    0.2391 O.2     1  UNL1       -0.2682
      8 C           4.3358    0.6532   -0.1653 C.ar    1  UNL1        0.1257
      9 C           5.6387    0.2793    0.0261 C.ar    1  UNL1       -0.0300
     10 C           6.6866    1.2029   -0.0793 C.ar    1  UNL1       -0.0407
     11 C           6.3625    2.5233   -0.3870 C.ar    1  UNL1        0.0699
     12 C           7.4063    3.5175   -0.5081 C.1     1  UNL1        0.1007
     13 N           8.2678    4.3109   -0.6006 N.1     1  UNL1       -0.1908
     14 C           5.0422    2.8572   -0.5715 C.ar    1  UNL1        0.0458
     15 N           4.0547    1.9271   -0.4595 N.ar    1  UNL1       -0.2491
     16 C          -0.4592   -0.3783   -0.3615 C.ar    1  UNL1       -0.0321
     17 C          -1.6072   -1.1253   -0.3026 C.ar    1  UNL1        0.0198
     18 C          -2.9435   -0.5352   -0.5776 C.3     1  UNL1        0.1258
     19 C          -3.6186   -1.1102   -1.7923 C.3     1  UNL1        0.1196
     20 F          -3.8664   -2.4523   -1.7596 F       1  UNL1       -0.2462
     21 C          -2.8509    0.9807   -0.8380 C.3     1  UNL1        0.0251
     22 C          -2.7826    1.8002    0.3931 C.3     1  UNL1        0.1998
     23 C          -3.8739    2.8718    0.4040 C.3     1  UNL1        0.4266
     24 F          -3.7076    3.7032   -0.6966 F       1  UNL1       -0.1669
     25 F          -5.1250    2.2926    0.3870 F       1  UNL1       -0.1669
     26 F          -3.7644    3.6714    1.5218 F       1  UNL1       -0.1669
     27 O          -2.9477    1.0717    1.5980 O.2     1  UNL1       -0.4534
     28 C          -3.8194   -0.0013    1.5947 C.2     1  UNL1        0.2766
     29 N          -4.6651   -0.2073    2.7224 N.pl3   1  UNL1       -0.3134
     30 N          -3.8181   -0.7557    0.5729 N.2     1  UNL1       -0.2228
     31 C          -1.4722   -2.4729   -0.0049 C.ar    1  UNL1        0.1319
     32 F          -2.5702   -3.2445    0.0968 F       1  UNL1       -0.2048
     33 H           0.7431   -4.6632    1.2389 H       1  UNL1        0.0278
     34 H          -1.0443   -4.8287    1.0263 H       1  UNL1        0.0278
     35 H           0.1243   -5.0480   -0.3875 H       1  UNL1        0.0278
     36 H           1.8280   -2.7178    0.3298 H       1  UNL1        0.0640
     37 H           1.7558    0.9774   -0.4576 H       1  UNL1        0.1552
     38 H           5.9231   -0.7373    0.2660 H       1  UNL1        0.0641
     39 H           7.7201    0.9253    0.0686 H       1  UNL1        0.0631
     40 H           4.8020    3.8755   -0.8079 H       1  UNL1        0.0843
     41 H          -0.4968    0.6841   -0.5905 H       1  UNL1        0.0640
     42 H          -4.6435   -0.6273   -1.8604 H       1  UNL1        0.0643
     43 H          -3.1189   -0.7917   -2.7379 H       1  UNL1        0.0643
     44 H          -3.8230    1.2793   -1.3597 H       1  UNL1        0.0331
     45 H          -2.0796    1.2442   -1.5610 H       1  UNL1        0.0331
     46 H          -1.7996    2.3242    0.4398 H       1  UNL1        0.0826
     47 H          -4.3821    0.1289    3.6503 H       1  UNL1        0.1466
     48 H          -5.5602   -0.6970    2.5890 H       1  UNL1        0.1466
@<TRIPOS>BOND
     1     1     2    1
     2     2     3   ar
     3     3     4   ar
     4     4     5    1
     5     5     6   am
     6     6     7    2
     7     6     8    1
     8     8     9   ar
     9     9    10   ar
    10    10    11   ar
    11    11    12    1
    12    12    13    3
    13    11    14   ar
    14    14    15   ar
    15     4    16   ar
    16    16    17   ar
    17    17    18    1
    18    18    19    1
    19    19    20    1
    20    18    21    1
    21    21    22    1
    22    22    23    1
    23    23    24    1
    24    23    25    1
    25    23    26    1
    26    22    27    1
    27    27    28    1
    28    28    29    1
    29    28    30    2
    30    17    31   ar
    31    31    32    1
    32    31     2   ar
    33    15     8   ar
    34    30    18    1
    35     1    33    1
    36     1    34    1
    37     1    35    1
    38     3    36    1
    39     5    37    1
    40     9    38    1
    41    10    39    1
    42    14    40    1
    43    16    41    1
    44    19    42    1
    45    19    43    1
    46    21    44    1
    47    21    45    1
    48    22    46    1
    49    29    47    1
    50    29    48    1
