@<TRIPOS>MOLECULE
*****
 60 63 0 0 0
SMALL
GASTEIGER

@<TRIPOS>ATOM
      1 C           9.7300    0.8347    0.6950 C.3     1  UNL1       -0.0063
      2 C           8.2499    0.6062    0.8785 C.ar    1  UNL1        0.1033
      3 C           7.2590    0.6432   -0.0307 C.ar    1  UNL1       -0.0131
      4 C           6.0528    0.3747    0.6101 C.ar    1  UNL1        0.0238
      5 C           4.7338    0.2944    0.1443 C.ar    1  UNL1       -0.0089
      6 C           3.7952   -0.0026    1.1453 C.ar    1  UNL1        0.1428
      7 N           2.4568   -0.0720    0.7491 N.pl3   1  UNL1       -0.0721
      8 C           1.8256    0.8274    0.1470 C.cat   1  UNL1        0.4013
      9 N           2.4229    2.0626   -0.2063 N.pl3   1  UNL1       -0.1773
     10 C           3.3418    2.6599    0.6176 C.1     1  UNL1        0.2552
     11 N           4.1338    3.1936    1.3526 N.1     1  UNL1       -0.1538
     12 N           0.4576    0.5972   -0.2078 N.pl3   1  UNL1       -0.2634
     13 C          -0.0821   -0.6960   -0.5667 C.3     1  UNL1        0.1516
     14 C           0.2833   -1.7542    0.5243 C.3     1  UNL1       -0.0106
     15 C          -0.7832   -2.6518    0.4242 C.3     1  UNL1       -0.0480
     16 C          -1.8375   -3.5675    0.3263 C.3     1  UNL1       -0.0370
     17 C          -2.7887   -2.8227   -0.6972 C.3     1  UNL1        0.0153
     18 N          -2.6525   -1.3936   -0.5406 N.am    1  UNL1       -0.2898
     19 C          -3.8279   -0.7153   -0.0689 C.3     1  UNL1        0.0913
     20 C          -4.6181   -0.2486   -1.2250 C.2     1  UNL1        0.2330
     21 O          -4.2134   -0.4628   -2.3785 O.2     1  UNL1       -0.2739
     22 N          -5.8507    0.4479   -0.9730 N.am    1  UNL1       -0.3002
     23 C          -6.4645    0.7563    0.3082 C.3     1  UNL1        0.0148
     24 C          -6.8583    2.2039    0.1314 C.3     1  UNL1       -0.0357
     25 C          -7.2377    2.2656   -1.3229 C.3     1  UNL1       -0.0357
     26 C          -6.7282    0.9963   -1.9839 C.3     1  UNL1        0.0148
     27 C          -1.5331   -0.5258   -0.7378 C.2     1  UNL1        0.2530
     28 O          -1.8382    0.6141   -1.1354 O.2     1  UNL1       -0.2718
     29 C           4.1030   -0.1965    2.4396 C.ar    1  UNL1       -0.0161
     30 C           5.4009   -0.1139    2.8733 C.ar    1  UNL1       -0.0154
     31 C           6.3727    0.1833    1.9011 C.ar    1  UNL1        0.1354
     32 O           7.6867    0.3206    2.0659 O.2     1  UNL1       -0.4600
     33 H           9.9993    1.6880    1.3782 H       1  UNL1        0.0308
     34 H           9.8767    1.2130   -0.3328 H       1  UNL1        0.0308
     35 H          10.2924   -0.0758    0.9342 H       1  UNL1        0.0308
     36 H           7.3315    0.8433   -1.0985 H       1  UNL1        0.0658
     37 H           4.4837    0.4473   -0.8854 H       1  UNL1        0.0660
     38 H           2.1248    2.5246   -1.1261 H       1  UNL1        0.2780
     39 H          -0.1639    1.4642   -0.2160 H       1  UNL1        0.2587
     40 H           0.3305   -1.0768   -1.5155 H       1  UNL1        0.0790
     41 H           0.4545   -1.1841    1.4582 H       1  UNL1        0.0303
     42 H           1.3116   -2.1521    0.2701 H       1  UNL1        0.0303
     43 H          -1.5006   -1.8323    0.7846 H       1  UNL1        0.0267
     44 H          -0.5785   -2.7791   -0.6976 H       1  UNL1        0.0267
     45 H          -2.4930   -3.7737    1.1940 H       1  UNL1        0.0280
     46 H          -1.6319   -4.5940   -0.0981 H       1  UNL1        0.0280
     47 H          -2.4358   -3.1505   -1.6626 H       1  UNL1        0.0465
     48 H          -3.8185   -3.1202   -0.5327 H       1  UNL1        0.0465
     49 H          -4.4084   -1.4799    0.5367 H       1  UNL1        0.0560
     50 H          -3.6258    0.0915    0.6637 H       1  UNL1        0.0560
     51 H          -7.3683    0.0822    0.3922 H       1  UNL1        0.0464
     52 H          -5.7839    0.5726    1.1608 H       1  UNL1        0.0464
     53 H          -5.9165    2.7925    0.3171 H       1  UNL1        0.0281
     54 H          -7.6698    2.5232    0.8270 H       1  UNL1        0.0281
     55 H          -8.3321    2.2535   -1.4019 H       1  UNL1        0.0281
     56 H          -6.8041    3.1681   -1.8328 H       1  UNL1        0.0281
     57 H          -6.1717    1.2750   -2.9109 H       1  UNL1        0.0464
     58 H          -7.5365    0.3140   -2.3019 H       1  UNL1        0.0464
     59 H           3.3644   -0.4294    3.2198 H       1  UNL1        0.0654
     60 H           5.6783   -0.2637    3.8902 H       1  UNL1        0.0655
@<TRIPOS>BOND
     1     1     2    1
     2     2     3   ar
     3     3     4   ar
     4     4     5   ar
     5     5     6   ar
     6     6     7    1
     7     7     8    2
     8     8     9    1
     9     9    10    1
    10    10    11    3
    11     8    12    1
    12    12    13    1
    13    13    14    1
    14    14    15    1
    15    15    16    1
    16    16    17    1
    17    17    18    1
    18    18    19    1
    19    19    20    1
    20    20    21    2
    21    20    22   am
    22    22    23    1
    23    23    24    1
    24    24    25    1
    25    25    26    1
    26    18    27   am
    27    27    28    2
    28     6    29   ar
    29    29    30   ar
    30    30    31   ar
    31    31    32   ar
    32    32     2   ar
    33    31     4   ar
    34    27    13    1
    35    26    22    1
    36     1    33    1
    37     1    34    1
    38     1    35    1
    39     3    36    1
    40     5    37    1
    41     9    38    1
    42    12    39    1
    43    13    40    1
    44    14    41    1
    45    14    42    1
    46    15    43    1
    47    15    44    1
    48    16    45    1
    49    16    46    1
    50    17    47    1
    51    17    48    1
    52    19    49    1
    53    19    50    1
    54    23    51    1
    55    23    52    1
    56    24    53    1
    57    24    54    1
    58    25    55    1
    59    25    56    1
    60    26    57    1
    61    26    58    1
    62    29    59    1
    63    30    60    1
