
     RDKit          3D

 60 63  0  0  0  0  0  0  0  0999 V2000
    9.7300    0.8347    0.6950 C   0  0  0  0  0  0  0  0  0  0  0  0
    8.2499    0.6062    0.8785 C   0  0  0  0  0  0  0  0  0  0  0  0
    7.2590    0.6432   -0.0307 C   0  0  0  0  0  0  0  0  0  0  0  0
    6.0528    0.3747    0.6101 C   0  0  0  0  0  0  0  0  0  0  0  0
    4.7338    0.2944    0.1443 C   0  0  0  0  0  0  0  0  0  0  0  0
    3.7952   -0.0026    1.1453 C   0  0  0  0  0  0  0  0  0  0  0  0
    2.4568   -0.0720    0.7491 N   0  0  0  0  0  0  0  0  0  0  0  0
    1.8256    0.8274    0.1470 C   0  0  0  0  0  0  0  0  0  0  0  0
    2.4229    2.0626   -0.2063 N   0  0  0  0  0  0  0  0  0  0  0  0
    3.3418    2.6599    0.6176 C   0  0  0  0  0  0  0  0  0  0  0  0
    4.1338    3.1936    1.3526 N   0  0  0  0  0  0  0  0  0  0  0  0
    0.4576    0.5972   -0.2078 N   0  0  0  0  0  0  0  0  0  0  0  0
   -0.0821   -0.6960   -0.5667 C   0  0  1  0  0  0  0  0  0  0  0  0
    0.2833   -1.7542    0.5243 C   0  0  0  0  0  0  0  0  0  0  0  0
   -0.7832   -2.6518    0.4242 C   0  0  0  0  0  0  0  0  0  0  0  0
   -1.8375   -3.5675    0.3263 C   0  0  0  0  0  0  0  0  0  0  0  0
   -2.7887   -2.8227   -0.6972 C   0  0  0  0  0  0  0  0  0  0  0  0
   -2.6525   -1.3936   -0.5406 N   0  0  0  0  0  0  0  0  0  0  0  0
   -3.8279   -0.7153   -0.0689 C   0  0  0  0  0  0  0  0  0  0  0  0
   -4.6181   -0.2486   -1.2250 C   0  0  0  0  0  0  0  0  0  0  0  0
   -4.2134   -0.4628   -2.3785 O   0  0  0  0  0  0  0  0  0  0  0  0
   -5.8507    0.4479   -0.9730 N   0  0  0  0  0  0  0  0  0  0  0  0
   -6.4645    0.7563    0.3082 C   0  0  0  0  0  0  0  0  0  0  0  0
   -6.8583    2.2039    0.1314 C   0  0  0  0  0  0  0  0  0  0  0  0
   -7.2377    2.2656   -1.3229 C   0  0  0  0  0  0  0  0  0  0  0  0
   -6.7282    0.9963   -1.9839 C   0  0  0  0  0  0  0  0  0  0  0  0
   -1.5331   -0.5258   -0.7378 C   0  0  0  0  0  0  0  0  0  0  0  0
   -1.8382    0.6141   -1.1354 O   0  0  0  0  0  0  0  0  0  0  0  0
    4.1030   -0.1965    2.4396 C   0  0  0  0  0  0  0  0  0  0  0  0
    5.4009   -0.1139    2.8733 C   0  0  0  0  0  0  0  0  0  0  0  0
    6.3727    0.1833    1.9011 C   0  0  0  0  0  0  0  0  0  0  0  0
    7.6867    0.3206    2.0659 O   0  0  0  0  0  0  0  0  0  0  0  0
    9.9993    1.6880    1.3782 H   0  0  0  0  0  0  0  0  0  0  0  0
    9.8767    1.2130   -0.3328 H   0  0  0  0  0  0  0  0  0  0  0  0
   10.2924   -0.0758    0.9342 H   0  0  0  0  0  0  0  0  0  0  0  0
    7.3315    0.8433   -1.0985 H   0  0  0  0  0  0  0  0  0  0  0  0
    4.4837    0.4473   -0.8854 H   0  0  0  0  0  0  0  0  0  0  0  0
    2.1248    2.5246   -1.1261 H   0  0  0  0  0  0  0  0  0  0  0  0
   -0.1639    1.4642   -0.2160 H   0  0  0  0  0  0  0  0  0  0  0  0
    0.3305   -1.0768   -1.5155 H   0  0  0  0  0  0  0  0  0  0  0  0
    0.4545   -1.1841    1.4582 H   0  0  0  0  0  0  0  0  0  0  0  0
    1.3116   -2.1521    0.2701 H   0  0  0  0  0  0  0  0  0  0  0  0
   -1.5006   -1.8323    0.7846 H   0  0  0  0  0  0  0  0  0  0  0  0
   -0.5785   -2.7791   -0.6976 H   0  0  0  0  0  0  0  0  0  0  0  0
   -2.4930   -3.7737    1.1940 H   0  0  0  0  0  0  0  0  0  0  0  0
   -1.6319   -4.5940   -0.0981 H   0  0  0  0  0  0  0  0  0  0  0  0
   -2.4358   -3.1505   -1.6626 H   0  0  0  0  0  0  0  0  0  0  0  0
   -3.8185   -3.1202   -0.5327 H   0  0  0  0  0  0  0  0  0  0  0  0
   -4.4084   -1.4799    0.5367 H   0  0  0  0  0  0  0  0  0  0  0  0
   -3.6258    0.0915    0.6637 H   0  0  0  0  0  0  0  0  0  0  0  0
   -7.3683    0.0822    0.3922 H   0  0  0  0  0  0  0  0  0  0  0  0
   -5.7839    0.5726    1.1608 H   0  0  0  0  0  0  0  0  0  0  0  0
   -5.9165    2.7925    0.3171 H   0  0  0  0  0  0  0  0  0  0  0  0
   -7.6698    2.5232    0.8270 H   0  0  0  0  0  0  0  0  0  0  0  0
   -8.3321    2.2535   -1.4019 H   0  0  0  0  0  0  0  0  0  0  0  0
   -6.8041    3.1681   -1.8328 H   0  0  0  0  0  0  0  0  0  0  0  0
   -6.1717    1.2750   -2.9109 H   0  0  0  0  0  0  0  0  0  0  0  0
   -7.5365    0.3140   -2.3019 H   0  0  0  0  0  0  0  0  0  0  0  0
    3.3644   -0.4294    3.2198 H   0  0  0  0  0  0  0  0  0  0  0  0
    5.6783   -0.2637    3.8902 H   0  0  0  0  0  0  0  0  0  0  0  0
  1  2  1  0
  2  3  2  0
  3  4  1  0
  4  5  2  0
  5  6  1  0
  6  7  1  0
  7  8  2  3
  8  9  1  0
  9 10  1  0
 10 11  3  0
  8 12  1  0
 12 13  1  0
 13 14  1  0
 14 15  1  0
 15 16  1  0
 16 17  1  0
 17 18  1  0
 18 19  1  0
 19 20  1  0
 20 21  2  0
 20 22  1  0
 22 23  1  0
 23 24  1  0
 24 25  1  0
 25 26  1  0
 18 27  1  0
 27 28  2  0
  6 29  2  0
 29 30  1  0
 30 31  2  0
 31 32  1  0
 32  2  1  0
 31  4  1  0
 27 13  1  0
 26 22  1  0
  1 33  1  0
  1 34  1  0
  1 35  1  0
  3 36  1  0
  5 37  1  0
  9 38  1  0
 12 39  1  0
 13 40  1  6
 14 41  1  0
 14 42  1  0
 15 43  1  0
 15 44  1  0
 16 45  1  0
 16 46  1  0
 17 47  1  0
 17 48  1  0
 19 49  1  0
 19 50  1  0
 23 51  1  0
 23 52  1  0
 24 53  1  0
 24 54  1  0
 25 55  1  0
 25 56  1  0
 26 57  1  0
 26 58  1  0
 29 59  1  0
 30 60  1  0
M  END
$$$$
