@<TRIPOS>MOLECULE
*****
 36 39 0 0 0
SMALL
GASTEIGER

@<TRIPOS>ATOM
      1 C          -1.1652    1.2222    3.4287 C.3     1  UNL1        0.0789
      2 O          -0.6886    0.6410    2.2475 O.3     1  UNL1       -0.4932
      3 C          -1.4454    0.3367    1.1297 C.ar    1  UNL1        0.1432
      4 C          -2.7917    0.5726    1.0378 C.ar    1  UNL1        0.0079
      5 C          -3.5440    0.2623   -0.0937 C.ar    1  UNL1        0.0745
      6 N          -4.8637    0.5072   -0.1568 N.ar    1  UNL1       -0.2549
      7 C          -5.5649    0.1975   -1.2669 C.ar    1  UNL1        0.0283
      8 C          -4.9921   -0.3763   -2.3834 C.ar    1  UNL1       -0.0430
      9 C          -3.6363   -0.6283   -2.3194 C.ar    1  UNL1       -0.0511
     10 C          -2.9278   -0.3091   -1.1828 C.ar    1  UNL1        0.0024
     11 C          -1.5567   -0.5489   -1.0877 C.ar    1  UNL1       -0.0277
     12 C          -0.8043   -0.2469    0.0232 C.ar    1  UNL1        0.0765
     13 N           0.5897   -0.4820    0.1267 N.am    1  UNL1       -0.2785
     14 C           1.3990   -1.0368   -0.8716 C.2     1  UNL1        0.2509
     15 O           0.9703   -1.3900   -1.9753 O.2     1  UNL1       -0.2698
     16 C           2.8841   -1.2284   -0.6198 C.ar    1  UNL1        0.0700
     17 C           3.3784   -2.4797   -0.7093 C.ar    1  UNL1       -0.0095
     18 S           5.1949   -2.2523   -0.3362 S.2     1  UNL1       -0.0928
     19 C           5.0317   -0.4577   -0.1060 C.ar    1  UNL1        0.0564
     20 C           5.9913    0.4721    0.2093 C.ar    1  UNL1        0.0451
     21 N           5.6339    1.7697    0.3317 N.ar    1  UNL1       -0.2426
     22 C           4.3312    2.0380    0.1271 C.ar    1  UNL1        0.1166
     23 N           3.3945    1.1349   -0.1800 N.ar    1  UNL1       -0.2341
     24 C           3.7254   -0.2127   -0.3147 C.ar    1  UNL1        0.0933
     25 H          -1.3420    0.4705    4.2451 H       1  UNL1        0.0660
     26 H          -2.1073    1.7871    3.2841 H       1  UNL1        0.0660
     27 H          -0.3812    1.9664    3.7686 H       1  UNL1        0.0660
     28 H          -3.3258    1.0240    1.8785 H       1  UNL1        0.0676
     29 H          -6.6352    0.4045   -1.2976 H       1  UNL1        0.0830
     30 H          -5.5940   -0.6091   -3.2546 H       1  UNL1        0.0633
     31 H          -3.1390   -1.0821   -3.1810 H       1  UNL1        0.0625
     32 H          -1.1347   -0.9952   -1.9666 H       1  UNL1        0.0644
     33 H           1.0907   -0.2236    1.0341 H       1  UNL1        0.1552
     34 H           2.9744   -3.4577   -0.9274 H       1  UNL1        0.0702
     35 H           6.9954    0.1067    0.3442 H       1  UNL1        0.0842
     36 H           4.0549    3.1034    0.2306 H       1  UNL1        0.1047
@<TRIPOS>BOND
     1     1     2    1
     2     2     3    1
     3     3     4   ar
     4     4     5   ar
     5     5     6   ar
     6     6     7   ar
     7     7     8   ar
     8     8     9   ar
     9     9    10   ar
    10    10    11   ar
    11    11    12   ar
    12    12    13    1
    13    13    14   am
    14    14    15    2
    15    14    16    1
    16    16    17   ar
    17    17    18   ar
    18    18    19   ar
    19    19    20   ar
    20    20    21   ar
    21    21    22   ar
    22    22    23   ar
    23    23    24   ar
    24    12     3   ar
    25    24    16   ar
    26    10     5   ar
    27    24    19   ar
    28     1    25    1
    29     1    26    1
    30     1    27    1
    31     4    28    1
    32     7    29    1
    33     8    30    1
    34     9    31    1
    35    11    32    1
    36    13    33    1
    37    17    34    1
    38    20    35    1
    39    22    36    1
