
     RDKit          3D

 36 39  0  0  0  0  0  0  0  0999 V2000
   -1.1652    1.2222    3.4287 C   0  0  0  0  0  0  0  0  0  0  0  0
   -0.6886    0.6410    2.2475 O   0  0  0  0  0  0  0  0  0  0  0  0
   -1.4454    0.3367    1.1297 C   0  0  0  0  0  0  0  0  0  0  0  0
   -2.7917    0.5726    1.0378 C   0  0  0  0  0  0  0  0  0  0  0  0
   -3.5440    0.2623   -0.0937 C   0  0  0  0  0  0  0  0  0  0  0  0
   -4.8637    0.5072   -0.1568 N   0  0  0  0  0  0  0  0  0  0  0  0
   -5.5649    0.1975   -1.2669 C   0  0  0  0  0  0  0  0  0  0  0  0
   -4.9921   -0.3763   -2.3834 C   0  0  0  0  0  0  0  0  0  0  0  0
   -3.6363   -0.6283   -2.3194 C   0  0  0  0  0  0  0  0  0  0  0  0
   -2.9278   -0.3091   -1.1828 C   0  0  0  0  0  0  0  0  0  0  0  0
   -1.5567   -0.5489   -1.0877 C   0  0  0  0  0  0  0  0  0  0  0  0
   -0.8043   -0.2469    0.0232 C   0  0  0  0  0  0  0  0  0  0  0  0
    0.5897   -0.4820    0.1267 N   0  0  0  0  0  0  0  0  0  0  0  0
    1.3990   -1.0368   -0.8716 C   0  0  0  0  0  0  0  0  0  0  0  0
    0.9703   -1.3900   -1.9753 O   0  0  0  0  0  0  0  0  0  0  0  0
    2.8841   -1.2284   -0.6198 C   0  0  0  0  0  0  0  0  0  0  0  0
    3.3784   -2.4797   -0.7093 C   0  0  0  0  0  0  0  0  0  0  0  0
    5.1949   -2.2523   -0.3362 S   0  0  0  0  0  0  0  0  0  0  0  0
    5.0317   -0.4577   -0.1060 C   0  0  0  0  0  0  0  0  0  0  0  0
    5.9913    0.4721    0.2093 C   0  0  0  0  0  0  0  0  0  0  0  0
    5.6339    1.7697    0.3317 N   0  0  0  0  0  0  0  0  0  0  0  0
    4.3312    2.0380    0.1271 C   0  0  0  0  0  0  0  0  0  0  0  0
    3.3945    1.1349   -0.1800 N   0  0  0  0  0  0  0  0  0  0  0  0
    3.7254   -0.2127   -0.3147 C   0  0  0  0  0  0  0  0  0  0  0  0
   -1.3420    0.4705    4.2451 H   0  0  0  0  0  0  0  0  0  0  0  0
   -2.1073    1.7871    3.2841 H   0  0  0  0  0  0  0  0  0  0  0  0
   -0.3812    1.9664    3.7686 H   0  0  0  0  0  0  0  0  0  0  0  0
   -3.3258    1.0240    1.8785 H   0  0  0  0  0  0  0  0  0  0  0  0
   -6.6352    0.4045   -1.2976 H   0  0  0  0  0  0  0  0  0  0  0  0
   -5.5940   -0.6091   -3.2546 H   0  0  0  0  0  0  0  0  0  0  0  0
   -3.1390   -1.0821   -3.1810 H   0  0  0  0  0  0  0  0  0  0  0  0
   -1.1347   -0.9952   -1.9666 H   0  0  0  0  0  0  0  0  0  0  0  0
    1.0907   -0.2236    1.0341 H   0  0  0  0  0  0  0  0  0  0  0  0
    2.9744   -3.4577   -0.9274 H   0  0  0  0  0  0  0  0  0  0  0  0
    6.9954    0.1067    0.3442 H   0  0  0  0  0  0  0  0  0  0  0  0
    4.0549    3.1034    0.2306 H   0  0  0  0  0  0  0  0  0  0  0  0
  1  2  1  0
  2  3  1  0
  3  4  2  0
  4  5  1  0
  5  6  2  0
  6  7  1  0
  7  8  2  0
  8  9  1  0
  9 10  2  0
 10 11  1  0
 11 12  2  0
 12 13  1  0
 13 14  1  0
 14 15  2  0
 14 16  1  0
 16 17  2  0
 17 18  1  0
 18 19  1  0
 19 20  2  0
 20 21  1  0
 21 22  2  0
 22 23  1  0
 23 24  2  0
 12  3  1  0
 24 16  1  0
 10  5  1  0
 24 19  1  0
  1 25  1  0
  1 26  1  0
  1 27  1  0
  4 28  1  0
  7 29  1  0
  8 30  1  0
  9 31  1  0
 11 32  1  0
 13 33  1  0
 17 34  1  0
 20 35  1  0
 22 36  1  0
M  END
$$$$
