
     RDKit          3D

 57 61  0  0  0  0  0  0  0  0999 V2000
    3.4304    2.2428    2.7910 O   0  0  0  0  0  0  0  0  0  0  0  0
    2.6959    1.8933    1.8318 C   0  0  0  0  0  0  0  0  0  0  0  0
    3.0704    0.7122    1.1600 N   0  0  0  0  0  0  0  0  0  0  0  0
    4.2303   -0.0809    1.5280 C   0  0  0  0  0  0  0  0  0  0  0  0
    4.4224   -1.2394    0.6510 C   0  0  0  0  0  0  0  0  0  0  0  0
    3.9791   -2.4808    1.1236 C   0  0  0  0  0  0  0  0  0  0  0  0
    4.0999   -3.6361    0.3611 C   0  0  0  0  0  0  0  0  0  0  0  0
    4.6722   -3.5465   -0.8904 C   0  0  0  0  0  0  0  0  0  0  0  0
    5.1029   -2.3187   -1.3401 C   0  0  0  0  0  0  0  0  0  0  0  0
    4.9881   -1.1695   -0.5931 C   0  0  0  0  0  0  0  0  0  0  0  0
    5.4802    0.0954   -1.1251 C   0  0  0  0  0  0  0  0  0  0  0  0
    6.0286   -0.0711   -2.4073 F   0  0  0  0  0  0  0  0  0  0  0  0
    4.4591    1.0025   -1.2914 F   0  0  0  0  0  0  0  0  0  0  0  0
    6.5255    0.6258   -0.3586 F   0  0  0  0  0  0  0  0  0  0  0  0
    1.5398    2.7137    1.4925 C   0  0  0  0  0  0  0  0  0  0  0  0
    1.3214    3.8538    2.2289 C   0  0  0  0  0  0  0  0  0  0  0  0
    0.2235    4.6574    1.9298 C   0  0  0  0  0  0  0  0  0  0  0  0
   -0.6395    4.3284    0.9154 C   0  0  0  0  0  0  0  0  0  0  0  0
   -0.4194    3.1824    0.1766 C   0  0  0  0  0  0  0  0  0  0  0  0
   -1.2976    2.8651   -0.8732 N   0  0  0  0  0  0  0  0  0  0  0  0
   -1.2528    1.6992   -1.6869 C   0  0  0  0  0  0  0  0  0  0  0  0
   -1.6390    0.4382   -1.0291 C   0  0  0  0  0  0  0  0  0  0  0  0
   -0.9380   -0.5019   -0.3902 N   0  0  0  0  0  0  0  0  0  0  0  0
   -1.7394   -1.4614    0.0365 N   0  0  0  0  0  0  0  0  0  0  0  0
   -3.0055   -1.1721   -0.3164 C   0  0  0  0  0  0  0  0  0  0  0  0
   -2.9341    0.0092   -0.9776 N   0  0  0  0  0  0  0  0  0  0  0  0
   -4.0297    0.7290   -1.5431 C   0  0  0  0  0  0  0  0  0  0  0  0
   -4.9677   -0.1171   -2.3719 C   0  0  0  0  0  0  0  0  0  0  0  0
   -5.8493   -0.8988   -1.5389 O   0  0  0  0  0  0  0  0  0  0  0  0
   -5.4465   -1.8521   -0.5804 C   0  0  0  0  0  0  0  0  0  0  0  0
   -6.4630   -2.7009   -0.2054 C   0  0  0  0  0  0  0  0  0  0  0  0
   -6.2327   -3.6735    0.7095 N   0  0  0  0  0  0  0  0  0  0  0  0
   -5.0071   -3.7900    1.2355 C   0  0  0  0  0  0  0  0  0  0  0  0
   -3.9464   -2.9460    0.8800 C   0  0  0  0  0  0  0  0  0  0  0  0
   -4.1838   -1.9683   -0.0416 C   0  0  0  0  0  0  0  0  0  0  0  0
    0.6764    2.3655    0.4620 C   0  0  0  0  0  0  0  0  0  0  0  0
    2.4866    0.3820    0.3649 H   0  0  0  0  0  0  0  0  0  0  0  0
    5.1451    0.5545    1.5797 H   0  0  0  0  0  0  0  0  0  0  0  0
    4.0472   -0.4040    2.5874 H   0  0  0  0  0  0  0  0  0  0  0  0
    3.5275   -2.5689    2.1039 H   0  0  0  0  0  0  0  0  0  0  0  0
    3.7661   -4.6051    0.7035 H   0  0  0  0  0  0  0  0  0  0  0  0
    4.7938   -4.4173   -1.5342 H   0  0  0  0  0  0  0  0  0  0  0  0
    5.5533   -2.2906   -2.3430 H   0  0  0  0  0  0  0  0  0  0  0  0
    1.9512    4.1786    3.0380 H   0  0  0  0  0  0  0  0  0  0  0  0
    0.0434    5.5554    2.5021 H   0  0  0  0  0  0  0  0  0  0  0  0
   -1.4769    4.9653    0.7074 H   0  0  0  0  0  0  0  0  0  0  0  0
   -2.0758    3.5766   -1.0749 H   0  0  0  0  0  0  0  0  0  0  0  0
   -0.1715    1.5595   -1.9888 H   0  0  0  0  0  0  0  0  0  0  0  0
   -1.7852    1.8665   -2.6471 H   0  0  0  0  0  0  0  0  0  0  0  0
   -3.7298    1.6539   -2.0718 H   0  0  0  0  0  0  0  0  0  0  0  0
   -4.6531    1.0989   -0.6753 H   0  0  0  0  0  0  0  0  0  0  0  0
   -4.3933   -0.7745   -3.0379 H   0  0  0  0  0  0  0  0  0  0  0  0
   -5.6321    0.6019   -2.9268 H   0  0  0  0  0  0  0  0  0  0  0  0
   -7.4562   -2.6300   -0.6117 H   0  0  0  0  0  0  0  0  0  0  0  0
   -4.7983   -4.5517    1.9620 H   0  0  0  0  0  0  0  0  0  0  0  0
   -2.9677   -3.0293    1.2916 H   0  0  0  0  0  0  0  0  0  0  0  0
    0.8710    1.4898   -0.0996 H   0  0  0  0  0  0  0  0  0  0  0  0
  1  2  2  0
  2  3  1  0
  3  4  1  0
  4  5  1  0
  5  6  2  0
  6  7  1  0
  7  8  2  0
  8  9  1  0
  9 10  2  0
 10 11  1  0
 11 12  1  0
 11 13  1  0
 11 14  1  0
  2 15  1  0
 15 16  2  0
 16 17  1  0
 17 18  2  0
 18 19  1  0
 19 20  1  0
 20 21  1  0
 21 22  1  0
 22 23  2  0
 23 24  1  0
 24 25  2  0
 25 26  1  0
 26 27  1  0
 27 28  1  0
 28 29  1  0
 29 30  1  0
 30 31  2  0
 31 32  1  0
 32 33  2  0
 33 34  1  0
 34 35  2  0
 19 36  2  0
 10  5  1  0
 36 15  1  0
 26 22  1  0
 35 30  1  0
 35 25  1  0
  3 37  1  0
  4 38  1  0
  4 39  1  0
  6 40  1  0
  7 41  1  0
  8 42  1  0
  9 43  1  0
 16 44  1  0
 17 45  1  0
 18 46  1  0
 20 47  1  0
 21 48  1  0
 21 49  1  0
 27 50  1  0
 27 51  1  0
 28 52  1  0
 28 53  1  0
 31 54  1  0
 33 55  1  0
 34 56  1  0
 36 57  1  0
M  END
$$$$
