@<TRIPOS>MOLECULE
*****
 57 61 0 0 0
SMALL
GASTEIGER

@<TRIPOS>ATOM
      1 O           3.4304    2.2428    2.7910 O.2     1  UNL1       -0.2702
      2 C           2.6959    1.8933    1.8318 C.2     1  UNL1        0.2444
      3 N           3.0704    0.7122    1.1600 N.am    1  UNL1       -0.3072
      4 C           4.2303   -0.0809    1.5280 C.3     1  UNL1        0.0377
      5 C           4.4224   -1.2394    0.6510 C.ar    1  UNL1       -0.0187
      6 C           3.9791   -2.4808    1.1236 C.ar    1  UNL1       -0.0565
      7 C           4.0999   -3.6361    0.3611 C.ar    1  UNL1       -0.0614
      8 C           4.6722   -3.5465   -0.8904 C.ar    1  UNL1       -0.0612
      9 C           5.1029   -2.3187   -1.3401 C.ar    1  UNL1       -0.0498
     10 C           4.9881   -1.1695   -0.5931 C.ar    1  UNL1        0.0595
     11 C           5.4802    0.0954   -1.1251 C.3     1  UNL1        0.4177
     12 F           6.0286   -0.0711   -2.4073 F       1  UNL1       -0.1659
     13 F           4.4591    1.0025   -1.2914 F       1  UNL1       -0.1659
     14 F           6.5255    0.6258   -0.3586 F       1  UNL1       -0.1659
     15 C           1.5398    2.7137    1.4925 C.ar    1  UNL1        0.0384
     16 C           1.3214    3.8538    2.2289 C.ar    1  UNL1       -0.0495
     17 C           0.2235    4.6574    1.9298 C.ar    1  UNL1       -0.0593
     18 C          -0.6395    4.3284    0.9154 C.ar    1  UNL1       -0.0408
     19 C          -0.4194    3.1824    0.1766 C.ar    1  UNL1        0.0282
     20 N          -1.2976    2.8651   -0.8732 N.pl3   1  UNL1       -0.3367
     21 C          -1.2528    1.6992   -1.6869 C.3     1  UNL1        0.0692
     22 C          -1.6390    0.4382   -1.0291 C.ar    1  UNL1        0.1510
     23 N          -0.9380   -0.5019   -0.3902 N.ar    1  UNL1       -0.1324
     24 N          -1.7394   -1.4614    0.0365 N.ar    1  UNL1       -0.1290
     25 C          -3.0055   -1.1721   -0.3164 C.ar    1  UNL1        0.1680
     26 N          -2.9341    0.0092   -0.9776 N.ar    1  UNL1       -0.3063
     27 C          -4.0297    0.7290   -1.5431 C.3     1  UNL1        0.0605
     28 C          -4.9677   -0.1171   -2.3719 C.3     1  UNL1        0.1076
     29 O          -5.8493   -0.8988   -1.5389 O.3     1  UNL1       -0.4880
     30 C          -5.4465   -1.8521   -0.5804 C.ar    1  UNL1        0.1492
     31 C          -6.4630   -2.7009   -0.2054 C.ar    1  UNL1        0.0699
     32 N          -6.2327   -3.6735    0.7095 N.ar    1  UNL1       -0.2596
     33 C          -5.0071   -3.7900    1.2355 C.ar    1  UNL1        0.0285
     34 C          -3.9464   -2.9460    0.8800 C.ar    1  UNL1       -0.0294
     35 C          -4.1838   -1.9683   -0.0416 C.ar    1  UNL1        0.0638
     36 C           0.6764    2.3655    0.4620 C.ar    1  UNL1       -0.0287
     37 H           2.4866    0.3820    0.3649 H       1  UNL1        0.1493
     38 H           5.1451    0.5545    1.5797 H       1  UNL1        0.0512
     39 H           4.0472   -0.4040    2.5874 H       1  UNL1        0.0512
     40 H           3.5275   -2.5689    2.1039 H       1  UNL1        0.0621
     41 H           3.7661   -4.6051    0.7035 H       1  UNL1        0.0618
     42 H           4.7938   -4.4173   -1.5342 H       1  UNL1        0.0618
     43 H           5.5533   -2.2906   -2.3430 H       1  UNL1        0.0623
     44 H           1.9512    4.1786    3.0380 H       1  UNL1        0.0625
     45 H           0.0434    5.5554    2.5021 H       1  UNL1        0.0618
     46 H          -1.4769    4.9653    0.7074 H       1  UNL1        0.0636
     47 H          -2.0758    3.5766   -1.0749 H       1  UNL1        0.1465
     48 H          -0.1715    1.5595   -1.9888 H       1  UNL1        0.0542
     49 H          -1.7852    1.8665   -2.6471 H       1  UNL1        0.0542
     50 H          -3.7298    1.6539   -2.0718 H       1  UNL1        0.0526
     51 H          -4.6531    1.0989   -0.6753 H       1  UNL1        0.0526
     52 H          -4.3933   -0.7745   -3.0379 H       1  UNL1        0.0714
     53 H          -5.6321    0.6019   -2.9268 H       1  UNL1        0.0714
     54 H          -7.4562   -2.6300   -0.6117 H       1  UNL1        0.0867
     55 H          -4.7983   -4.5517    1.9620 H       1  UNL1        0.0830
     56 H          -2.9677   -3.0293    1.2916 H       1  UNL1        0.0641
     57 H           0.8710    1.4898   -0.0996 H       1  UNL1        0.0643
@<TRIPOS>BOND
     1     1     2    2
     2     2     3   am
     3     3     4    1
     4     4     5    1
     5     5     6   ar
     6     6     7   ar
     7     7     8   ar
     8     8     9   ar
     9     9    10   ar
    10    10    11    1
    11    11    12    1
    12    11    13    1
    13    11    14    1
    14     2    15    1
    15    15    16   ar
    16    16    17   ar
    17    17    18   ar
    18    18    19   ar
    19    19    20    1
    20    20    21    1
    21    21    22    1
    22    22    23   ar
    23    23    24   ar
    24    24    25   ar
    25    25    26   ar
    26    26    27    1
    27    27    28    1
    28    28    29    1
    29    29    30    1
    30    30    31   ar
    31    31    32   ar
    32    32    33   ar
    33    33    34   ar
    34    34    35   ar
    35    19    36   ar
    36    10     5   ar
    37    36    15   ar
    38    26    22   ar
    39    35    30   ar
    40    35    25    1
    41     3    37    1
    42     4    38    1
    43     4    39    1
    44     6    40    1
    45     7    41    1
    46     8    42    1
    47     9    43    1
    48    16    44    1
    49    17    45    1
    50    18    46    1
    51    20    47    1
    52    21    48    1
    53    21    49    1
    54    27    50    1
    55    27    51    1
    56    28    52    1
    57    28    53    1
    58    31    54    1
    59    33    55    1
    60    34    56    1
    61    36    57    1
