
     RDKit          3D

 52 55  0  0  0  0  0  0  0  0999 V2000
    0.0934   -2.2277   -0.3108 N   0  0  0  0  0  0  0  0  0  0  0  0
    0.2373   -0.8840    0.2126 C   0  0  0  0  0  0  0  0  0  0  0  0
   -1.0375   -0.3650    0.7553 C   0  0  0  0  0  0  0  0  0  0  0  0
   -1.0609    0.7812    1.2406 O   0  0  0  0  0  0  0  0  0  0  0  0
   -2.2556   -1.0937    0.7619 N   0  0  0  0  0  0  0  0  0  0  0  0
   -3.4490   -0.5522    1.2934 C   0  0  0  0  0  0  0  0  0  0  0  0
   -4.0136   -1.2520    2.4930 C   0  0  0  0  0  0  0  0  0  0  0  0
   -3.0991   -1.2354    3.5445 O   0  0  0  0  0  0  0  0  0  0  0  0
   -4.5065   -0.3231    0.2470 C   0  0  0  0  0  0  0  0  0  0  0  0
   -4.7903   -1.2775   -0.7162 C   0  0  0  0  0  0  0  0  0  0  0  0
   -5.7533   -1.0653   -1.6667 C   0  0  0  0  0  0  0  0  0  0  0  0
   -6.4753    0.1004   -1.7028 C   0  0  0  0  0  0  0  0  0  0  0  0
   -7.7147    0.4197   -2.8950 Cl  0  0  0  0  0  0  0  0  0  0  0  0
   -6.2201    1.0708   -0.7611 C   0  0  0  0  0  0  0  0  0  0  0  0
   -5.2487    0.8399    0.1862 C   0  0  0  0  0  0  0  0  0  0  0  0
    0.6226    0.0044   -0.9500 C   0  0  0  0  0  0  0  0  0  0  0  0
    2.1392   -0.0656   -1.1613 C   0  0  0  0  0  0  0  0  0  0  0  0
    2.7287    0.5872   -0.0103 N   0  0  0  0  0  0  0  0  0  0  0  0
    3.8227    1.4772   -0.1513 C   0  0  0  0  0  0  0  0  0  0  0  0
    3.7887    2.7748    0.2242 N   0  0  0  0  0  0  0  0  0  0  0  0
    4.8177    3.6005    0.0886 C   0  0  0  0  0  0  0  0  0  0  0  0
    5.9645    3.1617   -0.4432 N   0  0  0  0  0  0  0  0  0  0  0  0
    6.0907    1.8859   -0.8455 C   0  0  0  0  0  0  0  0  0  0  0  0
    7.1100    1.2043   -1.3998 N   0  0  0  0  0  0  0  0  0  0  0  0
    6.7462   -0.0512   -1.6216 C   0  0  0  0  0  0  0  0  0  0  0  0
    5.4293   -0.1851   -1.1896 C   0  0  0  0  0  0  0  0  0  0  0  0
    5.0057    1.0293   -0.6984 C   0  0  0  0  0  0  0  0  0  0  0  0
    2.1695    0.3057    1.2921 C   0  0  0  0  0  0  0  0  0  0  0  0
    1.3069   -0.9339    1.2801 C   0  0  0  0  0  0  0  0  0  0  0  0
   -0.6543   -2.3297   -1.0061 H   0  0  0  0  0  0  0  0  0  0  0  0
    0.0089   -2.9311    0.4718 H   0  0  0  0  0  0  0  0  0  0  0  0
   -2.2187   -2.0594    0.3485 H   0  0  0  0  0  0  0  0  0  0  0  0
   -3.2139    0.4729    1.6624 H   0  0  0  0  0  0  0  0  0  0  0  0
   -4.8979   -0.6700    2.8285 H   0  0  0  0  0  0  0  0  0  0  0  0
   -4.3370   -2.2781    2.3246 H   0  0  0  0  0  0  0  0  0  0  0  0
   -2.7719   -0.2927    3.6015 H   0  0  0  0  0  0  0  0  0  0  0  0
   -4.2115   -2.1895   -0.6719 H   0  0  0  0  0  0  0  0  0  0  0  0
   -5.9548   -1.8306   -2.4097 H   0  0  0  0  0  0  0  0  0  0  0  0
   -6.7660    1.9840   -0.7673 H   0  0  0  0  0  0  0  0  0  0  0  0
   -5.0752    1.6304    0.9142 H   0  0  0  0  0  0  0  0  0  0  0  0
    0.3462    1.0655   -0.7576 H   0  0  0  0  0  0  0  0  0  0  0  0
    0.1723   -0.3607   -1.8989 H   0  0  0  0  0  0  0  0  0  0  0  0
    2.4145   -1.1459   -1.1442 H   0  0  0  0  0  0  0  0  0  0  0  0
    2.3921    0.4333   -2.1097 H   0  0  0  0  0  0  0  0  0  0  0  0
    4.7476    4.6254    0.4005 H   0  0  0  0  0  0  0  0  0  0  0  0
    8.0352    1.6552   -1.6035 H   0  0  0  0  0  0  0  0  0  0  0  0
    7.3134   -0.8598   -2.0503 H   0  0  0  0  0  0  0  0  0  0  0  0
    4.8333   -1.0867   -1.2294 H   0  0  0  0  0  0  0  0  0  0  0  0
    3.0458    0.0650    1.9557 H   0  0  0  0  0  0  0  0  0  0  0  0
    1.6420    1.1611    1.7273 H   0  0  0  0  0  0  0  0  0  0  0  0
    1.9324   -1.8394    1.2173 H   0  0  0  0  0  0  0  0  0  0  0  0
    0.7687   -0.9506    2.2593 H   0  0  0  0  0  0  0  0  0  0  0  0
  1  2  1  0
  2  3  1  0
  3  4  2  0
  3  5  1  0
  5  6  1  0
  6  7  1  0
  7  8  1  0
  6  9  1  0
  9 10  2  0
 10 11  1  0
 11 12  2  0
 12 13  1  0
 12 14  1  0
 14 15  2  0
  2 16  1  0
 16 17  1  0
 17 18  1  0
 18 19  1  0
 19 20  2  0
 20 21  1  0
 21 22  2  0
 22 23  1  0
 23 24  1  0
 24 25  1  0
 25 26  2  0
 26 27  1  0
 18 28  1  0
 28 29  1  0
 29  2  1  0
 15  9  1  0
 27 19  1  0
 27 23  2  0
  1 30  1  0
  1 31  1  0
  5 32  1  0
  6 33  1  0
  7 34  1  0
  7 35  1  0
  8 36  1  0
 10 37  1  0
 11 38  1  0
 14 39  1  0
 15 40  1  0
 16 41  1  0
 16 42  1  0
 17 43  1  0
 17 44  1  0
 21 45  1  0
 24 46  1  0
 25 47  1  0
 26 48  1  0
 28 49  1  0
 28 50  1  0
 29 51  1  0
 29 52  1  0
M  END
$$$$
