@<TRIPOS>MOLECULE
*****
 52 55 0 0 0
SMALL
GASTEIGER

@<TRIPOS>ATOM
      1 N           0.0934   -2.2277   -0.3108 N.3     1  UNL1       -0.3173
      2 C           0.2373   -0.8840    0.2126 C.3     1  UNL1        0.0965
      3 C          -1.0375   -0.3650    0.7553 C.2     1  UNL1        0.2336
      4 O          -1.0609    0.7812    1.2406 O.2     1  UNL1       -0.2738
      5 N          -2.2556   -1.0937    0.7619 N.am    1  UNL1       -0.3048
      6 CA         -3.4490   -0.5522    1.2934 C.3     1  UNL1        0.0714
      7 C          -4.0136   -1.2520    2.4930 C.3     1  UNL1        0.0667
      8 O          -3.0991   -1.2354    3.5445 O.3     1  UNL1       -0.3928
      9 C          -4.5065   -0.3231    0.2470 C.ar    1  UNL1       -0.0250
     10 C          -4.7903   -1.2775   -0.7162 C.ar    1  UNL1       -0.0554
     11 C          -5.7533   -1.0653   -1.6667 C.ar    1  UNL1       -0.0431
     12 C          -6.4753    0.1004   -1.7028 C.ar    1  UNL1        0.0410
     13 CL         -7.7147    0.4197   -2.8950 Cl      1  UNL1       -0.0835
     14 C          -6.2201    1.0708   -0.7611 C.ar    1  UNL1       -0.0431
     15 C          -5.2487    0.8399    0.1862 C.ar    1  UNL1       -0.0554
     16 C           0.6226    0.0044   -0.9500 C.3     1  UNL1       -0.0104
     17 C           2.1392   -0.0656   -1.1613 C.3     1  UNL1        0.0156
     18 N           2.7287    0.5872   -0.0103 N.pl3   1  UNL1       -0.3144
     19 C           3.8227    1.4772   -0.1513 C.ar    1  UNL1        0.1337
     20 N           3.7887    2.7748    0.2242 N.ar    1  UNL1       -0.2200
     21 C           4.8177    3.6005    0.0886 C.ar    1  UNL1        0.1204
     22 N           5.9645    3.1617   -0.4432 N.ar    1  UNL1       -0.2178
     23 C           6.0907    1.8859   -0.8455 C.ar    1  UNL1        0.1432
     24 N           7.1100    1.2043   -1.3998 N.ar    1  UNL1       -0.3457
     25 C           6.7462   -0.0512   -1.6216 C.ar    1  UNL1        0.0042
     26 C           5.4293   -0.1851   -1.1896 C.ar    1  UNL1       -0.0318
     27 C           5.0057    1.0293   -0.6984 C.ar    1  UNL1        0.0585
     28 C           2.1695    0.3057    1.2921 C.3     1  UNL1        0.0156
     29 C           1.3069   -0.9339    1.2801 C.3     1  UNL1       -0.0104
     30 H          -0.6543   -2.3297   -1.0061 H       1  UNL1        0.1192
     31 H           0.0089   -2.9311    0.4718 H       1  UNL1        0.1192
     32 H          -2.2187   -2.0594    0.3485 H       1  UNL1        0.1494
     33 HA         -3.2139    0.4729    1.6624 H       1  UNL1        0.0571
     34 H1         -4.8979   -0.6700    2.8285 H       1  UNL1        0.0579
     35 H2         -4.3370   -2.2781    2.3246 H       1  UNL1        0.0579
     36 H          -2.7719   -0.2927    3.6015 H       1  UNL1        0.2095
     37 H          -4.2115   -2.1895   -0.6719 H       1  UNL1        0.0621
     38 H          -5.9548   -1.8306   -2.4097 H       1  UNL1        0.0632
     39 H          -6.7660    1.9840   -0.7673 H       1  UNL1        0.0632
     40 H          -5.0752    1.6304    0.9142 H       1  UNL1        0.0621
     41 H           0.3462    1.0655   -0.7576 H       1  UNL1        0.0303
     42 H           0.1723   -0.3607   -1.8989 H       1  UNL1        0.0303
     43 H           2.4145   -1.1459   -1.1442 H       1  UNL1        0.0465
     44 H           2.3921    0.4333   -2.1097 H       1  UNL1        0.0465
     45 H           4.7476    4.6254    0.4005 H       1  UNL1        0.1048
     46 H           8.0352    1.6552   -1.6035 H       1  UNL1        0.1668
     47 H           7.3134   -0.8598   -2.0503 H       1  UNL1        0.0807
     48 H           4.8333   -1.0867   -1.2294 H       1  UNL1        0.0640
     49 H           3.0458    0.0650    1.9557 H       1  UNL1        0.0465
     50 H           1.6420    1.1611    1.7273 H       1  UNL1        0.0465
     51 H           1.9324   -1.8394    1.2173 H       1  UNL1        0.0303
     52 H           0.7687   -0.9506    2.2593 H       1  UNL1        0.0303
@<TRIPOS>BOND
     1     1     2    1
     2     2     3    1
     3     3     4    2
     4     3     5   am
     5     5     6    1
     6     6     7    1
     7     7     8    1
     8     6     9    1
     9     9    10   ar
    10    10    11   ar
    11    11    12   ar
    12    12    13    1
    13    12    14   ar
    14    14    15   ar
    15     2    16    1
    16    16    17    1
    17    17    18    1
    18    18    19    1
    19    19    20   ar
    20    20    21   ar
    21    21    22   ar
    22    22    23   ar
    23    23    24   ar
    24    24    25   ar
    25    25    26   ar
    26    26    27   ar
    27    18    28    1
    28    28    29    1
    29    29     2    1
    30    15     9   ar
    31    27    19   ar
    32    27    23   ar
    33     1    30    1
    34     1    31    1
    35     5    32    1
    36     6    33    1
    37     7    34    1
    38     7    35    1
    39     8    36    1
    40    10    37    1
    41    11    38    1
    42    14    39    1
    43    15    40    1
    44    16    41    1
    45    16    42    1
    46    17    43    1
    47    17    44    1
    48    21    45    1
    49    24    46    1
    50    25    47    1
    51    26    48    1
    52    28    49    1
    53    28    50    1
    54    29    51    1
    55    29    52    1
