
     RDKit          3D

 53 56  0  0  0  0  0  0  0  0999 V2000
    4.7019   -1.1530   -2.2067 C   0  0  0  0  0  0  0  0  0  0  0  0
    5.1126   -0.3710   -1.0304 C   0  0  0  0  0  0  0  0  0  0  0  0
    6.3860    0.2086   -0.9690 C   0  0  0  0  0  0  0  0  0  0  0  0
    6.7423    0.9347    0.1442 C   0  0  0  0  0  0  0  0  0  0  0  0
    8.1019    1.5712    0.2440 C   0  0  0  0  0  0  0  0  0  0  0  0
    7.9282    2.9284    0.4406 F   0  0  0  0  0  0  0  0  0  0  0  0
    8.7190    1.0102    1.3482 F   0  0  0  0  0  0  0  0  0  0  0  0
    5.8204    1.0602    1.1591 C   0  0  0  0  0  0  0  0  0  0  0  0
    4.6007    0.4985    1.0876 N   0  0  0  0  0  0  0  0  0  0  0  0
    4.2309   -0.2135    0.0132 C   0  0  0  0  0  0  0  0  0  0  0  0
    2.8972   -0.8168   -0.0442 C   0  0  0  0  0  0  0  0  0  0  0  0
    2.5218   -1.4806   -1.0212 O   0  0  0  0  0  0  0  0  0  0  0  0
    1.9878   -0.6470    1.0470 N   0  0  0  0  0  0  0  0  0  0  0  0
    0.6869   -1.2656    0.9324 C   0  0  0  0  0  0  0  0  0  0  0  0
    0.4695   -2.5469    1.3789 C   0  0  0  0  0  0  0  0  0  0  0  0
   -0.7498   -3.1694    1.2883 C   0  0  0  0  0  0  0  0  0  0  0  0
   -1.7777   -2.4411    0.7165 C   0  0  0  0  0  0  0  0  0  0  0  0
   -3.0147   -3.0077    0.5992 F   0  0  0  0  0  0  0  0  0  0  0  0
   -1.5950   -1.1499    0.2565 C   0  0  0  0  0  0  0  0  0  0  0  0
   -2.7981   -0.4652   -0.3498 C   0  0  1  0  0  0  0  0  0  0  0  0
   -3.2255   -1.3868   -1.5054 C   0  0  0  0  0  0  0  0  0  0  0  0
   -3.7612   -0.4404    0.6832 N   0  0  0  0  0  0  0  0  0  0  0  0
   -4.6696    0.3270    1.0134 C   0  0  0  0  0  0  0  0  0  0  0  0
   -5.4747    0.0311    2.1506 N   0  0  0  0  0  0  0  0  0  0  0  0
   -4.9513    1.5610    0.2579 C   0  0  0  0  0  0  0  0  0  0  0  0
   -5.4378    2.7766    0.9607 C   0  0  0  0  0  0  0  0  0  0  0  0
   -6.3844    1.9128    0.1255 C   0  0  0  0  0  0  0  0  0  0  0  0
   -3.9937    1.7166   -1.2176 S   0  0  0  0  0  6  0  0  0  0  0  0
   -4.7795    1.1490   -2.3593 O   0  0  0  0  0  0  0  0  0  0  0  0
   -3.7802    3.1776   -1.4874 O   0  0  0  0  0  0  0  0  0  0  0  0
   -2.4533    0.8595   -0.9593 C   0  0  2  0  0  0  0  0  0  0  0  0
   -1.8456    0.7164   -2.1750 F   0  0  0  0  0  0  0  0  0  0  0  0
   -0.3707   -0.5857    0.3715 C   0  0  0  0  0  0  0  0  0  0  0  0
    4.5149   -2.2339   -1.9629 H   0  0  0  0  0  0  0  0  0  0  0  0
    5.5796   -1.1943   -2.9085 H   0  0  0  0  0  0  0  0  0  0  0  0
    3.8618   -0.7273   -2.7719 H   0  0  0  0  0  0  0  0  0  0  0  0
    7.0711    0.0750   -1.8017 H   0  0  0  0  0  0  0  0  0  0  0  0
    8.6763    1.3499   -0.6665 H   0  0  0  0  0  0  0  0  0  0  0  0
    6.0496    1.6200    2.0554 H   0  0  0  0  0  0  0  0  0  0  0  0
    2.2413   -0.1000    1.8986 H   0  0  0  0  0  0  0  0  0  0  0  0
    1.2791   -3.1088    1.8246 H   0  0  0  0  0  0  0  0  0  0  0  0
   -0.9418   -4.1776    1.6339 H   0  0  0  0  0  0  0  0  0  0  0  0
   -2.3571   -1.9969   -1.8240 H   0  0  0  0  0  0  0  0  0  0  0  0
   -4.0607   -2.0385   -1.1970 H   0  0  0  0  0  0  0  0  0  0  0  0
   -3.5147   -0.8004   -2.4027 H   0  0  0  0  0  0  0  0  0  0  0  0
   -6.4307    0.4222    2.2934 H   0  0  0  0  0  0  0  0  0  0  0  0
   -5.1377   -0.6119    2.9214 H   0  0  0  0  0  0  0  0  0  0  0  0
   -5.1061    3.7507    0.5311 H   0  0  0  0  0  0  0  0  0  0  0  0
   -5.5716    2.7199    2.0735 H   0  0  0  0  0  0  0  0  0  0  0  0
   -6.7513    2.4133   -0.8074 H   0  0  0  0  0  0  0  0  0  0  0  0
   -7.1835    1.3909    0.6636 H   0  0  0  0  0  0  0  0  0  0  0  0
   -1.8530    1.5266   -0.3055 H   0  0  0  0  0  0  0  0  0  0  0  0
   -0.2093    0.4221    0.0156 H   0  0  0  0  0  0  0  0  0  0  0  0
  1  2  1  0
  2  3  2  0
  3  4  1  0
  4  5  1  0
  5  6  1  0
  5  7  1  0
  4  8  2  0
  8  9  1  0
  9 10  2  0
 10 11  1  0
 11 12  2  0
 11 13  1  0
 13 14  1  0
 14 15  2  0
 15 16  1  0
 16 17  2  0
 17 18  1  0
 17 19  1  0
 19 20  1  0
 20 21  1  6
 20 22  1  0
 22 23  2  0
 23 24  1  0
 23 25  1  0
 25 26  1  0
 26 27  1  0
 25 28  1  0
 28 29  2  0
 28 30  2  0
 28 31  1  0
 31 32  1  0
 19 33  2  0
 10  2  1  0
 33 14  1  0
 31 20  1  0
 27 25  1  0
  1 34  1  0
  1 35  1  0
  1 36  1  0
  3 37  1  0
  5 38  1  0
  8 39  1  0
 13 40  1  0
 15 41  1  0
 16 42  1  0
 21 43  1  0
 21 44  1  0
 21 45  1  0
 24 46  1  0
 24 47  1  0
 26 48  1  0
 26 49  1  0
 27 50  1  0
 27 51  1  0
 31 52  1  1
 33 53  1  0
M  END
$$$$
