@<TRIPOS>MOLECULE
*****
 53 56 0 0 0
SMALL
GASTEIGER

@<TRIPOS>ATOM
      1 C           4.7019   -1.1530   -2.2067 C.3     1  UNL1       -0.0375
      2 C           5.1126   -0.3710   -1.0304 C.ar    1  UNL1       -0.0195
      3 C           6.3860    0.2086   -0.9690 C.ar    1  UNL1       -0.0467
      4 C           6.7423    0.9347    0.1442 C.ar    1  UNL1        0.0358
      5 C           8.1019    1.5712    0.2440 C.3     1  UNL1        0.2658
      6 F           7.9282    2.9284    0.4406 F       1  UNL1       -0.2039
      7 F           8.7190    1.0102    1.3482 F       1  UNL1       -0.2039
      8 C           5.8204    1.0602    1.1591 C.ar    1  UNL1        0.0369
      9 N           4.6007    0.4985    1.0876 N.ar    1  UNL1       -0.2496
     10 C           4.2309   -0.2135    0.0132 C.ar    1  UNL1        0.1286
     11 C           2.8972   -0.8168   -0.0442 C.2     1  UNL1        0.2668
     12 O           2.5218   -1.4806   -1.0212 O.2     1  UNL1       -0.2682
     13 N           1.9878   -0.6470    1.0470 N.am    1  UNL1       -0.2802
     14 C           0.6869   -1.2656    0.9324 C.ar    1  UNL1        0.0343
     15 C           0.4695   -2.5469    1.3789 C.ar    1  UNL1       -0.0377
     16 C          -0.7498   -3.1694    1.2883 C.ar    1  UNL1       -0.0243
     17 C          -1.7777   -2.4411    0.7165 C.ar    1  UNL1        0.1312
     18 F          -3.0147   -3.0077    0.5992 F       1  UNL1       -0.2050
     19 C          -1.5950   -1.1499    0.2565 C.ar    1  UNL1        0.0450
     20 C          -2.7981   -0.4652   -0.3498 C.3     1  UNL1        0.2272
     21 C          -3.2255   -1.3868   -1.5054 C.3     1  UNL1       -0.0082
     22 N          -3.7612   -0.4404    0.6832 N.2     1  UNL1       -0.0696
     23 C          -4.6696    0.3270    1.0134 C.2     1  UNL1        0.3075
     24 N          -5.4747    0.0311    2.1506 N.pl3   1  UNL1       -0.2488
     25 C          -4.9513    1.5610    0.2579 C.3     1  UNL1        0.1919
     26 C          -5.4378    2.7766    0.9607 C.3     1  UNL1       -0.0138
     27 C          -6.3844    1.9128    0.1255 C.3     1  UNL1       -0.0138
     28 S          -3.9937    1.7166   -1.2176 S.O2    1  UNL1        0.0220
     29 O          -4.7795    1.1490   -2.3593 O.2     1  UNL1       -0.1703
     30 O          -3.7802    3.1776   -1.4874 O.2     1  UNL1       -0.1703
     31 C          -2.4533    0.8595   -0.9593 C.3     1  UNL1        0.2674
     32 F          -1.8456    0.7164   -2.1750 F       1  UNL1       -0.2156
     33 C          -0.3707   -0.5857    0.3715 C.ar    1  UNL1       -0.0300
     34 H           4.5149   -2.2339   -1.9629 H       1  UNL1        0.0278
     35 H           5.5796   -1.1943   -2.9085 H       1  UNL1        0.0278
     36 H           3.8618   -0.7273   -2.7719 H       1  UNL1        0.0278
     37 H           7.0711    0.0750   -1.8017 H       1  UNL1        0.0626
     38 H           8.6763    1.3499   -0.6665 H       1  UNL1        0.1072
     39 H           6.0496    1.6200    2.0554 H       1  UNL1        0.0834
     40 H           2.2413   -0.1000    1.8986 H       1  UNL1        0.1552
     41 H           1.2791   -3.1088    1.8246 H       1  UNL1        0.0637
     42 H          -0.9418   -4.1776    1.6339 H       1  UNL1        0.0647
     43 H          -2.3571   -1.9969   -1.8240 H       1  UNL1        0.0280
     44 H          -4.0607   -2.0385   -1.1970 H       1  UNL1        0.0280
     45 H          -3.5147   -0.8004   -2.4027 H       1  UNL1        0.0280
     46 H          -6.4307    0.4222    2.2934 H       1  UNL1        0.2881
     47 H          -5.1377   -0.6119    2.9214 H       1  UNL1        0.2881
     48 H          -5.1061    3.7507    0.5311 H       1  UNL1        0.0293
     49 H          -5.5716    2.7199    2.0735 H       1  UNL1        0.0293
     50 H          -6.7513    2.4133   -0.8074 H       1  UNL1        0.0293
     51 H          -7.1835    1.3909    0.6636 H       1  UNL1        0.0293
     52 H          -1.8530    1.5266   -0.3055 H       1  UNL1        0.0951
     53 H          -0.2093    0.4221    0.0156 H       1  UNL1        0.0641
@<TRIPOS>BOND
     1     1     2    1
     2     2     3   ar
     3     3     4   ar
     4     4     5    1
     5     5     6    1
     6     5     7    1
     7     4     8   ar
     8     8     9   ar
     9     9    10   ar
    10    10    11    1
    11    11    12    2
    12    11    13   am
    13    13    14    1
    14    14    15   ar
    15    15    16   ar
    16    16    17   ar
    17    17    18    1
    18    17    19   ar
    19    19    20    1
    20    20    21    1
    21    20    22    1
    22    22    23    2
    23    23    24    1
    24    23    25    1
    25    25    26    1
    26    26    27    1
    27    25    28    1
    28    28    29    2
    29    28    30    2
    30    28    31    1
    31    31    32    1
    32    19    33   ar
    33    10     2   ar
    34    33    14   ar
    35    31    20    1
    36    27    25    1
    37     1    34    1
    38     1    35    1
    39     1    36    1
    40     3    37    1
    41     5    38    1
    42     8    39    1
    43    13    40    1
    44    15    41    1
    45    16    42    1
    46    21    43    1
    47    21    44    1
    48    21    45    1
    49    24    46    1
    50    24    47    1
    51    26    48    1
    52    26    49    1
    53    27    50    1
    54    27    51    1
    55    31    52    1
    56    33    53    1
