@<TRIPOS>MOLECULE
*****
 53 56 0 0 0
SMALL
GASTEIGER

@<TRIPOS>ATOM
      1 C          10.4958    0.7959   -3.9233 C.1     1  UNL1       -0.1158
      2 C           9.4219    0.4037   -3.4890 C.1     1  UNL1       -0.0647
      3 C           8.1718   -0.0462   -2.9584 C.3     1  UNL1        0.1513
      4 O           7.4702    1.0655   -2.3929 O.3     1  UNL1       -0.4624
      5 C           6.2286    0.8008   -1.8113 C.ar    1  UNL1        0.2344
      6 C           5.4366    1.7570   -1.2349 C.ar    1  UNL1        0.0899
      7 N           4.2292    1.4484   -0.6810 N.ar    1  UNL1       -0.2459
      8 C           3.7713    0.1610   -0.6848 C.ar    1  UNL1        0.1172
      9 C           2.4622   -0.1411   -0.0967 C.2     1  UNL1        0.1507
     10 F           1.7265    0.8767    0.4123 F       1  UNL1       -0.2032
     11 C           1.9378   -1.3407   -0.0220 C.2     1  UNL1       -0.0171
     12 C           0.6488   -1.6794    0.5487 C.ar    1  UNL1       -0.0217
     13 C           0.4525   -2.8609    1.2888 C.ar    1  UNL1       -0.0518
     14 C          -0.7610   -3.2109    1.8237 C.ar    1  UNL1       -0.0255
     15 C          -1.8128   -2.3345    1.6000 C.ar    1  UNL1        0.1289
     16 F          -3.0066   -2.7213    2.1487 F       1  UNL1       -0.2051
     17 C          -1.6587   -1.1772    0.8872 C.ar    1  UNL1        0.0158
     18 C          -2.8323   -0.2887    0.6171 C.3     1  UNL1        0.0946
     19 C          -2.4396    0.8871   -0.2417 C.3     1  UNL1       -0.0351
     20 N          -3.7400   -1.1162   -0.1708 N.2     1  UNL1       -0.2520
     21 C          -4.9412   -0.8227   -0.4600 C.2     1  UNL1        0.1495
     22 N          -5.7522   -1.6628   -1.2228 N.pl3   1  UNL1       -0.3380
     23 S          -5.5551    0.7196    0.2038 S.3     1  UNL1       -0.0611
     24 C          -4.7224    0.8725    1.8263 C.3     1  UNL1        0.1451
     25 S          -5.1477    2.2268    2.8769 S.O2    1  UNL1       -0.0183
     26 C          -4.7982    3.7754    2.0696 C.3     1  UNL1        0.0560
     27 O          -6.6385    2.1230    3.1585 O.2     1  UNL1       -0.1733
     28 O          -4.4444    2.0915    4.1884 O.2     1  UNL1       -0.1733
     29 C          -4.6234   -0.4972    2.5274 C.3     1  UNL1       -0.0096
     30 C          -3.4665    0.1328    1.8986 C.3     1  UNL1        0.0258
     31 C          -0.4199   -0.8329    0.3502 C.ar    1  UNL1       -0.0463
     32 C           4.5713   -0.7837   -1.2626 C.ar    1  UNL1        0.0596
     33 N           5.7553   -0.4788   -1.8062 N.ar    1  UNL1       -0.2178
     34 H          11.4328    1.1571   -4.3081 H       1  UNL1        0.1229
     35 H           8.2842   -0.8285   -2.1737 H       1  UNL1        0.0837
     36 H           7.5473   -0.5157   -3.7705 H       1  UNL1        0.0837
     37 H           5.8332    2.7718   -1.2399 H       1  UNL1        0.0884
     38 H           2.5263   -2.1645   -0.4297 H       1  UNL1        0.0653
     39 H           1.3266   -3.4800    1.4086 H       1  UNL1        0.0624
     40 H          -0.8512   -4.1225    2.3798 H       1  UNL1        0.0646
     41 H          -2.0510    0.6058   -1.2154 H       1  UNL1        0.0256
     42 H          -1.6343    1.4996    0.2644 H       1  UNL1        0.0256
     43 H          -3.2844    1.5767   -0.4082 H       1  UNL1        0.0256
     44 H          -6.2141   -2.4949   -0.7477 H       1  UNL1        0.1442
     45 H          -5.9577   -1.5646   -2.2353 H       1  UNL1        0.1442
     46 H          -4.8660    4.6256    2.7766 H       1  UNL1        0.0464
     47 H          -3.8096    3.8068    1.6067 H       1  UNL1        0.0464
     48 H          -5.5669    3.9152    1.2831 H       1  UNL1        0.0464
     49 H          -5.2375   -1.3079    2.1315 H       1  UNL1        0.0299
     50 H          -4.6985   -0.4547    3.6537 H       1  UNL1        0.0299
     51 H          -2.7094    0.5801    2.6192 H       1  UNL1        0.0358
     52 H          -0.3583    0.0786   -0.2040 H       1  UNL1        0.0628
     53 H           4.2690   -1.8265   -1.3003 H       1  UNL1        0.0853
@<TRIPOS>BOND
     1     1     2    3
     2     2     3    1
     3     3     4    1
     4     4     5    1
     5     5     6   ar
     6     6     7   ar
     7     7     8   ar
     8     8     9    1
     9     9    10    1
    10     9    11    2
    11    11    12    1
    12    12    13   ar
    13    13    14   ar
    14    14    15   ar
    15    15    16    1
    16    15    17   ar
    17    17    18    1
    18    18    19    1
    19    18    20    1
    20    20    21    2
    21    21    22    1
    22    21    23    1
    23    23    24    1
    24    24    25    1
    25    25    26    1
    26    25    27    2
    27    25    28    2
    28    24    29    1
    29    29    30    1
    30    17    31   ar
    31     8    32   ar
    32    32    33   ar
    33    33     5   ar
    34    31    12   ar
    35    30    18    1
    36    30    24    1
    37     1    34    1
    38     3    35    1
    39     3    36    1
    40     6    37    1
    41    11    38    1
    42    13    39    1
    43    14    40    1
    44    19    41    1
    45    19    42    1
    46    19    43    1
    47    22    44    1
    48    22    45    1
    49    26    46    1
    50    26    47    1
    51    26    48    1
    52    29    49    1
    53    29    50    1
    54    30    51    1
    55    31    52    1
    56    32    53    1
