@<TRIPOS>MOLECULE
*****
 58 62 0 0 0
SMALL
GASTEIGER

@<TRIPOS>ATOM
      1 C           5.2115    3.2787    0.2239 C.3     1  UNL1       -0.0063
      2 C           5.9731    2.0035    0.1621 C.ar    1  UNL1        0.1068
      3 N           6.9242    1.6940    1.0732 N.ar    1  UNL1       -0.2409
      4 C           7.4276    0.4836    0.7495 C.ar    1  UNL1        0.0457
      5 C           6.7450    0.0828   -0.3839 C.ar    1  UNL1        0.0246
      6 N           5.8628    1.0068   -0.7387 N.ar    1  UNL1       -0.3302
      7 C           4.9415    0.9851   -1.8682 C.3     1  UNL1        0.0494
      8 C           3.6518    0.3547   -1.4440 C.ar    1  UNL1       -0.0277
      9 C           3.5327   -0.9980   -1.5929 C.ar    1  UNL1       -0.0563
     10 C           2.3445   -1.6196   -1.2074 C.ar    1  UNL1       -0.0523
     11 C           1.2928   -0.9104   -0.6831 C.ar    1  UNL1        0.0006
     12 C           0.0309   -1.5246   -0.2662 C.ar    1  UNL1        0.0769
     13 C          -0.2212   -2.8770   -0.3604 C.ar    1  UNL1       -0.0077
     14 C          -1.4175   -3.4508    0.0368 C.ar    1  UNL1        0.0999
     15 N          -1.9396   -4.6883    0.0676 N.ar    1  UNL1       -0.1712
     16 N          -3.1658   -4.6720    0.5620 N.ar    1  UNL1       -0.2732
     17 C          -4.0406   -5.8422    0.7439 C.3     1  UNL1        0.0302
     18 C          -3.4863   -3.4046    0.8737 C.ar    1  UNL1        0.0380
     19 C          -2.3964   -2.6265    0.5487 C.ar    1  UNL1        0.0812
     20 C          -2.1440   -1.2541    0.6457 C.ar    1  UNL1        0.2265
     21 O          -3.1633   -0.4758    1.1671 O.3     1  UNL1       -0.4725
     22 C          -3.0808    0.9131    1.3333 C.3     1  UNL1        0.1037
     23 C          -3.1856    1.3312    2.7820 C.3     1  UNL1       -0.0274
     24 C          -4.1401    1.6020    0.5348 C.3     1  UNL1        0.0196
     25 C          -4.0680    3.1047    0.7009 C.3     1  UNL1        0.0182
     26 N          -4.4140    3.6570   -0.6132 N.am    1  UNL1       -0.3149
     27 C          -4.2507    2.6613   -1.6041 C.2     1  UNL1        0.2135
     28 O          -4.3329    2.8437   -2.8362 O.2     1  UNL1       -0.2758
     29 C          -3.9675    1.3717   -0.9542 C.3     1  UNL1        0.0315
     30 N          -0.9728   -0.7754    0.2448 N.ar    1  UNL1       -0.2122
     31 C           1.4365    0.4486   -0.5432 C.ar    1  UNL1       -0.0523
     32 C           2.6135    1.0883   -0.9216 C.ar    1  UNL1       -0.0563
     33 H           5.8278    4.0780    0.6622 H       1  UNL1        0.0307
     34 H           4.8430    3.5528   -0.7939 H       1  UNL1        0.0307
     35 H           4.2950    3.0945    0.8505 H       1  UNL1        0.0307
     36 H           8.2080   -0.0746    1.2628 H       1  UNL1        0.0845
     37 H           6.9360   -0.8594   -0.8786 H       1  UNL1        0.0825
     38 H           4.7768    1.9904   -2.2736 H       1  UNL1        0.0542
     39 H           5.3836    0.3766   -2.6860 H       1  UNL1        0.0542
     40 H           4.3633   -1.5798   -2.0101 H       1  UNL1        0.0621
     41 H           2.2774   -2.6849   -1.3354 H       1  UNL1        0.0624
     42 H           0.5463   -3.5429   -0.7645 H       1  UNL1        0.0661
     43 H          -4.7692   -5.6759    1.5622 H       1  UNL1        0.0473
     44 H          -4.6207   -5.9755   -0.1989 H       1  UNL1        0.0473
     45 H          -3.4767   -6.7459    0.9839 H       1  UNL1        0.0473
     46 H          -4.4127   -3.0293    1.2997 H       1  UNL1        0.0834
     47 H          -2.0849    1.2410    0.9752 H       1  UNL1        0.0734
     48 H          -3.6067    0.4987    3.3860 H       1  UNL1        0.0265
     49 H          -2.2051    1.5753    3.2253 H       1  UNL1        0.0265
     50 H          -3.8798    2.1928    2.9141 H       1  UNL1        0.0265
     51 H          -5.1294    1.2851    0.8959 H       1  UNL1        0.0356
     52 H          -3.0709    3.4611    1.0044 H       1  UNL1        0.0466
     53 H          -4.8194    3.4925    1.4201 H       1  UNL1        0.0466
     54 H          -4.7296    4.6495   -0.7406 H       1  UNL1        0.1487
     55 H          -4.7323    0.6420   -1.2701 H       1  UNL1        0.0363
     56 H          -2.9252    1.0081   -1.1930 H       1  UNL1        0.0363
     57 H           0.6525    1.0843   -0.1368 H       1  UNL1        0.0624
     58 H           2.7514    2.1537   -0.8220 H       1  UNL1        0.0621
@<TRIPOS>BOND
     1     1     2    1
     2     2     3   ar
     3     3     4   ar
     4     4     5   ar
     5     5     6   ar
     6     6     7    1
     7     7     8    1
     8     8     9   ar
     9     9    10   ar
    10    10    11   ar
    11    11    12    1
    12    12    13   ar
    13    13    14   ar
    14    14    15   ar
    15    15    16   ar
    16    16    17    1
    17    16    18   ar
    18    18    19   ar
    19    19    20   ar
    20    20    21    1
    21    21    22    1
    22    22    23    1
    23    22    24    1
    24    24    25    1
    25    25    26    1
    26    26    27   am
    27    27    28    2
    28    27    29    1
    29    20    30   ar
    30    11    31   ar
    31    31    32   ar
    32     6     2   ar
    33    32     8   ar
    34    30    12   ar
    35    19    14   ar
    36    29    24    1
    37     1    33    1
    38     1    34    1
    39     1    35    1
    40     4    36    1
    41     5    37    1
    42     7    38    1
    43     7    39    1
    44     9    40    1
    45    10    41    1
    46    13    42    1
    47    17    43    1
    48    17    44    1
    49    17    45    1
    50    18    46    1
    51    22    47    1
    52    23    48    1
    53    23    49    1
    54    23    50    1
    55    24    51    1
    56    25    52    1
    57    25    53    1
    58    26    54    1
    59    29    55    1
    60    29    56    1
    61    31    57    1
    62    32    58    1
