@<TRIPOS>MOLECULE
*****
 56 60 0 0 0
SMALL
GASTEIGER

@<TRIPOS>ATOM
      1 C           0.6153    3.0563    0.4240 C.3     1  UNL1        0.0789
      2 O          -0.0334    1.7991    0.4682 O.3     1  UNL1       -0.4932
      3 C           0.7479    0.6547    0.3378 C.ar    1  UNL1        0.1429
      4 C           2.1122    0.7219    0.1702 C.ar    1  UNL1        0.0029
      5 C           2.9329   -0.3788    0.0362 C.ar    1  UNL1        0.0334
      6 N           4.3308   -0.3071   -0.1339 N.pl3   1  UNL1       -0.3274
      7 C           5.0790   -1.5358   -0.3013 C.3     1  UNL1        0.0250
      8 C           6.4741   -1.3378   -0.7824 C.3     1  UNL1        0.0144
      9 N           7.1625   -0.2115   -0.2502 N.3     1  UNL1       -0.3024
     10 C           8.4818   -0.4747    0.2338 C.3     1  UNL1       -0.0126
     11 C           6.3850    0.6469    0.5858 C.3     1  UNL1        0.0144
     12 C           5.0655    0.9213   -0.1502 C.3     1  UNL1        0.0250
     13 C           2.2809   -1.6081    0.0816 C.ar    1  UNL1       -0.0387
     14 C           0.9169   -1.7207    0.2479 C.ar    1  UNL1       -0.0352
     15 C           0.1424   -0.5801    0.3773 C.ar    1  UNL1        0.0747
     16 N          -1.2625   -0.6299    0.5505 N.pl3   1  UNL1       -0.2965
     17 C          -2.1471   -0.0258   -0.3712 C.ar    1  UNL1        0.1267
     18 C          -3.5329   -0.1143   -0.1349 C.ar    1  UNL1        0.0045
     19 C          -4.4553    0.4348   -0.9671 C.ar    1  UNL1        0.0780
     20 C          -5.8865    0.4514   -0.8081 C.ar    1  UNL1        0.0256
     21 C          -6.7326    1.3715   -1.4572 C.ar    1  UNL1        0.0120
     22 N          -7.9925    1.1378   -1.1579 N.ar    1  UNL1       -0.3588
     23 C          -8.0675    0.0782   -0.3162 C.ar    1  UNL1        0.0655
     24 C          -9.1506   -0.5490    0.2606 C.ar    1  UNL1        0.0514
     25 N          -8.9177   -1.6038    1.0511 N.ar    1  UNL1       -0.2612
     26 C          -7.6740   -2.0508    1.2853 C.ar    1  UNL1        0.0283
     27 C          -6.5712   -1.4285    0.7110 C.ar    1  UNL1       -0.0338
     28 C          -6.7514   -0.3435   -0.1047 C.ar    1  UNL1        0.0117
     29 N          -3.9294    1.0871   -2.0595 N.ar    1  UNL1       -0.2352
     30 C          -2.6146    1.1703   -2.2812 C.ar    1  UNL1        0.1187
     31 N          -1.7016    0.6226   -1.4534 N.ar    1  UNL1       -0.2206
     32 H           1.3442    3.1299    1.2748 H       1  UNL1        0.0660
     33 H          -0.0800    3.8967    0.4192 H       1  UNL1        0.0660
     34 H           1.2356    3.1526   -0.5122 H       1  UNL1        0.0660
     35 H           2.5363    1.7100    0.1456 H       1  UNL1        0.0673
     36 H           4.5385   -2.1050   -1.1145 H       1  UNL1        0.0476
     37 H           5.0013   -2.1874    0.6022 H       1  UNL1        0.0476
     38 H           6.4596   -1.2267   -1.8985 H       1  UNL1        0.0442
     39 H           7.0484   -2.2693   -0.5920 H       1  UNL1        0.0442
     40 H           8.5687   -1.4786    0.7257 H       1  UNL1        0.0391
     41 H           9.1576   -0.5167   -0.6674 H       1  UNL1        0.0391
     42 H           8.8232    0.3373    0.8961 H       1  UNL1        0.0391
     43 H           6.1184    0.1669    1.5542 H       1  UNL1        0.0442
     44 H           6.9548    1.5862    0.7449 H       1  UNL1        0.0442
     45 H           4.5574    1.7956    0.2502 H       1  UNL1        0.0476
     46 H           5.3788    1.0956   -1.2197 H       1  UNL1        0.0476
     47 H           2.8734   -2.5091   -0.0177 H       1  UNL1        0.0637
     48 H           0.4057   -2.6776    0.2837 H       1  UNL1        0.0638
     49 H          -1.6433   -1.1240    1.3770 H       1  UNL1        0.1537
     50 H          -3.8480   -0.6169    0.7627 H       1  UNL1        0.0673
     51 H          -6.4007    2.1619   -2.1109 H       1  UNL1        0.0814
     52 H          -8.8730    1.6444   -1.4765 H       1  UNL1        0.1654
     53 H         -10.1455   -0.2097    0.0868 H       1  UNL1        0.0851
     54 H          -7.5272   -2.9023    1.9261 H       1  UNL1        0.0830
     55 H          -5.5828   -1.7947    0.8772 H       1  UNL1        0.0639
     56 H          -2.2081    1.6869   -3.1462 H       1  UNL1        0.1048
@<TRIPOS>BOND
     1     1     2    1
     2     2     3    1
     3     3     4   ar
     4     4     5   ar
     5     5     6    1
     6     6     7    1
     7     7     8    1
     8     8     9    1
     9     9    10    1
    10     9    11    1
    11    11    12    1
    12     5    13   ar
    13    13    14   ar
    14    14    15   ar
    15    15    16    1
    16    16    17    1
    17    17    18   ar
    18    18    19   ar
    19    19    20    1
    20    20    21   ar
    21    21    22   ar
    22    22    23   ar
    23    23    24   ar
    24    24    25   ar
    25    25    26   ar
    26    26    27   ar
    27    27    28   ar
    28    19    29   ar
    29    29    30   ar
    30    30    31   ar
    31    15     3   ar
    32    31    17   ar
    33    12     6    1
    34    28    20   ar
    35    28    23   ar
    36     1    32    1
    37     1    33    1
    38     1    34    1
    39     4    35    1
    40     7    36    1
    41     7    37    1
    42     8    38    1
    43     8    39    1
    44    10    40    1
    45    10    41    1
    46    10    42    1
    47    11    43    1
    48    11    44    1
    49    12    45    1
    50    12    46    1
    51    13    47    1
    52    14    48    1
    53    16    49    1
    54    18    50    1
    55    21    51    1
    56    22    52    1
    57    24    53    1
    58    26    54    1
    59    27    55    1
    60    30    56    1
