
     RDKit          3D

 56 60  0  0  0  0  0  0  0  0999 V2000
    0.6153    3.0563    0.4240 C   0  0  0  0  0  0  0  0  0  0  0  0
   -0.0334    1.7991    0.4682 O   0  0  0  0  0  0  0  0  0  0  0  0
    0.7479    0.6547    0.3378 C   0  0  0  0  0  0  0  0  0  0  0  0
    2.1122    0.7219    0.1702 C   0  0  0  0  0  0  0  0  0  0  0  0
    2.9329   -0.3788    0.0362 C   0  0  0  0  0  0  0  0  0  0  0  0
    4.3308   -0.3071   -0.1339 N   0  0  0  0  0  0  0  0  0  0  0  0
    5.0790   -1.5358   -0.3013 C   0  0  0  0  0  0  0  0  0  0  0  0
    6.4741   -1.3378   -0.7824 C   0  0  0  0  0  0  0  0  0  0  0  0
    7.1625   -0.2115   -0.2502 N   0  0  0  0  0  0  0  0  0  0  0  0
    8.4818   -0.4747    0.2338 C   0  0  0  0  0  0  0  0  0  0  0  0
    6.3850    0.6469    0.5858 C   0  0  0  0  0  0  0  0  0  0  0  0
    5.0655    0.9213   -0.1502 C   0  0  0  0  0  0  0  0  0  0  0  0
    2.2809   -1.6081    0.0816 C   0  0  0  0  0  0  0  0  0  0  0  0
    0.9169   -1.7207    0.2479 C   0  0  0  0  0  0  0  0  0  0  0  0
    0.1424   -0.5801    0.3773 C   0  0  0  0  0  0  0  0  0  0  0  0
   -1.2625   -0.6299    0.5505 N   0  0  0  0  0  0  0  0  0  0  0  0
   -2.1471   -0.0258   -0.3712 C   0  0  0  0  0  0  0  0  0  0  0  0
   -3.5329   -0.1143   -0.1349 C   0  0  0  0  0  0  0  0  0  0  0  0
   -4.4553    0.4348   -0.9671 C   0  0  0  0  0  0  0  0  0  0  0  0
   -5.8865    0.4514   -0.8081 C   0  0  0  0  0  0  0  0  0  0  0  0
   -6.7326    1.3715   -1.4572 C   0  0  0  0  0  0  0  0  0  0  0  0
   -7.9925    1.1378   -1.1579 N   0  0  0  0  0  0  0  0  0  0  0  0
   -8.0675    0.0782   -0.3162 C   0  0  0  0  0  0  0  0  0  0  0  0
   -9.1506   -0.5490    0.2606 C   0  0  0  0  0  0  0  0  0  0  0  0
   -8.9177   -1.6038    1.0511 N   0  0  0  0  0  0  0  0  0  0  0  0
   -7.6740   -2.0508    1.2853 C   0  0  0  0  0  0  0  0  0  0  0  0
   -6.5712   -1.4285    0.7110 C   0  0  0  0  0  0  0  0  0  0  0  0
   -6.7514   -0.3435   -0.1047 C   0  0  0  0  0  0  0  0  0  0  0  0
   -3.9294    1.0871   -2.0595 N   0  0  0  0  0  0  0  0  0  0  0  0
   -2.6146    1.1703   -2.2812 C   0  0  0  0  0  0  0  0  0  0  0  0
   -1.7016    0.6226   -1.4534 N   0  0  0  0  0  0  0  0  0  0  0  0
    1.3442    3.1299    1.2748 H   0  0  0  0  0  0  0  0  0  0  0  0
   -0.0800    3.8967    0.4192 H   0  0  0  0  0  0  0  0  0  0  0  0
    1.2356    3.1526   -0.5122 H   0  0  0  0  0  0  0  0  0  0  0  0
    2.5363    1.7100    0.1456 H   0  0  0  0  0  0  0  0  0  0  0  0
    4.5385   -2.1050   -1.1145 H   0  0  0  0  0  0  0  0  0  0  0  0
    5.0013   -2.1874    0.6022 H   0  0  0  0  0  0  0  0  0  0  0  0
    6.4596   -1.2267   -1.8985 H   0  0  0  0  0  0  0  0  0  0  0  0
    7.0484   -2.2693   -0.5920 H   0  0  0  0  0  0  0  0  0  0  0  0
    8.5687   -1.4786    0.7257 H   0  0  0  0  0  0  0  0  0  0  0  0
    9.1576   -0.5167   -0.6674 H   0  0  0  0  0  0  0  0  0  0  0  0
    8.8232    0.3373    0.8961 H   0  0  0  0  0  0  0  0  0  0  0  0
    6.1184    0.1669    1.5542 H   0  0  0  0  0  0  0  0  0  0  0  0
    6.9548    1.5862    0.7449 H   0  0  0  0  0  0  0  0  0  0  0  0
    4.5574    1.7956    0.2502 H   0  0  0  0  0  0  0  0  0  0  0  0
    5.3788    1.0956   -1.2197 H   0  0  0  0  0  0  0  0  0  0  0  0
    2.8734   -2.5091   -0.0177 H   0  0  0  0  0  0  0  0  0  0  0  0
    0.4057   -2.6776    0.2837 H   0  0  0  0  0  0  0  0  0  0  0  0
   -1.6433   -1.1240    1.3770 H   0  0  0  0  0  0  0  0  0  0  0  0
   -3.8480   -0.6169    0.7627 H   0  0  0  0  0  0  0  0  0  0  0  0
   -6.4007    2.1619   -2.1109 H   0  0  0  0  0  0  0  0  0  0  0  0
   -8.8730    1.6444   -1.4765 H   0  0  0  0  0  0  0  0  0  0  0  0
  -10.1455   -0.2097    0.0868 H   0  0  0  0  0  0  0  0  0  0  0  0
   -7.5272   -2.9023    1.9261 H   0  0  0  0  0  0  0  0  0  0  0  0
   -5.5828   -1.7947    0.8772 H   0  0  0  0  0  0  0  0  0  0  0  0
   -2.2081    1.6869   -3.1462 H   0  0  0  0  0  0  0  0  0  0  0  0
  1  2  1  0
  2  3  1  0
  3  4  2  0
  4  5  1  0
  5  6  1  0
  6  7  1  0
  7  8  1  0
  8  9  1  0
  9 10  1  0
  9 11  1  0
 11 12  1  0
  5 13  2  0
 13 14  1  0
 14 15  2  0
 15 16  1  0
 16 17  1  0
 17 18  2  0
 18 19  1  0
 19 20  1  0
 20 21  2  0
 21 22  1  0
 22 23  1  0
 23 24  2  0
 24 25  1  0
 25 26  2  0
 26 27  1  0
 27 28  2  0
 19 29  2  0
 29 30  1  0
 30 31  2  0
 15  3  1  0
 31 17  1  0
 12  6  1  0
 28 20  1  0
 28 23  1  0
  1 32  1  0
  1 33  1  0
  1 34  1  0
  4 35  1  0
  7 36  1  0
  7 37  1  0
  8 38  1  0
  8 39  1  0
 10 40  1  0
 10 41  1  0
 10 42  1  0
 11 43  1  0
 11 44  1  0
 12 45  1  0
 12 46  1  0
 13 47  1  0
 14 48  1  0
 16 49  1  0
 18 50  1  0
 21 51  1  0
 22 52  1  0
 24 53  1  0
 26 54  1  0
 27 55  1  0
 30 56  1  0
M  END
$$$$
