@<TRIPOS>MOLECULE
*****
 88 93 0 0 0
SMALL
GASTEIGER

@<TRIPOS>ATOM
      1 C          -7.7254   -2.4693    2.0515 C.3     1  UNL1       -0.0612
      2 C          -7.5213   -3.0728    0.6801 C.3     1  UNL1       -0.0288
      3 C          -8.3477   -2.2851   -0.2706 C.ar    1  UNL1       -0.0261
      4 C          -9.5534   -2.7880   -0.7752 C.ar    1  UNL1       -0.0568
      5 C         -10.2466   -1.9661   -1.6617 C.ar    1  UNL1       -0.0611
      6 C          -9.7664   -0.7248   -2.0199 C.ar    1  UNL1       -0.0568
      7 C          -8.5759   -0.2440   -1.5130 C.ar    1  UNL1       -0.0261
      8 C          -8.0575    1.0801   -1.8921 C.3     1  UNL1       -0.0288
      9 C          -8.3003    2.0421   -0.7462 C.3     1  UNL1       -0.0612
     10 C          -7.9024   -1.0455   -0.6500 C.ar    1  UNL1        0.0401
     11 N          -6.6590   -0.5730   -0.1039 N.am    1  UNL1       -0.2797
     12 C          -5.4928   -0.8832   -0.8272 C.2     1  UNL1        0.2686
     13 O          -5.6234   -1.5621   -1.9178 O.2     1  UNL1       -0.2681
     14 C          -4.1496   -0.5106   -0.4605 C.ar    1  UNL1        0.1511
     15 N          -3.0336   -0.8317   -1.1808 N.ar    1  UNL1       -0.1659
     16 N          -1.9599   -0.3579   -0.5991 N.ar    1  UNL1       -0.2643
     17 C          -0.6030   -0.5175   -1.1135 C.3     1  UNL1        0.0309
     18 C          -2.3274    0.2876    0.5174 C.ar    1  UNL1        0.0911
     19 C          -3.7194    0.2102    0.6378 C.ar    1  UNL1        0.0121
     20 C          -4.4161    0.8231    1.7758 C.3     1  UNL1       -0.0193
     21 C          -3.6115    1.5915    2.7481 C.3     1  UNL1       -0.0200
     22 C          -2.1611    1.6014    2.5367 C.ar    1  UNL1       -0.0014
     23 C          -1.3956    2.2743    3.4624 C.ar    1  UNL1        0.0365
     24 N          -0.0739    2.3460    3.3579 N.ar    1  UNL1       -0.2224
     25 C           0.5882    1.7481    2.3162 C.ar    1  UNL1        0.2201
     26 N           1.9944    1.8873    2.2398 N.pl3   1  UNL1       -0.2807
     27 C           2.8788    1.1543    1.4118 C.ar    1  UNL1        0.0761
     28 C           2.5289    0.0455    0.6895 C.ar    1  UNL1       -0.0362
     29 C           3.4587   -0.6498   -0.0755 C.ar    1  UNL1       -0.0477
     30 C           4.7843   -0.2740   -0.1565 C.ar    1  UNL1        0.0403
     31 C           5.7180   -1.0446   -0.9826 C.2     1  UNL1        0.2444
     32 O           5.2662   -1.9727   -1.6776 O.2     1  UNL1       -0.2702
     33 N           7.1133   -0.8044   -1.0450 N.am    1  UNL1       -0.3084
     34 C           8.0090   -1.5835   -1.8736 C.3     1  UNL1        0.0257
     35 C           9.0449   -2.3374   -1.0691 C.3     1  UNL1       -0.0216
     36 C           9.9691   -1.4031   -0.3279 C.3     1  UNL1        0.0003
     37 N          10.5912   -0.4396   -1.1910 N.3     1  UNL1       -0.3052
     38 C          10.3560    0.8777   -0.6871 C.3     1  UNL1       -0.0128
     39 C          10.2329   -0.6271   -2.5646 C.3     1  UNL1        0.0003
     40 C           8.7381   -0.6467   -2.8061 C.3     1  UNL1       -0.0216
     41 C           5.1419    0.8395    0.5681 C.ar    1  UNL1       -0.0057
     42 C           4.2279    1.5348    1.3277 C.ar    1  UNL1        0.1518
     43 O           4.6223    2.6454    2.0378 O.3     1  UNL1       -0.4038
     44 C           4.6231    3.9610    1.5643 C.3     1  UNL1        0.5753
     45 F           3.3978    4.4374    1.1784 F       1  UNL1       -0.1328
     46 F           5.4700    4.1262    0.4661 F       1  UNL1       -0.1328
     47 F           5.1872    4.7555    2.5715 F       1  UNL1       -0.1328
     48 N          -0.1673    1.1004    1.4281 N.ar    1  UNL1       -0.2124
     49 C          -1.5075    1.0070    1.5007 C.ar    1  UNL1        0.0973
     50 H          -8.2464   -1.4814    2.0017 H       1  UNL1        0.0233
     51 H          -8.4206   -3.1395    2.6171 H       1  UNL1        0.0233
     52 H          -6.7702   -2.4112    2.6106 H       1  UNL1        0.0233
     53 H          -6.4379   -2.9518    0.3877 H       1  UNL1        0.0311
     54 H          -7.7906   -4.1419    0.7043 H       1  UNL1        0.0311
     55 H          -9.9120   -3.7551   -0.4844 H       1  UNL1        0.0621
     56 H         -11.1835   -2.3415   -2.0621 H       1  UNL1        0.0618
     57 H         -10.3310   -0.1190   -2.7066 H       1  UNL1        0.0621
     58 H          -6.9559    1.0098   -2.0947 H       1  UNL1        0.0311
     59 H          -8.5119    1.4785   -2.8273 H       1  UNL1        0.0311
     60 H          -8.4461    1.5134    0.2135 H       1  UNL1        0.0233
     61 H          -9.1718    2.6630   -1.0311 H       1  UNL1        0.0233
     62 H          -7.4258    2.7233   -0.7088 H       1  UNL1        0.0233
     63 H          -6.6717   -0.0369    0.7773 H       1  UNL1        0.1552
     64 H          -0.1613   -1.3343   -0.5322 H       1  UNL1        0.0473
     65 H          -0.6470   -0.7684   -2.1984 H       1  UNL1        0.0473
     66 H           0.0053    0.3906   -0.9663 H       1  UNL1        0.0473
     67 H          -4.9733   -0.0085    2.2801 H       1  UNL1        0.0318
     68 H          -5.1513    1.5565    1.3290 H       1  UNL1        0.0318
     69 H          -3.7701    1.1350    3.7657 H       1  UNL1        0.0317
     70 H          -3.9617    2.6449    2.8888 H       1  UNL1        0.0317
     71 H          -1.8579    2.7743    4.3185 H       1  UNL1        0.0834
     72 H           2.4037    2.6388    2.8976 H       1  UNL1        0.1551
     73 H           1.5093   -0.2896    0.7465 H       1  UNL1        0.0637
     74 H           3.1630   -1.5280   -0.6447 H       1  UNL1        0.0626
     75 H           7.4962   -0.0279   -0.4626 H       1  UNL1        0.1493
     76 H           7.3859   -2.2620   -2.4800 H       1  UNL1        0.0499
     77 H           9.6618   -2.8949   -1.8217 H       1  UNL1        0.0295
     78 H           8.5918   -3.0157   -0.3154 H       1  UNL1        0.0295
     79 H           9.4715   -0.9322    0.5395 H       1  UNL1        0.0427
     80 H          10.7761   -2.0478    0.1075 H       1  UNL1        0.0427
     81 H           9.8636    1.5529   -1.4261 H       1  UNL1        0.0391
     82 H           9.6557    0.8706    0.1993 H       1  UNL1        0.0391
     83 H          11.3021    1.3331   -0.2773 H       1  UNL1        0.0391
     84 H          10.6634   -1.5548   -2.9930 H       1  UNL1        0.0427
     85 H          10.6441    0.2218   -3.1562 H       1  UNL1        0.0427
     86 H           8.5992   -0.9498   -3.8816 H       1  UNL1        0.0295
     87 H           8.3696    0.3928   -2.7055 H       1  UNL1        0.0295
     88 H           6.1916    1.1505    0.5118 H       1  UNL1        0.0662
@<TRIPOS>BOND
     1     1     2    1
     2     2     3    1
     3     3     4   ar
     4     4     5   ar
     5     5     6   ar
     6     6     7   ar
     7     7     8    1
     8     8     9    1
     9     7    10   ar
    10    10    11    1
    11    11    12   am
    12    12    13    2
    13    12    14    1
    14    14    15   ar
    15    15    16   ar
    16    16    17    1
    17    16    18   ar
    18    18    19   ar
    19    19    20    1
    20    20    21    1
    21    21    22    1
    22    22    23   ar
    23    23    24   ar
    24    24    25   ar
    25    25    26    1
    26    26    27    1
    27    27    28   ar
    28    28    29   ar
    29    29    30   ar
    30    30    31    1
    31    31    32    2
    32    31    33   am
    33    33    34    1
    34    34    35    1
    35    35    36    1
    36    36    37    1
    37    37    38    1
    38    37    39    1
    39    39    40    1
    40    30    41   ar
    41    41    42   ar
    42    42    43    1
    43    43    44    1
    44    44    45    1
    45    44    46    1
    46    44    47    1
    47    25    48   ar
    48    48    49   ar
    49    10     3   ar
    50    19    14   ar
    51    49    22   ar
    52    49    18    1
    53    42    27   ar
    54    40    34    1
    55     1    50    1
    56     1    51    1
    57     1    52    1
    58     2    53    1
    59     2    54    1
    60     4    55    1
    61     5    56    1
    62     6    57    1
    63     8    58    1
    64     8    59    1
    65     9    60    1
    66     9    61    1
    67     9    62    1
    68    11    63    1
    69    17    64    1
    70    17    65    1
    71    17    66    1
    72    20    67    1
    73    20    68    1
    74    21    69    1
    75    21    70    1
    76    23    71    1
    77    26    72    1
    78    28    73    1
    79    29    74    1
    80    33    75    1
    81    34    76    1
    82    35    77    1
    83    35    78    1
    84    36    79    1
    85    36    80    1
    86    38    81    1
    87    38    82    1
    88    38    83    1
    89    39    84    1
    90    39    85    1
    91    40    86    1
    92    40    87    1
    93    41    88    1
