
     RDKit          3D

 46 49  0  0  0  0  0  0  0  0999 V2000
    1.8040   -1.3737    1.8778 C   0  0  0  0  0  0  0  0  0  0  0  0
    0.3522   -1.0137    1.6082 C   0  0  1  0  0  0  0  0  0  0  0  0
    0.0686    0.5906    2.3615 S   0  0  0  0  0  0  0  0  0  0  0  0
   -1.1023    1.4021    1.3115 C   0  0  0  0  0  0  0  0  0  0  0  0
   -1.5655    2.6936    1.7046 N   0  0  0  0  0  0  0  0  0  0  0  0
   -1.4761    0.8377    0.2901 N   0  0  0  0  0  0  0  0  0  0  0  0
   -1.1819   -0.4097   -0.3154 C   0  0  1  0  0  0  0  0  0  0  0  0
   -2.4401   -1.1146   -0.4366 C   0  0  0  0  0  0  0  0  0  0  0  0
   -2.9105   -1.5219   -1.6591 C   0  0  0  0  0  0  0  0  0  0  0  0
   -4.1229   -2.2143   -1.7759 C   0  0  0  0  0  0  0  0  0  0  0  0
   -4.8658   -2.4986   -0.6573 C   0  0  0  0  0  0  0  0  0  0  0  0
   -6.0543   -3.1705   -0.7129 F   0  0  0  0  0  0  0  0  0  0  0  0
   -4.4020   -2.0939    0.5746 C   0  0  0  0  0  0  0  0  0  0  0  0
   -3.2078   -1.4161    0.6520 C   0  0  0  0  0  0  0  0  0  0  0  0
   -2.7527   -1.0156    1.8416 F   0  0  0  0  0  0  0  0  0  0  0  0
   -0.7999   -0.0111   -1.7892 C   0  0  0  0  0  0  0  0  0  0  0  0
    0.2961    0.8320   -1.7377 O   0  0  0  0  0  0  0  0  0  0  0  0
    1.4254    0.0828   -1.5684 C   0  0  1  0  0  0  0  0  0  0  0  0
    2.5260    0.9519   -1.0624 C   0  0  0  0  0  0  0  0  0  0  0  0
    3.8541    0.9437   -1.4214 C   0  0  0  0  0  0  0  0  0  0  0  0
    4.4672    1.9136   -0.7116 N   0  0  0  0  0  0  0  0  0  0  0  0
    3.6197    2.5432    0.0788 N   0  0  0  0  0  0  0  0  0  0  0  0
    3.9088    3.6478    0.9955 C   0  0  0  0  0  0  0  0  0  0  0  0
    2.4120    1.9516   -0.1336 C   0  0  0  0  0  0  0  0  0  0  0  0
    1.1641   -1.1253   -0.7643 C   0  0  0  0  0  0  0  0  0  0  0  0
   -0.0161   -1.1519    0.1664 C   0  0  1  0  0  0  0  0  0  0  0  0
    2.0537   -2.4057    1.5733 H   0  0  0  0  0  0  0  0  0  0  0  0
    2.5107   -0.6052    1.5471 H   0  0  0  0  0  0  0  0  0  0  0  0
    1.8909   -1.3793    3.0067 H   0  0  0  0  0  0  0  0  0  0  0  0
   -0.2093   -1.7303    2.2902 H   0  0  0  0  0  0  0  0  0  0  0  0
   -1.7697    2.8230    2.7200 H   0  0  0  0  0  0  0  0  0  0  0  0
   -1.6853    3.4508    0.9958 H   0  0  0  0  0  0  0  0  0  0  0  0
   -2.4171   -1.3595   -2.6086 H   0  0  0  0  0  0  0  0  0  0  0  0
   -4.5043   -2.5402   -2.7306 H   0  0  0  0  0  0  0  0  0  0  0  0
   -4.9776   -2.3103    1.4739 H   0  0  0  0  0  0  0  0  0  0  0  0
   -1.6401    0.4635   -2.2933 H   0  0  0  0  0  0  0  0  0  0  0  0
   -0.4860   -0.8950   -2.3607 H   0  0  0  0  0  0  0  0  0  0  0  0
    1.7592   -0.1819   -2.6275 H   0  0  0  0  0  0  0  0  0  0  0  0
    4.2930    0.2707   -2.1428 H   0  0  0  0  0  0  0  0  0  0  0  0
    3.4102    4.5805    0.6761 H   0  0  0  0  0  0  0  0  0  0  0  0
    4.9894    3.7165    1.1076 H   0  0  0  0  0  0  0  0  0  0  0  0
    3.4304    3.3525    1.9664 H   0  0  0  0  0  0  0  0  0  0  0  0
    1.5019    2.2397    0.3596 H   0  0  0  0  0  0  0  0  0  0  0  0
    2.0973   -1.4808   -0.2408 H   0  0  0  0  0  0  0  0  0  0  0  0
    1.0017   -1.9652   -1.5203 H   0  0  0  0  0  0  0  0  0  0  0  0
   -0.2496   -2.3034    0.1653 H   0  0  0  0  0  0  0  0  0  0  0  0
  1  2  1  0
  2  3  1  0
  3  4  1  0
  4  5  1  0
  4  6  2  0
  6  7  1  0
  7  8  1  6
  8  9  2  0
  9 10  1  0
 10 11  2  0
 11 12  1  0
 11 13  1  0
 13 14  2  0
 14 15  1  0
  7 16  1  0
 16 17  1  0
 17 18  1  0
 18 19  1  0
 19 20  1  0
 20 21  2  0
 21 22  1  0
 22 23  1  0
 22 24  1  0
 18 25  1  0
 25 26  1  0
 26  2  1  0
 26  7  1  0
 14  8  1  0
 24 19  2  0
  1 27  1  0
  1 28  1  0
  1 29  1  0
  2 30  1  1
  5 31  1  0
  5 32  1  0
  9 33  1  0
 10 34  1  0
 13 35  1  0
 16 36  1  0
 16 37  1  0
 18 38  1  6
 20 39  1  0
 23 40  1  0
 23 41  1  0
 23 42  1  0
 24 43  1  0
 25 44  1  0
 25 45  1  0
 26 46  1  1
M  END
$$$$
