@<TRIPOS>MOLECULE
*****
 46 49 0 0 0
SMALL
GASTEIGER

@<TRIPOS>ATOM
      1 C           1.8040   -1.3737    1.8778 C.3     1  UNL1       -0.0526
      2 C           0.3522   -1.0137    1.6082 C.3     1  UNL1        0.0151
      3 S           0.0686    0.5906    2.3615 S.3     1  UNL1       -0.0876
      4 C          -1.1023    1.4021    1.3115 C.2     1  UNL1        0.1478
      5 N          -1.5655    2.6936    1.7046 N.pl3   1  UNL1       -0.3380
      6 N          -1.4761    0.8377    0.2901 N.2     1  UNL1       -0.2495
      7 C          -1.1819   -0.4097   -0.3154 C.3     1  UNL1        0.1188
      8 C          -2.4401   -1.1146   -0.4366 C.ar    1  UNL1        0.0178
      9 C          -2.9105   -1.5219   -1.6591 C.ar    1  UNL1       -0.0507
     10 C          -4.1229   -2.2143   -1.7759 C.ar    1  UNL1       -0.0259
     11 C          -4.8658   -2.4986   -0.6573 C.ar    1  UNL1        0.1261
     12 F          -6.0543   -3.1705   -0.7129 F       1  UNL1       -0.2054
     13 C          -4.4020   -2.0939    0.5746 C.ar    1  UNL1        0.0091
     14 C          -3.2078   -1.4161    0.6520 C.ar    1  UNL1        0.1317
     15 F          -2.7527   -1.0156    1.8416 F       1  UNL1       -0.2050
     16 C          -0.7999   -0.0111   -1.7892 C.3     1  UNL1        0.0781
     17 O           0.2961    0.8320   -1.7377 O.3     1  UNL1       -0.3691
     18 C           1.4254    0.0828   -1.5684 C.3     1  UNL1        0.0870
     19 C           2.5260    0.9519   -1.0624 C.ar    1  UNL1        0.0185
     20 C           3.8541    0.9437   -1.4214 C.ar    1  UNL1        0.0550
     21 N           4.4672    1.9136   -0.7116 N.ar    1  UNL1       -0.1796
     22 N           3.6197    2.5432    0.0788 N.ar    1  UNL1       -0.2741
     23 C           3.9088    3.6478    0.9955 C.3     1  UNL1        0.0302
     24 C           2.4120    1.9516   -0.1336 C.ar    1  UNL1        0.0308
     25 C           1.1641   -1.1253   -0.7643 C.3     1  UNL1       -0.0159
     26 C          -0.0161   -1.1519    0.1664 C.3     1  UNL1        0.0053
     27 H           2.0537   -2.4057    1.5733 H       1  UNL1        0.0240
     28 H           2.5107   -0.6052    1.5471 H       1  UNL1        0.0240
     29 H           1.8909   -1.3793    3.0067 H       1  UNL1        0.0240
     30 H          -0.2093   -1.7303    2.2902 H       1  UNL1        0.0417
     31 H          -1.7697    2.8230    2.7200 H       1  UNL1        0.1442
     32 H          -1.6853    3.4508    0.9958 H       1  UNL1        0.1442
     33 H          -2.4171   -1.3595   -2.6086 H       1  UNL1        0.0623
     34 H          -4.5043   -2.5402   -2.7306 H       1  UNL1        0.0646
     35 H          -4.9776   -2.3103    1.4739 H       1  UNL1        0.0675
     36 H          -1.6401    0.4635   -2.2933 H       1  UNL1        0.0588
     37 H          -0.4860   -0.8950   -2.3607 H       1  UNL1        0.0588
     38 H           1.7592   -0.1819   -2.6275 H       1  UNL1        0.0647
     39 H           4.2930    0.2707   -2.1428 H       1  UNL1        0.0851
     40 H           3.4102    4.5805    0.6761 H       1  UNL1        0.0473
     41 H           4.9894    3.7165    1.1076 H       1  UNL1        0.0473
     42 H           3.4304    3.3525    1.9664 H       1  UNL1        0.0473
     43 H           1.5019    2.2397    0.3596 H       1  UNL1        0.0830
     44 H           2.0973   -1.4808   -0.2408 H       1  UNL1        0.0297
     45 H           1.0017   -1.9652   -1.5203 H       1  UNL1        0.0297
     46 H          -0.2496   -2.3034    0.1653 H       1  UNL1        0.0340
@<TRIPOS>BOND
     1     1     2    1
     2     2     3    1
     3     3     4    1
     4     4     5    1
     5     4     6    2
     6     6     7    1
     7     7     8    1
     8     8     9   ar
     9     9    10   ar
    10    10    11   ar
    11    11    12    1
    12    11    13   ar
    13    13    14   ar
    14    14    15    1
    15     7    16    1
    16    16    17    1
    17    17    18    1
    18    18    19    1
    19    19    20   ar
    20    20    21   ar
    21    21    22   ar
    22    22    23    1
    23    22    24   ar
    24    18    25    1
    25    25    26    1
    26    26     2    1
    27    26     7    1
    28    14     8   ar
    29    24    19   ar
    30     1    27    1
    31     1    28    1
    32     1    29    1
    33     2    30    1
    34     5    31    1
    35     5    32    1
    36     9    33    1
    37    10    34    1
    38    13    35    1
    39    16    36    1
    40    16    37    1
    41    18    38    1
    42    20    39    1
    43    23    40    1
    44    23    41    1
    45    23    42    1
    46    24    43    1
    47    25    44    1
    48    25    45    1
    49    26    46    1
