
     RDKit          3D

 41 43  0  0  0  0  0  0  0  0999 V2000
   -1.3622   -1.4192   -0.3564 C   0  0  1  0  0  0  0  0  0  0  0  0
   -1.7626   -2.0862   -1.6105 C   0  0  0  0  0  0  0  0  0  0  0  0
   -0.4835   -2.7567   -2.0473 C   0  0  0  0  0  0  0  0  0  0  0  0
    0.6400   -1.8508   -1.5643 C   0  0  0  0  0  0  0  0  0  0  0  0
    0.0313   -1.1209   -0.4443 N   0  0  0  0  0  0  0  0  0  0  0  0
    0.5604   -0.2111    0.5189 C   0  0  0  0  0  0  0  0  0  0  0  0
   -0.1882    0.2983    1.4338 O   0  0  0  0  0  0  0  0  0  0  0  0
    1.9167    0.2831    0.6574 C   0  0  0  0  0  0  0  0  0  0  0  0
    2.2324    1.1328    1.6918 C   0  0  0  0  0  0  0  0  0  0  0  0
    1.3334    1.5622    2.6438 O   0  0  0  0  0  0  0  0  0  0  0  0
    3.5213    1.6511    1.8783 C   0  0  0  0  0  0  0  0  0  0  0  0
    4.5472    1.3281    1.0207 C   0  0  0  0  0  0  0  0  0  0  0  0
    5.8168    1.8389    1.2049 O   0  0  0  0  0  0  0  0  0  0  0  0
    4.2742    0.4791   -0.0302 C   0  0  0  0  0  0  0  0  0  0  0  0
    2.9889    0.0055   -0.1572 C   0  0  0  0  0  0  0  0  0  0  0  0
   -2.2396   -0.3209    0.0720 C   0  0  0  0  0  0  0  0  0  0  0  0
   -3.2246   -0.5219    1.0480 C   0  0  0  0  0  0  0  0  0  0  0  0
   -4.1046    0.4097    1.5494 C   0  0  0  0  0  0  0  0  0  0  0  0
   -4.0019    1.6806    1.0307 C   0  0  0  0  0  0  0  0  0  0  0  0
   -3.0658    1.9625    0.0725 C   0  0  0  0  0  0  0  0  0  0  0  0
   -2.2017    0.9760   -0.3962 C   0  0  0  0  0  0  0  0  0  0  0  0
   -1.2332    1.3481   -1.4307 C   0  0  0  0  0  0  0  0  0  0  0  0
   -1.4322   -2.2158    0.4527 H   0  0  0  0  0  0  0  0  0  0  0  0
   -2.1463   -1.4397   -2.4202 H   0  0  0  0  0  0  0  0  0  0  0  0
   -2.5827   -2.8482   -1.4565 H   0  0  0  0  0  0  0  0  0  0  0  0
   -0.4312   -2.9590   -3.1285 H   0  0  0  0  0  0  0  0  0  0  0  0
   -0.4242   -3.7153   -1.4708 H   0  0  0  0  0  0  0  0  0  0  0  0
    1.4439   -2.4856   -1.1103 H   0  0  0  0  0  0  0  0  0  0  0  0
    1.0190   -1.2176   -2.3564 H   0  0  0  0  0  0  0  0  0  0  0  0
    1.1220    2.5683    2.6697 H   0  0  0  0  0  0  0  0  0  0  0  0
    3.7689    2.3115    2.6813 H   0  0  0  0  0  0  0  0  0  0  0  0
    6.6137    1.2831    1.4399 H   0  0  0  0  0  0  0  0  0  0  0  0
    5.0641    0.2240   -0.6994 H   0  0  0  0  0  0  0  0  0  0  0  0
    2.8584   -0.6457   -1.0035 H   0  0  0  0  0  0  0  0  0  0  0  0
   -3.2896   -1.5457    1.4495 H   0  0  0  0  0  0  0  0  0  0  0  0
   -4.8099    0.1052    2.3019 H   0  0  0  0  0  0  0  0  0  0  0  0
   -4.6783    2.4371    1.4028 H   0  0  0  0  0  0  0  0  0  0  0  0
   -3.0053    2.9742   -0.3208 H   0  0  0  0  0  0  0  0  0  0  0  0
   -0.8628    0.5562   -2.0718 H   0  0  0  0  0  0  0  0  0  0  0  0
   -0.4319    2.0291   -1.0164 H   0  0  0  0  0  0  0  0  0  0  0  0
   -1.7904    2.0465   -2.1284 H   0  0  0  0  0  0  0  0  0  0  0  0
  1  2  1  0
  2  3  1  0
  3  4  1  0
  4  5  1  0
  5  6  1  0
  6  7  2  0
  6  8  1  0
  8  9  2  0
  9 10  1  0
  9 11  1  0
 11 12  2  0
 12 13  1  0
 12 14  1  0
 14 15  2  0
  1 16  1  0
 16 17  2  0
 17 18  1  0
 18 19  2  0
 19 20  1  0
 20 21  2  0
 21 22  1  0
  5  1  1  0
 15  8  1  0
 21 16  1  0
  1 23  1  1
  2 24  1  0
  2 25  1  0
  3 26  1  0
  3 27  1  0
  4 28  1  0
  4 29  1  0
 10 30  1  0
 11 31  1  0
 13 32  1  0
 14 33  1  0
 15 34  1  0
 17 35  1  0
 18 36  1  0
 19 37  1  0
 20 38  1  0
 22 39  1  0
 22 40  1  0
 22 41  1  0
M  END
$$$$
