@<TRIPOS>MOLECULE
*****
 41 43 0 0 0
SMALL
GASTEIGER

@<TRIPOS>ATOM
      1 C          -1.3622   -1.4192   -0.3564 C.3     1  UNL1        0.0518
      2 C          -1.7626   -2.0862   -1.6105 C.3     1  UNL1       -0.0287
      3 C          -0.4835   -2.7567   -2.0473 C.3     1  UNL1       -0.0351
      4 C           0.6400   -1.8508   -1.5643 C.3     1  UNL1        0.0157
      5 N           0.0313   -1.1209   -0.4443 N.am    1  UNL1       -0.2903
      6 C           0.5604   -0.2111    0.5189 C.2     1  UNL1        0.2506
      7 O          -0.1882    0.2983    1.4338 O.2     1  UNL1       -0.2698
      8 C           1.9167    0.2831    0.6574 C.ar    1  UNL1        0.0785
      9 C           2.2324    1.1328    1.6918 C.ar    1  UNL1        0.1324
     10 O           1.3334    1.5622    2.6438 O.3     1  UNL1       -0.5059
     11 C           3.5213    1.6511    1.8783 C.ar    1  UNL1        0.0221
     12 C           4.5472    1.3281    1.0207 C.ar    1  UNL1        0.1204
     13 O           5.8168    1.8389    1.2049 O.3     1  UNL1       -0.5066
     14 C           4.2742    0.4791   -0.0302 C.ar    1  UNL1       -0.0192
     15 C           2.9889    0.0055   -0.1572 C.ar    1  UNL1       -0.0426
     16 C          -2.2396   -0.3209    0.0720 C.ar    1  UNL1       -0.0241
     17 C          -3.2246   -0.5219    1.0480 C.ar    1  UNL1       -0.0565
     18 C          -4.1046    0.4097    1.5494 C.ar    1  UNL1       -0.0614
     19 C          -4.0019    1.6806    1.0307 C.ar    1  UNL1       -0.0615
     20 C          -3.0658    1.9625    0.0725 C.ar    1  UNL1       -0.0585
     21 C          -2.2017    0.9760   -0.3962 C.ar    1  UNL1       -0.0455
     22 C          -1.2332    1.3481   -1.4307 C.3     1  UNL1       -0.0394
     23 H          -1.4322   -2.2158    0.4527 H       1  UNL1        0.0550
     24 H          -2.1463   -1.4397   -2.4202 H       1  UNL1        0.0287
     25 H          -2.5827   -2.8482   -1.4565 H       1  UNL1        0.0287
     26 H          -0.4312   -2.9590   -3.1285 H       1  UNL1        0.0281
     27 H          -0.4242   -3.7153   -1.4708 H       1  UNL1        0.0281
     28 H           1.4439   -2.4856   -1.1103 H       1  UNL1        0.0465
     29 H           1.0190   -1.2176   -2.3564 H       1  UNL1        0.0465
     30 H           1.1220    2.5683    2.6697 H       1  UNL1        0.2922
     31 H           3.7689    2.3115    2.6813 H       1  UNL1        0.0691
     32 H           6.6137    1.2831    1.4399 H       1  UNL1        0.2921
     33 H           5.0641    0.2240   -0.6994 H       1  UNL1        0.0654
     34 H           2.8584   -0.6457   -1.0035 H       1  UNL1        0.0627
     35 H          -3.2896   -1.5457    1.4495 H       1  UNL1        0.0621
     36 H          -4.8099    0.1052    2.3019 H       1  UNL1        0.0618
     37 H          -4.6783    2.4371    1.4028 H       1  UNL1        0.0618
     38 H          -3.0053    2.9742   -0.3208 H       1  UNL1        0.0620
     39 H          -0.8628    0.5562   -2.0718 H       1  UNL1        0.0278
     40 H          -0.4319    2.0291   -1.0164 H       1  UNL1        0.0278
     41 H          -1.7904    2.0465   -2.1284 H       1  UNL1        0.0278
@<TRIPOS>BOND
     1     1     2    1
     2     2     3    1
     3     3     4    1
     4     4     5    1
     5     5     6   am
     6     6     7    2
     7     6     8    1
     8     8     9   ar
     9     9    10    1
    10     9    11   ar
    11    11    12   ar
    12    12    13    1
    13    12    14   ar
    14    14    15   ar
    15     1    16    1
    16    16    17   ar
    17    17    18   ar
    18    18    19   ar
    19    19    20   ar
    20    20    21   ar
    21    21    22    1
    22     5     1    1
    23    15     8   ar
    24    21    16   ar
    25     1    23    1
    26     2    24    1
    27     2    25    1
    28     3    26    1
    29     3    27    1
    30     4    28    1
    31     4    29    1
    32    10    30    1
    33    11    31    1
    34    13    32    1
    35    14    33    1
    36    15    34    1
    37    17    35    1
    38    18    36    1
    39    19    37    1
    40    20    38    1
    41    22    39    1
    42    22    40    1
    43    22    41    1
