
     RDKit          3D

 62 66  0  0  0  0  0  0  0  0999 V2000
    3.4901   -1.1503   -3.8223 C   0  0  0  0  0  0  0  0  0  0  0  0
    2.4400   -0.1951   -3.3629 C   0  0  0  0  0  0  0  0  0  0  0  0
    2.5446    0.3926   -2.2279 C   0  0  0  0  0  0  0  0  0  0  0  0
    3.6019    0.2873   -1.2508 C   0  0  0  0  0  0  0  0  0  0  0  0
    3.4367    1.0093   -0.1620 O   0  0  0  0  0  0  0  0  0  0  0  0
    4.7954   -0.4360   -1.2145 N   0  0  0  0  0  0  0  0  0  0  0  0
    5.7513   -0.4396   -0.1606 C   0  0  0  0  0  0  0  0  0  0  0  0
    6.8922   -1.2451   -0.3267 C   0  0  0  0  0  0  0  0  0  0  0  0
    7.8883   -1.3428    0.6043 C   0  0  0  0  0  0  0  0  0  0  0  0
    7.8055   -0.6396    1.7623 C   0  0  0  0  0  0  0  0  0  0  0  0
    8.6342   -0.5502    2.8401 N   0  0  0  0  0  0  0  0  0  0  0  0
    8.0752    0.2889    3.7113 N   0  0  0  0  0  0  0  0  0  0  0  0
    6.8948    0.7404    3.2047 C   0  0  0  0  0  0  0  0  0  0  0  0
    6.7071    0.1626    1.9699 C   0  0  0  0  0  0  0  0  0  0  0  0
    5.6950    0.2499    1.0026 C   0  0  0  0  0  0  0  0  0  0  0  0
    1.3591    1.2093   -1.7429 C   0  0  0  0  0  0  0  0  0  0  0  0
    0.4154    0.2764   -1.0156 C   0  0  0  0  0  0  0  0  0  0  0  0
    0.8189   -0.9898   -0.6721 C   0  0  0  0  0  0  0  0  0  0  0  0
   -0.0758   -1.8045   -0.0074 C   0  0  0  0  0  0  0  0  0  0  0  0
   -1.3647   -1.3496    0.3088 C   0  0  0  0  0  0  0  0  0  0  0  0
   -2.2092   -2.1774    0.9681 F   0  0  0  0  0  0  0  0  0  0  0  0
   -1.7861   -0.0932   -0.0244 C   0  0  0  0  0  0  0  0  0  0  0  0
   -3.0853    0.4607    0.2432 C   0  0  0  0  0  0  0  0  0  0  0  0
   -3.2831    1.6950   -0.0256 O   0  0  0  0  0  0  0  0  0  0  0  0
   -4.1627   -0.2524    0.7797 N   0  0  0  0  0  0  0  0  0  0  0  0
   -5.4308    0.4377    1.0027 C   0  0  0  0  0  0  0  0  0  0  0  0
   -6.4454   -0.5106    1.5817 C   0  0  0  0  0  0  0  0  0  0  0  0
   -7.7203    0.1739    1.8084 C   0  0  0  0  0  0  0  0  0  0  0  0
   -8.0072    0.8029    3.0024 C   0  0  0  0  0  0  0  0  0  0  0  0
   -9.2167    1.4314    3.1675 C   0  0  0  0  0  0  0  0  0  0  0  0
  -10.1304    1.4493    2.1930 N   0  0  0  0  0  0  0  0  0  0  0  0
   -9.9011    0.8512    1.0092 C   0  0  0  0  0  0  0  0  0  0  0  0
   -8.6994    0.2203    0.8296 C   0  0  0  0  0  0  0  0  0  0  0  0
   -0.8560    0.6959   -0.6924 C   0  0  0  0  0  0  0  0  0  0  0  0
    0.6482    1.7838   -2.8103 N   0  0  0  0  0  0  0  0  0  0  0  0
    0.4975    1.1315   -4.0502 C   0  0  0  0  0  0  0  0  0  0  0  0
   -0.4343    1.4510   -4.8656 O   0  0  0  0  0  0  0  0  0  0  0  0
    1.4153    0.1126   -4.3553 N   0  0  0  0  0  0  0  0  0  0  0  0
    3.5001   -2.0462   -3.1734 H   0  0  0  0  0  0  0  0  0  0  0  0
    4.4276   -0.6990   -4.1149 H   0  0  0  0  0  0  0  0  0  0  0  0
    3.1172   -1.6070   -4.8095 H   0  0  0  0  0  0  0  0  0  0  0  0
    5.0190   -1.0394   -2.0634 H   0  0  0  0  0  0  0  0  0  0  0  0
    7.0052   -1.8256   -1.2330 H   0  0  0  0  0  0  0  0  0  0  0  0
    8.7594   -1.9702    0.4554 H   0  0  0  0  0  0  0  0  0  0  0  0
    9.5431   -1.0376    2.9818 H   0  0  0  0  0  0  0  0  0  0  0  0
    6.2006    1.4302    3.6607 H   0  0  0  0  0  0  0  0  0  0  0  0
    4.8899    0.9039    1.2722 H   0  0  0  0  0  0  0  0  0  0  0  0
    1.7128    1.9573   -0.9851 H   0  0  0  0  0  0  0  0  0  0  0  0
    1.8129   -1.3264   -0.9243 H   0  0  0  0  0  0  0  0  0  0  0  0
    0.2179   -2.7921    0.2687 H   0  0  0  0  0  0  0  0  0  0  0  0
   -4.1123   -1.2483    1.0243 H   0  0  0  0  0  0  0  0  0  0  0  0
   -5.7789    0.8482    0.0510 H   0  0  0  0  0  0  0  0  0  0  0  0
   -5.2503    1.2498    1.7368 H   0  0  0  0  0  0  0  0  0  0  0  0
   -6.6308   -1.3640    0.8865 H   0  0  0  0  0  0  0  0  0  0  0  0
   -6.0339   -0.9163    2.5289 H   0  0  0  0  0  0  0  0  0  0  0  0
   -7.2579    0.7725    3.7637 H   0  0  0  0  0  0  0  0  0  0  0  0
   -9.4376    1.9265    4.1125 H   0  0  0  0  0  0  0  0  0  0  0  0
  -10.6595    0.8896    0.2568 H   0  0  0  0  0  0  0  0  0  0  0  0
   -8.4649   -0.2784   -0.1092 H   0  0  0  0  0  0  0  0  0  0  0  0
   -1.1419    1.6962   -0.9769 H   0  0  0  0  0  0  0  0  0  0  0  0
    0.1990    2.7476   -2.7039 H   0  0  0  0  0  0  0  0  0  0  0  0
    1.3659   -0.4088   -5.2637 H   0  0  0  0  0  0  0  0  0  0  0  0
  1  2  1  0
  2  3  2  0
  3  4  1  0
  4  5  2  0
  4  6  1  0
  6  7  1  0
  7  8  2  0
  8  9  1  0
  9 10  2  0
 10 11  1  0
 11 12  1  0
 12 13  2  0
 13 14  1  0
 14 15  2  0
  3 16  1  0
 16 17  1  0
 17 18  2  0
 18 19  1  0
 19 20  2  0
 20 21  1  0
 20 22  1  0
 22 23  1  0
 23 24  2  0
 23 25  1  0
 25 26  1  0
 26 27  1  0
 27 28  1  0
 28 29  2  0
 29 30  1  0
 30 31  2  0
 31 32  1  0
 32 33  2  0
 22 34  2  0
 16 35  1  0
 35 36  1  0
 36 37  2  0
 36 38  1  0
 38  2  1  0
 15  7  1  0
 34 17  1  0
 14 10  1  0
 33 28  1  0
  1 39  1  0
  1 40  1  0
  1 41  1  0
  6 42  1  0
  8 43  1  0
  9 44  1  0
 11 45  1  0
 13 46  1  0
 15 47  1  0
 16 48  1  0
 18 49  1  0
 19 50  1  0
 25 51  1  0
 26 52  1  0
 26 53  1  0
 27 54  1  0
 27 55  1  0
 29 56  1  0
 30 57  1  0
 32 58  1  0
 33 59  1  0
 34 60  1  0
 35 61  1  0
 38 62  1  0
M  END
$$$$
