@<TRIPOS>MOLECULE
*****
 62 66 0 0 0
SMALL
GASTEIGER

@<TRIPOS>ATOM
      1 C           3.4901   -1.1503   -3.8223 C.3     1  UNL1       -0.0259
      2 C           2.4400   -0.1951   -3.3629 C.2     1  UNL1        0.0191
      3 C           2.5446    0.3926   -2.2279 C.2     1  UNL1        0.0559
      4 C           3.6019    0.2873   -1.2508 C.2     1  UNL1        0.2478
      5 O           3.4367    1.0093   -0.1620 O.2     1  UNL1       -0.2701
      6 N           4.7954   -0.4360   -1.2145 N.am    1  UNL1       -0.2816
      7 C           5.7513   -0.4396   -0.1606 C.ar    1  UNL1        0.0344
      8 C           6.8922   -1.2451   -0.3267 C.ar    1  UNL1       -0.0384
      9 C           7.8883   -1.3428    0.6043 C.ar    1  UNL1       -0.0345
     10 C           7.8055   -0.6396    1.7623 C.ar    1  UNL1        0.0658
     11 N           8.6342   -0.5502    2.8401 N.ar    1  UNL1       -0.2770
     12 N           8.0752    0.2889    3.7113 N.ar    1  UNL1       -0.1812
     13 C           6.8948    0.7404    3.2047 C.ar    1  UNL1        0.0569
     14 C           6.7071    0.1626    1.9699 C.ar    1  UNL1        0.0212
     15 C           5.6950    0.2499    1.0026 C.ar    1  UNL1       -0.0298
     16 C           1.3591    1.2093   -1.7429 C.3     1  UNL1        0.0815
     17 C           0.4154    0.2764   -1.0156 C.ar    1  UNL1       -0.0217
     18 C           0.8189   -0.9898   -0.6721 C.ar    1  UNL1       -0.0537
     19 C          -0.0758   -1.8045   -0.0074 C.ar    1  UNL1       -0.0254
     20 C          -1.3647   -1.3496    0.3088 C.ar    1  UNL1        0.1355
     21 F          -2.2092   -2.1774    0.9681 F       1  UNL1       -0.2047
     22 C          -1.7861   -0.0932   -0.0244 C.ar    1  UNL1        0.0721
     23 C          -3.0853    0.4607    0.2432 C.2     1  UNL1        0.2469
     24 O          -3.2831    1.6950   -0.0256 O.2     1  UNL1       -0.2701
     25 N          -4.1627   -0.2524    0.7797 N.am    1  UNL1       -0.3110
     26 C          -5.4308    0.4377    1.0027 C.3     1  UNL1        0.0159
     27 C          -6.4454   -0.5106    1.5817 C.3     1  UNL1       -0.0120
     28 C          -7.7203    0.1739    1.8084 C.ar    1  UNL1       -0.0430
     29 C          -8.0072    0.8029    3.0024 C.ar    1  UNL1       -0.0404
     30 C          -9.2167    1.4314    3.1675 C.ar    1  UNL1        0.0278
     31 N         -10.1304    1.4493    2.1930 N.ar    1  UNL1       -0.2632
     32 C          -9.9011    0.8512    1.0092 C.ar    1  UNL1        0.0278
     33 C          -8.6994    0.2203    0.8296 C.ar    1  UNL1       -0.0404
     34 C          -0.8560    0.6959   -0.6924 C.ar    1  UNL1       -0.0416
     35 N           0.6482    1.7838   -2.8103 N.am    1  UNL1       -0.2881
     36 C           0.4975    1.1315   -4.0502 C.2     1  UNL1        0.3043
     37 O          -0.4343    1.4510   -4.8656 O.2     1  UNL1       -0.2525
     38 N           1.4153    0.1126   -4.3553 N.am    1  UNL1       -0.2729
     39 H           3.5001   -2.0462   -3.1734 H       1  UNL1        0.0290
     40 H           4.4276   -0.6990   -4.1149 H       1  UNL1        0.0290
     41 H           3.1172   -1.6070   -4.8095 H       1  UNL1        0.0290
     42 H           5.0190   -1.0394   -2.0634 H       1  UNL1        0.1551
     43 H           7.0052   -1.8256   -1.2330 H       1  UNL1        0.0637
     44 H           8.7594   -1.9702    0.4554 H       1  UNL1        0.0639
     45 H           9.5431   -1.0376    2.9818 H       1  UNL1        0.1889
     46 H           6.2006    1.4302    3.6607 H       1  UNL1        0.0854
     47 H           4.8899    0.9039    1.2722 H       1  UNL1        0.0643
     48 H           1.7128    1.9573   -0.9851 H       1  UNL1        0.0601
     49 H           1.8129   -1.3264   -0.9243 H       1  UNL1        0.0622
     50 H           0.2179   -2.7921    0.2687 H       1  UNL1        0.0646
     51 H          -4.1123   -1.2483    1.0243 H       1  UNL1        0.1490
     52 H          -5.7789    0.8482    0.0510 H       1  UNL1        0.0465
     53 H          -5.2503    1.2498    1.7368 H       1  UNL1        0.0465
     54 H          -6.6308   -1.3640    0.8865 H       1  UNL1        0.0328
     55 H          -6.0339   -0.9163    2.5289 H       1  UNL1        0.0328
     56 H          -7.2579    0.7725    3.7637 H       1  UNL1        0.0635
     57 H          -9.4376    1.9265    4.1125 H       1  UNL1        0.0829
     58 H         -10.6595    0.8896    0.2568 H       1  UNL1        0.0829
     59 H          -8.4649   -0.2784   -0.1092 H       1  UNL1        0.0635
     60 H          -1.1419    1.6962   -0.9769 H       1  UNL1        0.0629
     61 H           0.1990    2.7476   -2.7039 H       1  UNL1        0.1512
     62 H           1.3659   -0.4088   -5.2637 H       1  UNL1        0.1561
@<TRIPOS>BOND
     1     1     2    1
     2     2     3    2
     3     3     4    1
     4     4     5    2
     5     4     6   am
     6     6     7    1
     7     7     8   ar
     8     8     9   ar
     9     9    10   ar
    10    10    11   ar
    11    11    12   ar
    12    12    13   ar
    13    13    14   ar
    14    14    15   ar
    15     3    16    1
    16    16    17    1
    17    17    18   ar
    18    18    19   ar
    19    19    20   ar
    20    20    21    1
    21    20    22   ar
    22    22    23    1
    23    23    24    2
    24    23    25   am
    25    25    26    1
    26    26    27    1
    27    27    28    1
    28    28    29   ar
    29    29    30   ar
    30    30    31   ar
    31    31    32   ar
    32    32    33   ar
    33    22    34   ar
    34    16    35    1
    35    35    36   am
    36    36    37    2
    37    36    38   am
    38    38     2    1
    39    15     7   ar
    40    34    17   ar
    41    14    10   ar
    42    33    28   ar
    43     1    39    1
    44     1    40    1
    45     1    41    1
    46     6    42    1
    47     8    43    1
    48     9    44    1
    49    11    45    1
    50    13    46    1
    51    15    47    1
    52    16    48    1
    53    18    49    1
    54    19    50    1
    55    25    51    1
    56    26    52    1
    57    26    53    1
    58    27    54    1
    59    27    55    1
    60    29    56    1
    61    30    57    1
    62    32    58    1
    63    33    59    1
    64    34    60    1
    65    35    61    1
    66    38    62    1
