
     RDKit          3D

 57 62  0  0  0  0  0  0  0  0999 V2000
    8.3295    1.8162    1.4536 O   0  0  0  0  0  0  0  0  0  0  0  0
    8.8667    1.1028    0.3584 C   0  0  0  0  0  0  0  0  0  0  0  0
    8.6486   -0.3492    0.5565 C   0  0  0  0  0  0  0  0  0  0  0  0
    9.5875   -1.2506    0.9382 N   0  0  0  0  0  0  0  0  0  0  0  0
    8.9797   -2.4094    1.0001 N   0  0  0  0  0  0  0  0  0  0  0  0
    7.7113   -2.3410    0.6882 N   0  0  0  0  0  0  0  0  0  0  0  0
    7.4679   -1.0350    0.3988 C   0  0  0  0  0  0  0  0  0  0  0  0
    6.1407   -0.5803    0.0154 C   0  0  0  0  0  0  0  0  0  0  0  0
    5.7629    0.2304   -1.0314 C   0  0  0  0  0  0  0  0  0  0  0  0
    4.4515    0.5726   -1.2437 C   0  0  0  0  0  0  0  0  0  0  0  0
    3.4326    0.1434   -0.4470 C   0  0  0  0  0  0  0  0  0  0  0  0
    3.7965   -0.6677    0.6023 C   0  0  0  0  0  0  0  0  0  0  0  0
    5.0902   -1.0206    0.8331 C   0  0  0  0  0  0  0  0  0  0  0  0
    2.2192    0.6190   -0.8633 C   0  0  0  0  0  0  0  0  0  0  0  0
    2.5571    1.3563   -1.9505 N   0  0  0  0  0  0  0  0  0  0  0  0
    3.8542    1.3280   -2.1695 N   0  0  0  0  0  0  0  0  0  0  0  0
    0.8765    0.4476   -0.3591 C   0  0  0  0  0  0  0  0  0  0  0  0
   -0.2180    1.0421   -0.9640 C   0  0  0  0  0  0  0  0  0  0  0  0
   -1.3936    0.7450   -0.3192 C   0  0  0  0  0  0  0  0  0  0  0  0
   -1.0235   -0.0664    0.7298 C   0  0  0  0  0  0  0  0  0  0  0  0
    0.2949   -0.1985    0.6504 N   0  0  0  0  0  0  0  0  0  0  0  0
   -2.0021   -0.5365    1.5750 C   0  0  0  0  0  0  0  0  0  0  0  0
   -3.3180   -0.2096    1.3844 C   0  0  0  0  0  0  0  0  0  0  0  0
   -3.7234    0.6066    0.3357 C   0  0  0  0  0  0  0  0  0  0  0  0
   -5.1236    1.0211    0.0378 C   0  0  0  0  0  0  0  0  0  0  0  0
   -5.7689    0.1080   -0.8416 N   0  0  0  0  0  0  0  0  0  0  0  0
   -5.9035   -1.2331   -0.3921 C   0  0  0  0  0  0  0  0  0  0  0  0
   -6.8658   -1.3680    0.7391 C   0  0  0  0  0  0  0  0  0  0  0  0
   -8.0321   -0.4403    0.6562 C   0  0  0  0  0  0  0  0  0  0  0  0
   -8.2389    0.1762   -0.6848 C   0  0  0  0  0  0  0  0  0  0  0  0
   -6.9914    0.6045   -1.3720 C   0  0  0  0  0  0  0  0  0  0  0  0
   -2.7226    1.0624   -0.4941 C   0  0  0  0  0  0  0  0  0  0  0  0
    8.5238    2.7687    1.2388 H   0  0  0  0  0  0  0  0  0  0  0  0
    9.9705    1.3291    0.3556 H   0  0  0  0  0  0  0  0  0  0  0  0
    8.4034    1.4832   -0.5445 H   0  0  0  0  0  0  0  0  0  0  0  0
    9.4572   -3.2904    1.2693 H   0  0  0  0  0  0  0  0  0  0  0  0
    6.5510    0.5655   -1.6635 H   0  0  0  0  0  0  0  0  0  0  0  0
    3.0411   -1.0393    1.2660 H   0  0  0  0  0  0  0  0  0  0  0  0
    5.3063   -1.6740    1.6939 H   0  0  0  0  0  0  0  0  0  0  0  0
    4.2903    1.8371   -2.9607 H   0  0  0  0  0  0  0  0  0  0  0  0
   -0.2511    1.6878   -1.8507 H   0  0  0  0  0  0  0  0  0  0  0  0
    0.8007   -0.7735    1.3454 H   0  0  0  0  0  0  0  0  0  0  0  0
   -1.6985   -1.1721    2.3942 H   0  0  0  0  0  0  0  0  0  0  0  0
   -4.0936   -0.5668    2.0340 H   0  0  0  0  0  0  0  0  0  0  0  0
   -5.6215    1.1312    1.0222 H   0  0  0  0  0  0  0  0  0  0  0  0
   -5.0764    2.0281   -0.4153 H   0  0  0  0  0  0  0  0  0  0  0  0
   -4.8936   -1.5907   -0.1015 H   0  0  0  0  0  0  0  0  0  0  0  0
   -6.2696   -1.8462   -1.2376 H   0  0  0  0  0  0  0  0  0  0  0  0
   -6.3652   -1.2630    1.7415 H   0  0  0  0  0  0  0  0  0  0  0  0
   -7.2014   -2.4473    0.7446 H   0  0  0  0  0  0  0  0  0  0  0  0
   -8.9610   -1.0493    0.8631 H   0  0  0  0  0  0  0  0  0  0  0  0
   -7.9736    0.2975    1.4894 H   0  0  0  0  0  0  0  0  0  0  0  0
   -8.8587    1.1059   -0.5154 H   0  0  0  0  0  0  0  0  0  0  0  0
   -8.8872   -0.4582   -1.3293 H   0  0  0  0  0  0  0  0  0  0  0  0
   -7.0467    0.2314   -2.4359 H   0  0  0  0  0  0  0  0  0  0  0  0
   -6.9098    1.7213   -1.4675 H   0  0  0  0  0  0  0  0  0  0  0  0
   -2.9785    1.7077   -1.3362 H   0  0  0  0  0  0  0  0  0  0  0  0
  1  2  1  0
  2  3  1  0
  3  4  2  0
  4  5  1  0
  5  6  1  0
  6  7  2  0
  7  8  1  0
  8  9  2  0
  9 10  1  0
 10 11  2  0
 11 12  1  0
 12 13  2  0
 11 14  1  0
 14 15  2  0
 15 16  1  0
 14 17  1  0
 17 18  2  0
 18 19  1  0
 19 20  2  0
 20 21  1  0
 20 22  1  0
 22 23  2  0
 23 24  1  0
 24 25  1  0
 25 26  1  0
 26 27  1  0
 27 28  1  0
 28 29  1  0
 29 30  1  0
 30 31  1  0
 24 32  2  0
  7  3  1  0
 13  8  1  0
 21 17  1  0
 31 26  1  0
 16 10  1  0
 32 19  1  0
  1 33  1  0
  2 34  1  0
  2 35  1  0
  5 36  1  0
  9 37  1  0
 12 38  1  0
 13 39  1  0
 16 40  1  0
 18 41  1  0
 21 42  1  0
 22 43  1  0
 23 44  1  0
 25 45  1  0
 25 46  1  0
 27 47  1  0
 27 48  1  0
 28 49  1  0
 28 50  1  0
 29 51  1  0
 29 52  1  0
 30 53  1  0
 30 54  1  0
 31 55  1  0
 31 56  1  0
 32 57  1  0
M  END
$$$$
