
     RDKit          3D

 57 59  0  0  0  0  0  0  0  0999 V2000
   -5.2401   -1.1689    0.5108 C   0  0  0  0  0  0  0  0  0  0  0  0
   -4.4786    0.0131    0.9609 C   0  0  1  0  0  0  0  0  0  0  0  0
   -3.0054   -0.0798    1.0695 C   0  0  0  0  0  0  0  0  0  0  0  0
   -2.2309   -0.3913   -0.1452 C   0  0  1  0  0  0  0  0  0  0  0  0
   -0.7373   -0.4167    0.0786 C   0  0  0  0  0  0  0  0  0  0  0  0
   -0.0857   -1.5588    1.1862 S   0  0  0  0  0  6  0  0  0  0  0  0
   -0.7459   -1.5754    2.5080 O   0  0  0  0  0  0  0  0  0  0  0  0
   -0.2096   -2.9698    0.5943 O   0  0  0  0  0  0  0  0  0  0  0  0
    1.6420   -1.3789    1.3728 N   0  0  0  0  0  0  0  0  0  0  0  0
    2.0012   -0.1040    1.8902 C   0  0  0  0  0  0  0  0  0  0  0  0
    2.8560    0.6811    0.8844 C   0  0  0  0  0  0  0  0  0  0  0  0
    4.0111   -0.0876    0.4909 N   0  0  0  0  0  0  0  0  0  0  0  0
    5.2662    0.4385    0.1428 C   0  0  0  0  0  0  0  0  0  0  0  0
    5.4311    1.7941    0.0417 C   0  0  0  0  0  0  0  0  0  0  0  0
    6.6510    2.3391   -0.2923 C   0  0  0  0  0  0  0  0  0  0  0  0
    7.7168    1.5011   -0.5268 C   0  0  0  0  0  0  0  0  0  0  0  0
    8.9212    2.0551   -0.8573 F   0  0  0  0  0  0  0  0  0  0  0  0
    7.5774    0.1341   -0.4318 C   0  0  0  0  0  0  0  0  0  0  0  0
    6.3337   -0.3846   -0.0928 C   0  0  0  0  0  0  0  0  0  0  0  0
    3.8347   -1.5405    0.4523 C   0  0  0  0  0  0  0  0  0  0  0  0
    2.3458   -1.7700    0.1965 C   0  0  0  0  0  0  0  0  0  0  0  0
   -2.6112   -1.5462   -0.8861 N   0  0  0  0  0  0  0  0  0  0  0  0
   -2.8303   -1.3679   -2.2389 O   0  0  0  0  0  0  0  0  0  0  0  0
   -2.7965   -2.8621   -0.4299 C   0  0  0  0  0  0  0  0  0  0  0  0
   -3.0816   -3.8207   -1.2309 O   0  0  0  0  0  0  0  0  0  0  0  0
   -4.8728    1.1476    0.0447 C   0  0  0  0  0  0  0  0  0  0  0  0
   -4.5803    1.0945   -1.2674 N   0  0  0  0  0  0  0  0  0  0  0  0
   -4.9129    2.0825   -2.1176 C   0  0  0  0  0  0  0  0  0  0  0  0
   -5.5798    3.2033   -1.6501 C   0  0  0  0  0  0  0  0  0  0  0  0
   -5.9170    4.2027   -2.5069 F   0  0  0  0  0  0  0  0  0  0  0  0
   -5.8724    3.2503   -0.3219 C   0  0  0  0  0  0  0  0  0  0  0  0
   -5.5161    2.2347    0.4807 N   0  0  0  0  0  0  0  0  0  0  0  0
   -5.2089   -1.3537   -0.5820 H   0  0  0  0  0  0  0  0  0  0  0  0
   -5.0826   -2.1003    1.0798 H   0  0  0  0  0  0  0  0  0  0  0  0
   -6.3469   -0.9478    0.6916 H   0  0  0  0  0  0  0  0  0  0  0  0
   -4.8665    0.3368    1.9779 H   0  0  0  0  0  0  0  0  0  0  0  0
   -2.6592    0.9432    1.4178 H   0  0  0  0  0  0  0  0  0  0  0  0
   -2.7340   -0.7264    1.9527 H   0  0  0  0  0  0  0  0  0  0  0  0
   -2.3111    0.5035   -0.8799 H   0  0  0  0  0  0  0  0  0  0  0  0
   -0.2222   -0.4179   -0.9259 H   0  0  0  0  0  0  0  0  0  0  0  0
   -0.4834    0.6273    0.4827 H   0  0  0  0  0  0  0  0  0  0  0  0
    2.6420   -0.2457    2.7849 H   0  0  0  0  0  0  0  0  0  0  0  0
    1.1369    0.5251    2.1704 H   0  0  0  0  0  0  0  0  0  0  0  0
    2.2628    0.9689    0.0063 H   0  0  0  0  0  0  0  0  0  0  0  0
    3.2209    1.6154    1.3749 H   0  0  0  0  0  0  0  0  0  0  0  0
    4.6153    2.4947    0.2166 H   0  0  0  0  0  0  0  0  0  0  0  0
    6.7778    3.4182   -0.3715 H   0  0  0  0  0  0  0  0  0  0  0  0
    8.4230   -0.5321   -0.6178 H   0  0  0  0  0  0  0  0  0  0  0  0
    6.2859   -1.4764   -0.0314 H   0  0  0  0  0  0  0  0  0  0  0  0
    4.1636   -1.9899    1.3894 H   0  0  0  0  0  0  0  0  0  0  0  0
    4.3648   -1.9616   -0.4429 H   0  0  0  0  0  0  0  0  0  0  0  0
    2.1899   -2.8459    0.0178 H   0  0  0  0  0  0  0  0  0  0  0  0
    2.0587   -1.1293   -0.6655 H   0  0  0  0  0  0  0  0  0  0  0  0
   -3.7073   -1.8105   -2.4111 H   0  0  0  0  0  0  0  0  0  0  0  0
   -2.7292   -3.2050    0.5999 H   0  0  0  0  0  0  0  0  0  0  0  0
   -4.6830    2.0511   -3.1754 H   0  0  0  0  0  0  0  0  0  0  0  0
   -6.3905    4.1097    0.0704 H   0  0  0  0  0  0  0  0  0  0  0  0
  1  2  1  0
  2  3  1  0
  3  4  1  0
  4  5  1  0
  5  6  1  0
  6  7  2  0
  6  8  2  0
  6  9  1  0
  9 10  1  0
 10 11  1  0
 11 12  1  0
 12 13  1  0
 13 14  2  0
 14 15  1  0
 15 16  2  0
 16 17  1  0
 16 18  1  0
 18 19  2  0
 12 20  1  0
 20 21  1  0
  4 22  1  0
 22 23  1  0
 22 24  1  0
 24 25  2  0
  2 26  1  0
 26 27  2  0
 27 28  1  0
 28 29  2  0
 29 30  1  0
 29 31  1  0
 31 32  2  0
 21  9  1  0
 32 26  1  0
 19 13  1  0
  1 33  1  0
  1 34  1  0
  1 35  1  0
  2 36  1  1
  3 37  1  0
  3 38  1  0
  4 39  1  6
  5 40  1  0
  5 41  1  0
 10 42  1  0
 10 43  1  0
 11 44  1  0
 11 45  1  0
 14 46  1  0
 15 47  1  0
 18 48  1  0
 19 49  1  0
 20 50  1  0
 20 51  1  0
 21 52  1  0
 21 53  1  0
 23 54  1  0
 24 55  1  0
 28 56  1  0
 31 57  1  0
M  END
$$$$
