@<TRIPOS>MOLECULE
*****
 57 59 0 0 0
SMALL
GASTEIGER

@<TRIPOS>ATOM
      1 C          -5.2401   -1.1689    0.5108 C.3     1  UNL1       -0.0554
      2 C          -4.4786    0.0131    0.9609 C.3     1  UNL1        0.0179
      3 C          -3.0054   -0.0798    1.0695 C.3     1  UNL1       -0.0209
      4 C          -2.2309   -0.3913   -0.1452 C.3     1  UNL1        0.0740
      5 C          -0.7373   -0.4167    0.0786 C.3     1  UNL1        0.1028
      6 S          -0.0857   -1.5588    1.1862 S.O2    1  UNL1        0.0337
      7 O          -0.7459   -1.5754    2.5080 O.2     1  UNL1       -0.1580
      8 O          -0.2096   -2.9698    0.5943 O.2     1  UNL1       -0.1580
      9 N           1.6420   -1.3789    1.3728 N.3     1  UNL1       -0.1781
     10 C           2.0012   -0.1040    1.8902 C.3     1  UNL1        0.0359
     11 C           2.8560    0.6811    0.8844 C.3     1  UNL1        0.0266
     12 N           4.0111   -0.0876    0.4909 N.pl3   1  UNL1       -0.3273
     13 C           5.2662    0.4385    0.1428 C.ar    1  UNL1        0.0299
     14 C           5.4311    1.7941    0.0417 C.ar    1  UNL1       -0.0379
     15 C           6.6510    2.3391   -0.2923 C.ar    1  UNL1       -0.0247
     16 C           7.7168    1.5011   -0.5268 C.ar    1  UNL1        0.1235
     17 F           8.9212    2.0551   -0.8573 F       1  UNL1       -0.2055
     18 C           7.5774    0.1341   -0.4318 C.ar    1  UNL1       -0.0247
     19 C           6.3337   -0.3846   -0.0928 C.ar    1  UNL1       -0.0379
     20 C           3.8347   -1.5405    0.4523 C.3     1  UNL1        0.0266
     21 C           2.3458   -1.7700    0.1965 C.3     1  UNL1        0.0359
     22 N          -2.6112   -1.5462   -0.8861 N.am    1  UNL1       -0.1817
     23 O          -2.8303   -1.3679   -2.2389 O.3     1  UNL1       -0.2924
     24 C          -2.7965   -2.8621   -0.4299 C.2     1  UNL1        0.2253
     25 O          -3.0816   -3.8207   -1.2309 O.2     1  UNL1       -0.2772
     26 C          -4.8728    1.1476    0.0447 C.ar    1  UNL1        0.1320
     27 N          -4.5803    1.0945   -1.2674 N.ar    1  UNL1       -0.2372
     28 C          -4.9129    2.0825   -2.1176 C.ar    1  UNL1        0.0663
     29 C          -5.5798    3.2033   -1.6501 C.ar    1  UNL1        0.1594
     30 F          -5.9170    4.2027   -2.5069 F       1  UNL1       -0.2023
     31 C          -5.8724    3.2503   -0.3219 C.ar    1  UNL1        0.0663
     32 N          -5.5161    2.2347    0.4807 N.ar    1  UNL1       -0.2372
     33 H          -5.2089   -1.3537   -0.5820 H       1  UNL1        0.0236
     34 H          -5.0826   -2.1003    1.0798 H       1  UNL1        0.0236
     35 H          -6.3469   -0.9478    0.6916 H       1  UNL1        0.0236
     36 H          -4.8665    0.3368    1.9779 H       1  UNL1        0.0377
     37 H          -2.6592    0.9432    1.4178 H       1  UNL1        0.0291
     38 H          -2.7340   -0.7264    1.9527 H       1  UNL1        0.0291
     39 H          -2.3111    0.5035   -0.8799 H       1  UNL1        0.0542
     40 H          -0.2222   -0.4179   -0.9259 H       1  UNL1        0.0535
     41 H          -0.4834    0.6273    0.4827 H       1  UNL1        0.0535
     42 H           2.6420   -0.2457    2.7849 H       1  UNL1        0.0459
     43 H           1.1369    0.5251    2.1704 H       1  UNL1        0.0459
     44 H           2.2628    0.9689    0.0063 H       1  UNL1        0.0477
     45 H           3.2209    1.6154    1.3749 H       1  UNL1        0.0477
     46 H           4.6153    2.4947    0.2166 H       1  UNL1        0.0637
     47 H           6.7778    3.4182   -0.3715 H       1  UNL1        0.0647
     48 H           8.4230   -0.5321   -0.6178 H       1  UNL1        0.0647
     49 H           6.2859   -1.4764   -0.0314 H       1  UNL1        0.0637
     50 H           4.1636   -1.9899    1.3894 H       1  UNL1        0.0477
     51 H           4.3648   -1.9616   -0.4429 H       1  UNL1        0.0477
     52 H           2.1899   -2.8459    0.0178 H       1  UNL1        0.0459
     53 H           2.0587   -1.1293   -0.6655 H       1  UNL1        0.0459
     54 H          -3.7073   -1.8105   -2.4111 H       1  UNL1        0.2417
     55 H          -2.7292   -3.2050    0.5999 H       1  UNL1        0.1274
     56 H          -4.6830    2.0511   -3.1754 H       1  UNL1        0.0860
     57 H          -6.3905    4.1097    0.0704 H       1  UNL1        0.0860
@<TRIPOS>BOND
     1     1     2    1
     2     2     3    1
     3     3     4    1
     4     4     5    1
     5     5     6    1
     6     6     7    2
     7     6     8    2
     8     6     9    1
     9     9    10    1
    10    10    11    1
    11    11    12    1
    12    12    13    1
    13    13    14   ar
    14    14    15   ar
    15    15    16   ar
    16    16    17    1
    17    16    18   ar
    18    18    19   ar
    19    12    20    1
    20    20    21    1
    21     4    22    1
    22    22    23    1
    23    22    24   am
    24    24    25    2
    25     2    26    1
    26    26    27   ar
    27    27    28   ar
    28    28    29   ar
    29    29    30    1
    30    29    31   ar
    31    31    32   ar
    32    21     9    1
    33    32    26   ar
    34    19    13   ar
    35     1    33    1
    36     1    34    1
    37     1    35    1
    38     2    36    1
    39     3    37    1
    40     3    38    1
    41     4    39    1
    42     5    40    1
    43     5    41    1
    44    10    42    1
    45    10    43    1
    46    11    44    1
    47    11    45    1
    48    14    46    1
    49    15    47    1
    50    18    48    1
    51    19    49    1
    52    20    50    1
    53    20    51    1
    54    21    52    1
    55    21    53    1
    56    23    54    1
    57    24    55    1
    58    28    56    1
    59    31    57    1
