
     RDKit          3D

 55 58  0  0  0  0  0  0  0  0999 V2000
   -4.1922   -2.1960    0.5267 C   0  0  0  0  0  0  0  0  0  0  0  0
   -3.7657   -0.8174   -0.0095 C   0  0  1  0  0  0  0  0  0  0  0  0
   -2.4495   -0.6984   -0.1167 O   0  0  0  0  0  0  0  0  0  0  0  0
   -1.3390   -0.0364    0.1834 C   0  0  0  0  0  0  0  0  0  0  0  0
   -0.1072   -0.5156   -0.3243 C   0  0  0  0  0  0  0  0  0  0  0  0
    1.0911    0.0887   -0.0767 C   0  0  0  0  0  0  0  0  0  0  0  0
    2.3398   -0.4523   -0.6287 C   0  0  0  0  0  0  0  0  0  0  0  0
    2.5779   -1.1234   -1.8039 C   0  0  0  0  0  0  0  0  0  0  0  0
    3.9078   -1.4161   -1.8544 N   0  0  0  0  0  0  0  0  0  0  0  0
    4.5063   -0.9605   -0.7705 N   0  0  0  0  0  0  0  0  0  0  0  0
    5.9093   -1.0760   -0.4591 C   0  0  0  0  0  0  0  0  0  0  0  0
    6.5674   -2.0151   -1.4452 C   0  0  0  0  0  0  0  0  0  0  0  0
    6.0488   -1.6467    0.9537 C   0  0  0  0  0  0  0  0  0  0  0  0
    6.6289    0.2409   -0.5033 C   0  0  0  0  0  0  0  0  0  0  0  0
    3.5686   -0.3695   -0.0102 C   0  0  0  0  0  0  0  0  0  0  0  0
    1.0784    1.2196    0.7082 C   0  0  0  0  0  0  0  0  0  0  0  0
   -0.1123    1.7286    1.2309 C   0  0  0  0  0  0  0  0  0  0  0  0
   -0.3835    2.7980    2.0097 N   0  0  0  0  0  0  0  0  0  0  0  0
   -1.6667    2.9073    2.2682 N   0  0  0  0  0  0  0  0  0  0  0  0
   -2.3583    3.9156    3.0647 C   0  0  0  0  0  0  0  0  0  0  0  0
   -2.2531    1.8557    1.6239 C   0  0  0  0  0  0  0  0  0  0  0  0
   -1.3086    1.1014    0.9671 C   0  0  0  0  0  0  0  0  0  0  0  0
   -4.4108   -0.7254   -1.4120 C   0  0  1  0  0  0  0  0  0  0  0  0
   -5.9040   -0.8373   -1.2934 C   0  0  0  0  0  0  0  0  0  0  0  0
   -6.2493    0.4519   -0.7096 N   0  0  0  0  0  0  0  0  0  0  0  0
   -5.2420    1.4020   -1.0272 C   0  0  0  0  0  0  0  0  0  0  0  0
   -5.1595    2.5986   -0.6685 O   0  0  0  0  0  0  0  0  0  0  0  0
   -4.2526    0.7085   -1.8981 C   0  0  0  0  0  0  0  0  0  0  0  0
   -4.2648   -2.8978   -0.3413 H   0  0  0  0  0  0  0  0  0  0  0  0
   -5.1235   -2.0943    1.0857 H   0  0  0  0  0  0  0  0  0  0  0  0
   -3.3883   -2.5397    1.2087 H   0  0  0  0  0  0  0  0  0  0  0  0
   -4.2786   -0.0693    0.5954 H   0  0  0  0  0  0  0  0  0  0  0  0
   -0.1307   -1.4151   -0.9446 H   0  0  0  0  0  0  0  0  0  0  0  0
    1.8104   -1.3535   -2.5265 H   0  0  0  0  0  0  0  0  0  0  0  0
    6.5181   -3.0612   -1.0719 H   0  0  0  0  0  0  0  0  0  0  0  0
    6.0511   -1.9086   -2.4177 H   0  0  0  0  0  0  0  0  0  0  0  0
    7.6236   -1.6993   -1.5607 H   0  0  0  0  0  0  0  0  0  0  0  0
    5.6449   -0.8737    1.6396 H   0  0  0  0  0  0  0  0  0  0  0  0
    7.1078   -1.9000    1.1739 H   0  0  0  0  0  0  0  0  0  0  0  0
    5.4035   -2.5595    0.9881 H   0  0  0  0  0  0  0  0  0  0  0  0
    7.7215    0.0079   -0.6469 H   0  0  0  0  0  0  0  0  0  0  0  0
    6.5789    0.7858    0.4629 H   0  0  0  0  0  0  0  0  0  0  0  0
    6.3270    0.8539   -1.3713 H   0  0  0  0  0  0  0  0  0  0  0  0
    3.7335    0.1056    0.9468 H   0  0  0  0  0  0  0  0  0  0  0  0
    2.0149    1.7096    0.9135 H   0  0  0  0  0  0  0  0  0  0  0  0
   -3.3635    4.0350    2.6133 H   0  0  0  0  0  0  0  0  0  0  0  0
   -2.4143    3.6709    4.1235 H   0  0  0  0  0  0  0  0  0  0  0  0
   -1.8544    4.9094    2.9532 H   0  0  0  0  0  0  0  0  0  0  0  0
   -3.3112    1.6667    1.6435 H   0  0  0  0  0  0  0  0  0  0  0  0
   -3.9579   -1.4389   -2.0995 H   0  0  0  0  0  0  0  0  0  0  0  0
   -6.3148   -0.9371   -2.3211 H   0  0  0  0  0  0  0  0  0  0  0  0
   -6.2576   -1.6298   -0.6339 H   0  0  0  0  0  0  0  0  0  0  0  0
   -7.1154    0.6523   -0.1380 H   0  0  0  0  0  0  0  0  0  0  0  0
   -4.6081    0.7677   -2.9430 H   0  0  0  0  0  0  0  0  0  0  0  0
   -3.2220    1.0822   -1.7691 H   0  0  0  0  0  0  0  0  0  0  0  0
  1  2  1  0
  2  3  1  0
  3  4  1  0
  4  5  2  0
  5  6  1  0
  6  7  1  0
  7  8  1  0
  8  9  2  0
  9 10  1  0
 10 11  1  0
 11 12  1  0
 11 13  1  0
 11 14  1  0
 10 15  1  0
  6 16  2  0
 16 17  1  0
 17 18  2  0
 18 19  1  0
 19 20  1  0
 19 21  1  0
 21 22  2  0
  2 23  1  0
 23 24  1  0
 24 25  1  0
 25 26  1  0
 26 27  2  0
 26 28  1  0
 22  4  1  0
 28 23  1  0
 15  7  2  0
 22 17  1  0
  1 29  1  0
  1 30  1  0
  1 31  1  0
  2 32  1  1
  5 33  1  0
  8 34  1  0
 12 35  1  0
 12 36  1  0
 12 37  1  0
 13 38  1  0
 13 39  1  0
 13 40  1  0
 14 41  1  0
 14 42  1  0
 14 43  1  0
 15 44  1  0
 16 45  1  0
 20 46  1  0
 20 47  1  0
 20 48  1  0
 21 49  1  0
 23 50  1  6
 24 51  1  0
 24 52  1  0
 25 53  1  0
 28 54  1  0
 28 55  1  0
M  END
$$$$
