@<TRIPOS>MOLECULE
*****
 55 58 0 0 0
SMALL
GASTEIGER

@<TRIPOS>ATOM
      1 C          -4.1922   -2.1960    0.5267 C.3     1  UNL1       -0.0275
      2 C          -3.7657   -0.8174   -0.0095 C.3     1  UNL1        0.1021
      3 O          -2.4495   -0.6984   -0.1167 O.3     1  UNL1       -0.4880
      4 C          -1.3390   -0.0364    0.1834 C.ar    1  UNL1        0.1321
      5 C          -0.1072   -0.5156   -0.3243 C.ar    1  UNL1       -0.0113
      6 C           1.0911    0.0887   -0.0767 C.ar    1  UNL1       -0.0094
      7 C           2.3398   -0.4523   -0.6287 C.ar    1  UNL1        0.0198
      8 C           2.5779   -1.1234   -1.8039 C.ar    1  UNL1        0.0571
      9 N           3.9078   -1.4161   -1.8544 N.ar    1  UNL1       -0.1786
     10 N           4.5063   -0.9605   -0.7705 N.ar    1  UNL1       -0.2656
     11 C           5.9093   -1.0760   -0.4591 C.3     1  UNL1        0.0553
     12 C           6.5674   -2.0151   -1.4452 C.3     1  UNL1       -0.0403
     13 C           6.0488   -1.6467    0.9537 C.3     1  UNL1       -0.0403
     14 C           6.6289    0.2409   -0.5033 C.3     1  UNL1       -0.0403
     15 C           3.5686   -0.3695   -0.0102 C.ar    1  UNL1        0.0338
     16 C           1.0784    1.2196    0.7082 C.ar    1  UNL1       -0.0259
     17 C          -0.1123    1.7286    1.2309 C.ar    1  UNL1        0.0968
     18 N          -0.3835    2.7980    2.0097 N.ar    1  UNL1       -0.1713
     19 N          -1.6667    2.9073    2.2682 N.ar    1  UNL1       -0.2732
     20 C          -2.3583    3.9156    3.0647 C.3     1  UNL1        0.0302
     21 C          -2.2531    1.8557    1.6239 C.ar    1  UNL1        0.0364
     22 C          -1.3086    1.1014    0.9671 C.ar    1  UNL1        0.0614
     23 C          -4.4108   -0.7254   -1.4120 C.3     1  UNL1        0.0195
     24 C          -5.9040   -0.8373   -1.2934 C.3     1  UNL1        0.0182
     25 N          -6.2493    0.4519   -0.7096 N.am    1  UNL1       -0.3149
     26 C          -5.2420    1.4020   -1.0272 C.2     1  UNL1        0.2135
     27 O          -5.1595    2.5986   -0.6685 O.2     1  UNL1       -0.2758
     28 C          -4.2526    0.7085   -1.8981 C.3     1  UNL1        0.0315
     29 H          -4.2648   -2.8978   -0.3413 H       1  UNL1        0.0265
     30 H          -5.1235   -2.0943    1.0857 H       1  UNL1        0.0265
     31 H          -3.3883   -2.5397    1.2087 H       1  UNL1        0.0265
     32 H          -4.2786   -0.0693    0.5954 H       1  UNL1        0.0733
     33 H          -0.1307   -1.4151   -0.9446 H       1  UNL1        0.0660
     34 H           1.8104   -1.3535   -2.5265 H       1  UNL1        0.0854
     35 H           6.5181   -3.0612   -1.0719 H       1  UNL1        0.0253
     36 H           6.0511   -1.9086   -2.4177 H       1  UNL1        0.0253
     37 H           7.6236   -1.6993   -1.5607 H       1  UNL1        0.0253
     38 H           5.6449   -0.8737    1.6396 H       1  UNL1        0.0253
     39 H           7.1078   -1.9000    1.1739 H       1  UNL1        0.0253
     40 H           5.4035   -2.5595    0.9881 H       1  UNL1        0.0253
     41 H           7.7215    0.0079   -0.6469 H       1  UNL1        0.0253
     42 H           6.5789    0.7858    0.4629 H       1  UNL1        0.0253
     43 H           6.3270    0.8539   -1.3713 H       1  UNL1        0.0253
     44 H           3.7335    0.1056    0.9468 H       1  UNL1        0.0833
     45 H           2.0149    1.7096    0.9135 H       1  UNL1        0.0646
     46 H          -3.3635    4.0350    2.6133 H       1  UNL1        0.0473
     47 H          -2.4143    3.6709    4.1235 H       1  UNL1        0.0473
     48 H          -1.8544    4.9094    2.9532 H       1  UNL1        0.0473
     49 H          -3.3112    1.6667    1.6435 H       1  UNL1        0.0833
     50 H          -3.9579   -1.4389   -2.0995 H       1  UNL1        0.0356
     51 H          -6.3148   -0.9371   -2.3211 H       1  UNL1        0.0466
     52 H          -6.2576   -1.6298   -0.6339 H       1  UNL1        0.0466
     53 H          -7.1154    0.6523   -0.1380 H       1  UNL1        0.1487
     54 H          -4.6081    0.7677   -2.9430 H       1  UNL1        0.0363
     55 H          -3.2220    1.0822   -1.7691 H       1  UNL1        0.0363
@<TRIPOS>BOND
     1     1     2    1
     2     2     3    1
     3     3     4    1
     4     4     5   ar
     5     5     6   ar
     6     6     7    1
     7     7     8   ar
     8     8     9   ar
     9     9    10   ar
    10    10    11    1
    11    11    12    1
    12    11    13    1
    13    11    14    1
    14    10    15   ar
    15     6    16   ar
    16    16    17   ar
    17    17    18   ar
    18    18    19   ar
    19    19    20    1
    20    19    21   ar
    21    21    22   ar
    22     2    23    1
    23    23    24    1
    24    24    25    1
    25    25    26   am
    26    26    27    2
    27    26    28    1
    28    22     4   ar
    29    28    23    1
    30    15     7   ar
    31    22    17   ar
    32     1    29    1
    33     1    30    1
    34     1    31    1
    35     2    32    1
    36     5    33    1
    37     8    34    1
    38    12    35    1
    39    12    36    1
    40    12    37    1
    41    13    38    1
    42    13    39    1
    43    13    40    1
    44    14    41    1
    45    14    42    1
    46    14    43    1
    47    15    44    1
    48    16    45    1
    49    20    46    1
    50    20    47    1
    51    20    48    1
    52    21    49    1
    53    23    50    1
    54    24    51    1
    55    24    52    1
    56    25    53    1
    57    28    54    1
    58    28    55    1
