
     RDKit          3D

 67 71  0  0  0  0  0  0  0  0999 V2000
    9.5531   -0.2410    0.8432 C   0  0  0  0  0  0  0  0  0  0  0  0
    8.5614   -0.9539   -0.0821 C   0  0  0  0  0  0  0  0  0  0  0  0
    9.2216   -2.1756   -0.6806 C   0  0  0  0  0  0  0  0  0  0  0  0
    7.3862   -1.2697    0.6350 O   0  0  0  0  0  0  0  0  0  0  0  0
    6.1781   -0.6678    0.2984 C   0  0  0  0  0  0  0  0  0  0  0  0
    5.0401   -0.9875    1.0091 C   0  0  0  0  0  0  0  0  0  0  0  0
    3.8005   -0.4246    0.7271 C   0  0  0  0  0  0  0  0  0  0  0  0
    2.6544   -0.7714    1.4717 N   0  0  0  0  0  0  0  0  0  0  0  0
    1.4112   -0.1834    1.1620 C   0  0  0  0  0  0  0  0  0  0  0  0
    1.0420    0.9616    1.7594 N   0  0  0  0  0  0  0  0  0  0  0  0
   -0.1303    1.5036    1.4497 C   0  0  0  0  0  0  0  0  0  0  0  0
   -1.0142    0.9162    0.5057 C   0  0  0  0  0  0  0  0  0  0  0  0
   -2.0762    1.7852   -0.0151 C   0  0  0  0  0  0  0  0  0  0  0  0
   -2.5730    1.6643   -1.2839 C   0  0  0  0  0  0  0  0  0  0  0  0
   -3.4584    2.5956   -1.8482 C   0  0  0  0  0  0  0  0  0  0  0  0
   -3.8489    3.6843   -1.1028 C   0  0  0  0  0  0  0  0  0  0  0  0
   -4.7210    4.6275   -1.6077 C   0  0  0  0  0  0  0  0  0  0  0  0
   -5.0912    5.7076   -0.8176 C   0  0  0  0  0  0  0  0  0  0  0  0
   -4.5846    5.8193    0.4496 C   0  0  0  0  0  0  0  0  0  0  0  0
   -3.7263    4.8686    0.9127 C   0  0  0  0  0  0  0  0  0  0  0  0
   -3.3205    3.7758    0.1814 C   0  0  0  0  0  0  0  0  0  0  0  0
   -2.4783    2.8579    0.6744 N   0  0  0  0  0  0  0  0  0  0  0  0
   -0.6325   -0.2360   -0.0717 C   0  0  0  0  0  0  0  0  0  0  0  0
   -1.4926   -1.1499   -0.7262 N   0  0  0  0  0  0  0  0  0  0  0  0
   -2.8901   -1.3028   -0.6684 C   0  0  2  0  0  0  0  0  0  0  0  0
   -3.4103   -1.3529    0.7844 C   0  0  0  0  0  0  0  0  0  0  0  0
   -4.8141   -1.9080    0.5619 C   0  0  2  0  0  0  0  0  0  0  0  0
   -5.2808   -2.6899    1.7724 C   0  0  0  0  0  0  0  0  0  0  0  0
   -4.4567   -3.7593    2.0555 O   0  0  0  0  0  0  0  0  0  0  0  0
   -4.6985   -2.7989   -0.6590 C   0  0  1  0  0  0  0  0  0  0  0  0
   -5.4237   -2.2406   -1.7204 O   0  0  0  0  0  0  0  0  0  0  0  0
   -3.2174   -2.8398   -0.9655 C   0  0  1  0  0  0  0  0  0  0  0  0
   -2.9099   -3.1279   -2.2660 O   0  0  0  0  0  0  0  0  0  0  0  0
    0.6021   -0.7597    0.2790 N   0  0  0  0  0  0  0  0  0  0  0  0
    3.7369    0.4840   -0.3072 C   0  0  0  0  0  0  0  0  0  0  0  0
    4.8685    0.7948   -1.0056 C   0  0  0  0  0  0  0  0  0  0  0  0
    6.0567    0.2250   -0.7002 N   0  0  0  0  0  0  0  0  0  0  0  0
   10.1661   -1.0458    1.3061 H   0  0  0  0  0  0  0  0  0  0  0  0
    8.9805    0.3492    1.5712 H   0  0  0  0  0  0  0  0  0  0  0  0
   10.2233    0.3668    0.2058 H   0  0  0  0  0  0  0  0  0  0  0  0
    8.3322   -0.2032   -0.8836 H   0  0  0  0  0  0  0  0  0  0  0  0
   10.3028   -2.2027   -0.4266 H   0  0  0  0  0  0  0  0  0  0  0  0
    9.1805   -2.1713   -1.7979 H   0  0  0  0  0  0  0  0  0  0  0  0
    8.6994   -3.0935   -0.3479 H   0  0  0  0  0  0  0  0  0  0  0  0
    5.1498   -1.7143    1.8187 H   0  0  0  0  0  0  0  0  0  0  0  0
    2.7491   -1.4681    2.2509 H   0  0  0  0  0  0  0  0  0  0  0  0
   -0.4577    2.4154    1.9062 H   0  0  0  0  0  0  0  0  0  0  0  0
   -2.2787    0.8986   -1.9930 H   0  0  0  0  0  0  0  0  0  0  0  0
   -3.8472    2.4974   -2.8392 H   0  0  0  0  0  0  0  0  0  0  0  0
   -5.1226    4.5376   -2.6144 H   0  0  0  0  0  0  0  0  0  0  0  0
   -5.7745    6.4615   -1.1910 H   0  0  0  0  0  0  0  0  0  0  0  0
   -4.9004    6.6817    1.0391 H   0  0  0  0  0  0  0  0  0  0  0  0
   -3.3281    4.9583    1.9117 H   0  0  0  0  0  0  0  0  0  0  0  0
   -0.9905   -1.8401   -1.4062 H   0  0  0  0  0  0  0  0  0  0  0  0
   -3.5616   -0.8017   -1.3489 H   0  0  0  0  0  0  0  0  0  0  0  0
   -3.4170   -0.3854    1.2707 H   0  0  0  0  0  0  0  0  0  0  0  0
   -2.8096   -2.1272    1.2780 H   0  0  0  0  0  0  0  0  0  0  0  0
   -5.5195   -1.0738    0.3801 H   0  0  0  0  0  0  0  0  0  0  0  0
   -6.3003   -3.0702    1.5574 H   0  0  0  0  0  0  0  0  0  0  0  0
   -5.3828   -2.0153    2.6458 H   0  0  0  0  0  0  0  0  0  0  0  0
   -4.9360   -4.6425    1.9991 H   0  0  0  0  0  0  0  0  0  0  0  0
   -5.0628   -3.8366   -0.4272 H   0  0  0  0  0  0  0  0  0  0  0  0
   -6.1529   -2.8391   -2.0288 H   0  0  0  0  0  0  0  0  0  0  0  0
   -2.7117   -3.4107   -0.1922 H   0  0  0  0  0  0  0  0  0  0  0  0
   -2.6451   -4.0881   -2.3133 H   0  0  0  0  0  0  0  0  0  0  0  0
    2.7595    0.9221   -0.5229 H   0  0  0  0  0  0  0  0  0  0  0  0
    4.7918    1.5105   -1.8122 H   0  0  0  0  0  0  0  0  0  0  0  0
  1  2  1  0
  2  3  1  0
  2  4  1  0
  4  5  1  0
  5  6  2  0
  6  7  1  0
  7  8  1  0
  8  9  1  0
  9 10  2  0
 10 11  1  0
 11 12  2  0
 12 13  1  0
 13 14  2  0
 14 15  1  0
 15 16  2  0
 16 17  1  0
 17 18  2  0
 18 19  1  0
 19 20  2  0
 20 21  1  0
 21 22  2  0
 12 23  1  0
 23 24  1  0
 24 25  1  0
 25 26  1  0
 26 27  1  0
 27 28  1  0
 28 29  1  0
 27 30  1  0
 30 31  1  0
 30 32  1  0
 32 33  1  0
 23 34  2  0
  7 35  2  0
 35 36  1  0
 36 37  2  0
 37  5  1  0
 34  9  1  0
 22 13  1  0
 32 25  1  0
 21 16  1  0
  1 38  1  0
  1 39  1  0
  1 40  1  0
  2 41  1  0
  3 42  1  0
  3 43  1  0
  3 44  1  0
  6 45  1  0
  8 46  1  0
 11 47  1  0
 14 48  1  0
 15 49  1  0
 17 50  1  0
 18 51  1  0
 19 52  1  0
 20 53  1  0
 24 54  1  0
 25 55  1  6
 26 56  1  0
 26 57  1  0
 27 58  1  6
 28 59  1  0
 28 60  1  0
 29 61  1  0
 30 62  1  1
 31 63  1  0
 32 64  1  1
 33 65  1  0
 35 66  1  0
 36 67  1  0
M  END
$$$$
