@<TRIPOS>MOLECULE
*****
 67 71 0 0 0
SMALL
GASTEIGER

@<TRIPOS>ATOM
      1 C           9.5531   -0.2410    0.8432 C.3     1  UNL1       -0.0280
      2 C           8.5614   -0.9539   -0.0821 C.3     1  UNL1        0.0962
      3 C           9.2216   -2.1756   -0.6806 C.3     1  UNL1       -0.0280
      4 O           7.3862   -1.2697    0.6350 O.3     1  UNL1       -0.4736
      5 C           6.1781   -0.6678    0.2984 C.ar    1  UNL1        0.2167
      6 C           5.0401   -0.9875    1.0091 C.ar    1  UNL1        0.0212
      7 C           3.8005   -0.4246    0.7271 C.ar    1  UNL1        0.0400
      8 N           2.6544   -0.7714    1.4717 N.pl3   1  UNL1       -0.2834
      9 C           1.4112   -0.1834    1.1620 C.ar    1  UNL1        0.2212
     10 N           1.0420    0.9616    1.7594 N.ar    1  UNL1       -0.2219
     11 C          -0.1303    1.5036    1.4497 C.ar    1  UNL1        0.0437
     12 C          -1.0142    0.9162    0.5057 C.ar    1  UNL1        0.0583
     13 C          -2.0762    1.7852   -0.0151 C.ar    1  UNL1        0.0764
     14 C          -2.5730    1.6643   -1.2839 C.ar    1  UNL1       -0.0349
     15 C          -3.4584    2.5956   -1.8482 C.ar    1  UNL1       -0.0505
     16 C          -3.8489    3.6843   -1.1028 C.ar    1  UNL1        0.0004
     17 C          -4.7210    4.6275   -1.6077 C.ar    1  UNL1       -0.0526
     18 C          -5.0912    5.7076   -0.8176 C.ar    1  UNL1       -0.0611
     19 C          -4.5846    5.8193    0.4496 C.ar    1  UNL1       -0.0597
     20 C          -3.7263    4.8686    0.9127 C.ar    1  UNL1       -0.0357
     21 C          -3.3205    3.7758    0.1814 C.ar    1  UNL1        0.0717
     22 N          -2.4783    2.8579    0.6744 N.ar    1  UNL1       -0.2465
     23 C          -0.6325   -0.2360   -0.0717 C.ar    1  UNL1        0.1334
     24 N          -1.4926   -1.1499   -0.7262 N.pl3   1  UNL1       -0.3230
     25 C          -2.8901   -1.3028   -0.6684 C.3     1  UNL1        0.0507
     26 C          -3.4103   -1.3529    0.7844 C.3     1  UNL1       -0.0247
     27 C          -4.8141   -1.9080    0.5619 C.3     1  UNL1        0.0124
     28 C          -5.2808   -2.6899    1.7724 C.3     1  UNL1        0.0495
     29 O          -4.4567   -3.7593    2.0555 O.3     1  UNL1       -0.3946
     30 C          -4.6985   -2.7989   -0.6590 C.3     1  UNL1        0.0877
     31 O          -5.4237   -2.2406   -1.7204 O.3     1  UNL1       -0.3888
     32 C          -3.2174   -2.8398   -0.9655 C.3     1  UNL1        0.0996
     33 O          -2.9099   -3.1279   -2.2660 O.3     1  UNL1       -0.3874
     34 N           0.6021   -0.7597    0.2790 N.ar    1  UNL1       -0.1988
     35 C           3.7369    0.4840   -0.3072 C.ar    1  UNL1       -0.0221
     36 C           4.8685    0.7948   -1.0056 C.ar    1  UNL1        0.0331
     37 N           6.0567    0.2250   -0.7002 N.ar    1  UNL1       -0.2212
     38 H          10.1661   -1.0458    1.3061 H       1  UNL1        0.0265
     39 H           8.9805    0.3492    1.5712 H       1  UNL1        0.0265
     40 H          10.2233    0.3668    0.2058 H       1  UNL1        0.0265
     41 H           8.3322   -0.2032   -0.8836 H       1  UNL1        0.0728
     42 H          10.3028   -2.2027   -0.4266 H       1  UNL1        0.0265
     43 H           9.1805   -2.1713   -1.7979 H       1  UNL1        0.0265
     44 H           8.6994   -3.0935   -0.3479 H       1  UNL1        0.0265
     45 H           5.1498   -1.7143    1.8187 H       1  UNL1        0.0689
     46 H           2.7491   -1.4681    2.2509 H       1  UNL1        0.1550
     47 H          -0.4577    2.4154    1.9062 H       1  UNL1        0.0838
     48 H          -2.2787    0.8986   -1.9930 H       1  UNL1        0.0639
     49 H          -3.8472    2.4974   -2.8392 H       1  UNL1        0.0625
     50 H          -5.1226    4.5376   -2.6144 H       1  UNL1        0.0624
     51 H          -5.7745    6.4615   -1.1910 H       1  UNL1        0.0618
     52 H          -4.9004    6.6817    1.0391 H       1  UNL1        0.0618
     53 H          -3.3281    4.9583    1.9117 H       1  UNL1        0.0639
     54 H          -0.9905   -1.8401   -1.4062 H       1  UNL1        0.1479
     55 H          -3.5616   -0.8017   -1.3489 H       1  UNL1        0.0524
     56 H          -3.4170   -0.3854    1.2707 H       1  UNL1        0.0288
     57 H          -2.8096   -2.1272    1.2780 H       1  UNL1        0.0288
     58 H          -5.5195   -1.0738    0.3801 H       1  UNL1        0.0349
     59 H          -6.3003   -3.0702    1.5574 H       1  UNL1        0.0561
     60 H          -5.3828   -2.0153    2.6458 H       1  UNL1        0.0561
     61 H          -4.9360   -4.6425    1.9991 H       1  UNL1        0.2094
     62 H          -5.0628   -3.8366   -0.4272 H       1  UNL1        0.0623
     63 H          -6.1529   -2.8391   -2.0288 H       1  UNL1        0.2099
     64 H          -2.7117   -3.4107   -0.1922 H       1  UNL1        0.0638
     65 H          -2.6451   -4.0881   -2.3133 H       1  UNL1        0.2100
     66 H           2.7595    0.9221   -0.5229 H       1  UNL1        0.0651
     67 H           4.7918    1.5105   -1.8122 H       1  UNL1        0.0831
@<TRIPOS>BOND
     1     1     2    1
     2     2     3    1
     3     2     4    1
     4     4     5    1
     5     5     6   ar
     6     6     7   ar
     7     7     8    1
     8     8     9    1
     9     9    10   ar
    10    10    11   ar
    11    11    12   ar
    12    12    13    1
    13    13    14   ar
    14    14    15   ar
    15    15    16   ar
    16    16    17   ar
    17    17    18   ar
    18    18    19   ar
    19    19    20   ar
    20    20    21   ar
    21    21    22   ar
    22    12    23   ar
    23    23    24    1
    24    24    25    1
    25    25    26    1
    26    26    27    1
    27    27    28    1
    28    28    29    1
    29    27    30    1
    30    30    31    1
    31    30    32    1
    32    32    33    1
    33    23    34   ar
    34     7    35   ar
    35    35    36   ar
    36    36    37   ar
    37    37     5   ar
    38    34     9   ar
    39    22    13   ar
    40    32    25    1
    41    21    16   ar
    42     1    38    1
    43     1    39    1
    44     1    40    1
    45     2    41    1
    46     3    42    1
    47     3    43    1
    48     3    44    1
    49     6    45    1
    50     8    46    1
    51    11    47    1
    52    14    48    1
    53    15    49    1
    54    17    50    1
    55    18    51    1
    56    19    52    1
    57    20    53    1
    58    24    54    1
    59    25    55    1
    60    26    56    1
    61    26    57    1
    62    27    58    1
    63    28    59    1
    64    28    60    1
    65    29    61    1
    66    30    62    1
    67    31    63    1
    68    32    64    1
    69    33    65    1
    70    35    66    1
    71    36    67    1
