
     RDKit          3D

 26 28  0  0  0  0  0  0  0  0999 V2000
    4.3059    1.0754   -0.7685 C   0  0  0  0  0  0  0  0  0  0  0  0
    3.1866    0.2482   -0.1867 C   0  0  0  0  0  0  0  0  0  0  0  0
    3.4715   -0.8953    0.4554 N   0  0  0  0  0  0  0  0  0  0  0  0
    2.4917   -1.6378    0.9752 C   0  0  0  0  0  0  0  0  0  0  0  0
    1.1471   -1.2365    0.8598 C   0  0  0  0  0  0  0  0  0  0  0  0
    0.8474   -0.0832    0.2116 C   0  0  0  0  0  0  0  0  0  0  0  0
   -0.4826    0.4472    0.0841 C   0  0  0  0  0  0  0  0  0  0  0  0
   -0.7915    1.8021   -0.1548 C   0  0  0  0  0  0  0  0  0  0  0  0
   -2.1131    1.9527   -0.2624 N   0  0  0  0  0  0  0  0  0  0  0  0
   -2.7032    0.7611   -0.1077 C   0  0  0  0  0  0  0  0  0  0  0  0
   -4.0037    0.3714   -0.1419 C   0  0  0  0  0  0  0  0  0  0  0  0
   -4.4004   -0.9139    0.0224 N   0  0  0  0  0  0  0  0  0  0  0  0
   -3.4527   -1.8479    0.2291 C   0  0  0  0  0  0  0  0  0  0  0  0
   -2.1211   -1.4843    0.2698 C   0  0  0  0  0  0  0  0  0  0  0  0
   -1.6926   -0.1861    0.1082 C   0  0  0  0  0  0  0  0  0  0  0  0
    1.9183    0.6154   -0.2897 N   0  0  0  0  0  0  0  0  0  0  0  0
    3.9785    2.1549   -0.7473 H   0  0  0  0  0  0  0  0  0  0  0  0
    5.2052    1.0159   -0.1472 H   0  0  0  0  0  0  0  0  0  0  0  0
    4.4805    0.8350   -1.8280 H   0  0  0  0  0  0  0  0  0  0  0  0
    2.7711   -2.5502    1.4830 H   0  0  0  0  0  0  0  0  0  0  0  0
    0.4519   -1.8805    1.3333 H   0  0  0  0  0  0  0  0  0  0  0  0
   -0.0216    2.5482   -0.2272 H   0  0  0  0  0  0  0  0  0  0  0  0
   -2.5606    2.8831   -0.4404 H   0  0  0  0  0  0  0  0  0  0  0  0
   -4.7628    1.1490   -0.3123 H   0  0  0  0  0  0  0  0  0  0  0  0
   -3.7406   -2.8883    0.3635 H   0  0  0  0  0  0  0  0  0  0  0  0
   -1.4091   -2.2555    0.4093 H   0  0  0  0  0  0  0  0  0  0  0  0
  1  2  1  0
  2  3  2  0
  3  4  1  0
  4  5  2  0
  5  6  1  0
  6  7  1  0
  7  8  2  0
  8  9  1  0
  9 10  1  0
 10 11  2  0
 11 12  1  0
 12 13  2  0
 13 14  1  0
 14 15  2  0
  6 16  2  0
 16  2  1  0
 15  7  1  0
 15 10  1  0
  1 17  1  0
  1 18  1  0
  1 19  1  0
  4 20  1  0
  5 21  1  0
  8 22  1  0
  9 23  1  0
 11 24  1  0
 13 25  1  0
 14 26  1  0
M  END
$$$$
