@<TRIPOS>MOLECULE
*****
 26 28 0 0 0
SMALL
GASTEIGER

@<TRIPOS>ATOM
      1 C           4.3059    1.0754   -0.7685 C.3     1  UNL1       -0.0046
      2 C           3.1866    0.2482   -0.1867 C.ar    1  UNL1        0.1266
      3 N           3.4715   -0.8953    0.4554 N.ar    1  UNL1       -0.2406
      4 C           2.4917   -1.6378    0.9752 C.ar    1  UNL1        0.0316
      5 C           1.1471   -1.2365    0.8598 C.ar    1  UNL1       -0.0174
      6 C           0.8474   -0.0832    0.2116 C.ar    1  UNL1        0.0765
      7 C          -0.4826    0.4472    0.0841 C.ar    1  UNL1        0.0255
      8 C          -0.7915    1.8021   -0.1548 C.ar    1  UNL1        0.0120
      9 N          -2.1131    1.9527   -0.2624 N.ar    1  UNL1       -0.3588
     10 C          -2.7032    0.7611   -0.1077 C.ar    1  UNL1        0.0655
     11 C          -4.0037    0.3714   -0.1419 C.ar    1  UNL1        0.0514
     12 N          -4.4004   -0.9139    0.0224 N.ar    1  UNL1       -0.2612
     13 C          -3.4527   -1.8479    0.2291 C.ar    1  UNL1        0.0283
     14 C          -2.1211   -1.4843    0.2698 C.ar    1  UNL1       -0.0338
     15 C          -1.6926   -0.1861    0.1082 C.ar    1  UNL1        0.0117
     16 N           1.9183    0.6154   -0.2897 N.ar    1  UNL1       -0.2323
     17 H           3.9785    2.1549   -0.7473 H       1  UNL1        0.0308
     18 H           5.2052    1.0159   -0.1472 H       1  UNL1        0.0308
     19 H           4.4805    0.8350   -1.8280 H       1  UNL1        0.0308
     20 H           2.7711   -2.5502    1.4830 H       1  UNL1        0.0831
     21 H           0.4519   -1.8805    1.3333 H       1  UNL1        0.0654
     22 H          -0.0216    2.5482   -0.2272 H       1  UNL1        0.0814
     23 H          -2.5606    2.8831   -0.4404 H       1  UNL1        0.1654
     24 H          -4.7628    1.1490   -0.3123 H       1  UNL1        0.0851
     25 H          -3.7406   -2.8883    0.3635 H       1  UNL1        0.0830
     26 H          -1.4091   -2.2555    0.4093 H       1  UNL1        0.0639
@<TRIPOS>BOND
     1     1     2    1
     2     2     3   ar
     3     3     4   ar
     4     4     5   ar
     5     5     6   ar
     6     6     7    1
     7     7     8   ar
     8     8     9   ar
     9     9    10   ar
    10    10    11   ar
    11    11    12   ar
    12    12    13   ar
    13    13    14   ar
    14    14    15   ar
    15     6    16   ar
    16    16     2   ar
    17    15     7   ar
    18    15    10   ar
    19     1    17    1
    20     1    18    1
    21     1    19    1
    22     4    20    1
    23     5    21    1
    24     8    22    1
    25     9    23    1
    26    11    24    1
    27    13    25    1
    28    14    26    1
