
     RDKit          3D

 65 68  0  0  0  0  0  0  0  0999 V2000
   -0.0420   -3.0706   -0.5967 C   0  0  0  0  0  0  0  0  0  0  0  0
    0.1776   -1.6688   -1.1472 C   0  0  0  0  0  0  0  0  0  0  0  0
    0.0282   -1.7001   -2.6559 C   0  0  0  0  0  0  0  0  0  0  0  0
   -0.9092   -0.8165   -0.6020 C   0  0  0  0  0  0  0  0  0  0  0  0
   -0.7037    0.2339    0.0698 O   0  0  0  0  0  0  0  0  0  0  0  0
   -2.2653   -1.1786   -0.8336 N   0  0  0  0  0  0  0  0  0  0  0  0
   -3.3815   -0.4031   -0.3369 C   0  0  0  0  0  0  0  0  0  0  0  0
   -3.3968   -0.2864    1.1715 C   0  0  0  0  0  0  0  0  0  0  0  0
   -4.3371    0.8575    1.5093 C   0  0  0  0  0  0  0  0  0  0  0  0
   -5.4388    0.8680    0.4583 C   0  0  0  0  0  0  0  0  0  0  0  0
   -6.5728    1.6559    0.9741 C   0  0  0  0  0  0  0  0  0  0  0  0
   -7.2235    1.2628    2.1710 N   0  0  0  0  0  0  0  0  0  0  0  0
   -6.9710    2.6745    0.3644 O   0  0  0  0  0  0  0  0  0  0  0  0
   -5.8063   -0.5424    0.0909 C   0  0  0  0  0  0  0  0  0  0  0  0
   -4.6639   -1.1054   -0.7319 C   0  0  0  0  0  0  0  0  0  0  0  0
   -4.8366    1.5126   -0.7788 C   0  0  0  0  0  0  0  0  0  0  0  0
   -3.4293    0.9769   -0.9546 C   0  0  0  0  0  0  0  0  0  0  0  0
    1.4917   -1.2244   -0.8356 N   0  0  0  0  0  0  0  0  0  0  0  0
    1.7839   -1.2036    0.5830 C   0  0  0  0  0  0  0  0  0  0  0  0
    3.2773   -1.0766    0.7773 C   0  0  0  0  0  0  0  0  0  0  0  0
    3.8887   -0.1050   -0.0880 N   0  0  0  0  0  0  0  0  0  0  0  0
    5.1369    0.4522    0.3541 C   0  0  0  0  0  0  0  0  0  0  0  0
    5.8262    1.3670   -0.4140 C   0  0  0  0  0  0  0  0  0  0  0  0
    7.0416    1.9209    0.0015 C   0  0  0  0  0  0  0  0  0  0  0  0
    7.5777    1.5481    1.2153 C   0  0  0  0  0  0  0  0  0  0  0  0
    8.8789    2.1158    1.7028 C   0  0  0  0  0  0  0  0  0  0  0  0
    9.2428    1.4040    2.8323 F   0  0  0  0  0  0  0  0  0  0  0  0
    8.6627    3.4226    2.0890 F   0  0  0  0  0  0  0  0  0  0  0  0
    9.8146    2.0502    0.7074 F   0  0  0  0  0  0  0  0  0  0  0  0
    6.8675    0.6314    1.9633 C   0  0  0  0  0  0  0  0  0  0  0  0
    5.7014    0.1208    1.5302 N   0  0  0  0  0  0  0  0  0  0  0  0
    3.3152    0.3098   -1.3277 C   0  0  0  0  0  0  0  0  0  0  0  0
    1.8664   -0.0040   -1.4903 C   0  0  0  0  0  0  0  0  0  0  0  0
   -0.9173   -3.4835   -1.1411 H   0  0  0  0  0  0  0  0  0  0  0  0
   -0.3783   -2.9808    0.4759 H   0  0  0  0  0  0  0  0  0  0  0  0
    0.8401   -3.7081   -0.7137 H   0  0  0  0  0  0  0  0  0  0  0  0
    1.0070   -1.9918   -3.0814 H   0  0  0  0  0  0  0  0  0  0  0  0
   -0.7695   -2.4391   -2.8867 H   0  0  0  0  0  0  0  0  0  0  0  0
   -0.2393   -0.6764   -2.9778 H   0  0  0  0  0  0  0  0  0  0  0  0
   -2.4222   -2.0552   -1.3946 H   0  0  0  0  0  0  0  0  0  0  0  0
   -3.9019   -1.2127    1.5612 H   0  0  0  0  0  0  0  0  0  0  0  0
   -2.4050   -0.1572    1.6155 H   0  0  0  0  0  0  0  0  0  0  0  0
   -4.7800    0.7792    2.5018 H   0  0  0  0  0  0  0  0  0  0  0  0
   -3.7760    1.8011    1.3942 H   0  0  0  0  0  0  0  0  0  0  0  0
   -7.4111    1.9785    2.8961 H   0  0  0  0  0  0  0  0  0  0  0  0
   -7.5113    0.2875    2.3332 H   0  0  0  0  0  0  0  0  0  0  0  0
   -5.9368   -1.1192    1.0288 H   0  0  0  0  0  0  0  0  0  0  0  0
   -6.7450   -0.5803   -0.4801 H   0  0  0  0  0  0  0  0  0  0  0  0
   -4.6257   -2.2005   -0.4868 H   0  0  0  0  0  0  0  0  0  0  0  0
   -4.8736   -0.9650   -1.8033 H   0  0  0  0  0  0  0  0  0  0  0  0
   -5.4690    1.3077   -1.6688 H   0  0  0  0  0  0  0  0  0  0  0  0
   -4.8342    2.6206   -0.6358 H   0  0  0  0  0  0  0  0  0  0  0  0
   -3.2897    0.8321   -2.0514 H   0  0  0  0  0  0  0  0  0  0  0  0
   -2.6837    1.6588   -0.5128 H   0  0  0  0  0  0  0  0  0  0  0  0
    1.2342   -0.4545    1.1506 H   0  0  0  0  0  0  0  0  0  0  0  0
    1.5002   -2.2048    0.9751 H   0  0  0  0  0  0  0  0  0  0  0  0
    3.4274   -0.7593    1.8484 H   0  0  0  0  0  0  0  0  0  0  0  0
    3.8129   -2.0336    0.6531 H   0  0  0  0  0  0  0  0  0  0  0  0
    5.4192    1.6700   -1.3715 H   0  0  0  0  0  0  0  0  0  0  0  0
    7.5705    2.6409   -0.6179 H   0  0  0  0  0  0  0  0  0  0  0  0
    7.2919    0.3361    2.9245 H   0  0  0  0  0  0  0  0  0  0  0  0
    3.9547   -0.0453   -2.1634 H   0  0  0  0  0  0  0  0  0  0  0  0
    3.4039    1.4362   -1.3612 H   0  0  0  0  0  0  0  0  0  0  0  0
    1.2216    0.8572   -1.1986 H   0  0  0  0  0  0  0  0  0  0  0  0
    1.6846   -0.1379   -2.5836 H   0  0  0  0  0  0  0  0  0  0  0  0
  1  2  1  0
  2  3  1  0
  2  4  1  0
  4  5  2  0
  4  6  1  0
  6  7  1  0
  7  8  1  0
  8  9  1  0
  9 10  1  0
 10 11  1  0
 11 12  1  0
 11 13  2  0
 10 14  1  0
 14 15  1  0
 10 16  1  0
 16 17  1  0
  2 18  1  0
 18 19  1  0
 19 20  1  0
 20 21  1  0
 21 22  1  0
 22 23  2  0
 23 24  1  0
 24 25  2  0
 25 26  1  0
 26 27  1  0
 26 28  1  0
 26 29  1  0
 25 30  1  0
 30 31  2  0
 21 32  1  0
 32 33  1  0
 15  7  1  0
 33 18  1  0
 17  7  1  0
 31 22  1  0
  1 34  1  0
  1 35  1  0
  1 36  1  0
  3 37  1  0
  3 38  1  0
  3 39  1  0
  6 40  1  0
  8 41  1  0
  8 42  1  0
  9 43  1  0
  9 44  1  0
 12 45  1  0
 12 46  1  0
 14 47  1  0
 14 48  1  0
 15 49  1  0
 15 50  1  0
 16 51  1  0
 16 52  1  0
 17 53  1  0
 17 54  1  0
 19 55  1  0
 19 56  1  0
 20 57  1  0
 20 58  1  0
 23 59  1  0
 24 60  1  0
 30 61  1  0
 32 62  1  0
 32 63  1  0
 33 64  1  0
 33 65  1  0
M  END
$$$$
