@<TRIPOS>MOLECULE
*****
 65 68 0 0 0
SMALL
GASTEIGER

@<TRIPOS>ATOM
      1 C          -0.0420   -3.0706   -0.5967 C.3     1  UNL1       -0.0383
      2 C           0.1776   -1.6688   -1.1472 C.3     1  UNL1        0.0930
      3 C           0.0282   -1.7001   -2.6559 C.3     1  UNL1       -0.0383
      4 C          -0.9092   -0.8165   -0.6020 C.2     1  UNL1        0.2333
      5 O          -0.7037    0.2339    0.0698 O.2     1  UNL1       -0.2738
      6 N          -2.2653   -1.1786   -0.8336 N.am    1  UNL1       -0.3083
      7 C          -3.3815   -0.4031   -0.3369 C.3     1  UNL1        0.0347
      8 C          -3.3968   -0.2864    1.1715 C.3     1  UNL1       -0.0307
      9 C          -4.3371    0.8575    1.5093 C.3     1  UNL1       -0.0371
     10 C          -5.4388    0.8680    0.4583 C.3     1  UNL1        0.0470
     11 C          -6.5728    1.6559    0.9741 C.2     1  UNL1        0.2167
     12 N          -7.2235    1.2628    2.1710 N.am    1  UNL1       -0.3289
     13 O          -6.9710    2.6745    0.3644 O.2     1  UNL1       -0.2754
     14 C          -5.8063   -0.5424    0.0909 C.3     1  UNL1       -0.0371
     15 C          -4.6639   -1.1054   -0.7319 C.3     1  UNL1       -0.0307
     16 C          -4.8366    1.5126   -0.7788 C.3     1  UNL1       -0.0371
     17 C          -3.4293    0.9769   -0.9546 C.3     1  UNL1       -0.0307
     18 N           1.4917   -1.2244   -0.8356 N.3     1  UNL1       -0.2864
     19 C           1.7839   -1.2036    0.5830 C.3     1  UNL1        0.0157
     20 C           3.2773   -1.0766    0.7773 C.3     1  UNL1        0.0263
     21 N           3.8887   -0.1050   -0.0880 N.pl3   1  UNL1       -0.3127
     22 C           5.1369    0.4522    0.3541 C.ar    1  UNL1        0.1213
     23 C           5.8262    1.3670   -0.4140 C.ar    1  UNL1       -0.0212
     24 C           7.0416    1.9209    0.0015 C.ar    1  UNL1       -0.0454
     25 C           7.5777    1.5481    1.2153 C.ar    1  UNL1        0.0730
     26 C           8.8789    2.1158    1.7028 C.3     1  UNL1        0.4188
     27 F           9.2428    1.4040    2.8323 F       1  UNL1       -0.1658
     28 F           8.6627    3.4226    2.0890 F       1  UNL1       -0.1658
     29 F           9.8146    2.0502    0.7074 F       1  UNL1       -0.1658
     30 C           6.8675    0.6314    1.9633 C.ar    1  UNL1        0.0413
     31 N           5.7014    0.1208    1.5302 N.ar    1  UNL1       -0.2398
     32 C           3.3152    0.3098   -1.3277 C.3     1  UNL1        0.0263
     33 C           1.8664   -0.0040   -1.4903 C.3     1  UNL1        0.0157
     34 H          -0.9173   -3.4835   -1.1411 H       1  UNL1        0.0252
     35 H          -0.3783   -2.9808    0.4759 H       1  UNL1        0.0252
     36 H           0.8401   -3.7081   -0.7137 H       1  UNL1        0.0252
     37 H           1.0070   -1.9918   -3.0814 H       1  UNL1        0.0252
     38 H          -0.7695   -2.4391   -2.8867 H       1  UNL1        0.0252
     39 H          -0.2393   -0.6764   -2.9778 H       1  UNL1        0.0252
     40 H          -2.4222   -2.0552   -1.3946 H       1  UNL1        0.1493
     41 H          -3.9019   -1.2127    1.5612 H       1  UNL1        0.0286
     42 H          -2.4050   -0.1572    1.6155 H       1  UNL1        0.0286
     43 H          -4.7800    0.7792    2.5018 H       1  UNL1        0.0276
     44 H          -3.7760    1.8011    1.3942 H       1  UNL1        0.0276
     45 H          -7.4111    1.9785    2.8961 H       1  UNL1        0.1449
     46 H          -7.5113    0.2875    2.3332 H       1  UNL1        0.1449
     47 H          -5.9368   -1.1192    1.0288 H       1  UNL1        0.0276
     48 H          -6.7450   -0.5803   -0.4801 H       1  UNL1        0.0276
     49 H          -4.6257   -2.2005   -0.4868 H       1  UNL1        0.0286
     50 H          -4.8736   -0.9650   -1.8033 H       1  UNL1        0.0286
     51 H          -5.4690    1.3077   -1.6688 H       1  UNL1        0.0276
     52 H          -4.8342    2.6206   -0.6358 H       1  UNL1        0.0276
     53 H          -3.2897    0.8321   -2.0514 H       1  UNL1        0.0286
     54 H          -2.6837    1.6588   -0.5128 H       1  UNL1        0.0286
     55 H           1.2342   -0.4545    1.1506 H       1  UNL1        0.0442
     56 H           1.5002   -2.2048    0.9751 H       1  UNL1        0.0442
     57 H           3.4274   -0.7593    1.8484 H       1  UNL1        0.0477
     58 H           3.8129   -2.0336    0.6531 H       1  UNL1        0.0477
     59 H           5.4192    1.6700   -1.3715 H       1  UNL1        0.0652
     60 H           7.5705    2.6409   -0.6179 H       1  UNL1        0.0625
     61 H           7.2919    0.3361    2.9245 H       1  UNL1        0.0836
     62 H           3.9547   -0.0453   -2.1634 H       1  UNL1        0.0477
     63 H           3.4039    1.4362   -1.3612 H       1  UNL1        0.0477
     64 H           1.2216    0.8572   -1.1986 H       1  UNL1        0.0442
     65 H           1.6846   -0.1379   -2.5836 H       1  UNL1        0.0442
@<TRIPOS>BOND
     1     1     2    1
     2     2     3    1
     3     2     4    1
     4     4     5    2
     5     4     6   am
     6     6     7    1
     7     7     8    1
     8     8     9    1
     9     9    10    1
    10    10    11    1
    11    11    12   am
    12    11    13    2
    13    10    14    1
    14    14    15    1
    15    10    16    1
    16    16    17    1
    17     2    18    1
    18    18    19    1
    19    19    20    1
    20    20    21    1
    21    21    22    1
    22    22    23   ar
    23    23    24   ar
    24    24    25   ar
    25    25    26    1
    26    26    27    1
    27    26    28    1
    28    26    29    1
    29    25    30   ar
    30    30    31   ar
    31    21    32    1
    32    32    33    1
    33    15     7    1
    34    33    18    1
    35    17     7    1
    36    31    22   ar
    37     1    34    1
    38     1    35    1
    39     1    36    1
    40     3    37    1
    41     3    38    1
    42     3    39    1
    43     6    40    1
    44     8    41    1
    45     8    42    1
    46     9    43    1
    47     9    44    1
    48    12    45    1
    49    12    46    1
    50    14    47    1
    51    14    48    1
    52    15    49    1
    53    15    50    1
    54    16    51    1
    55    16    52    1
    56    17    53    1
    57    17    54    1
    58    19    55    1
    59    19    56    1
    60    20    57    1
    61    20    58    1
    62    23    59    1
    63    24    60    1
    64    30    61    1
    65    32    62    1
    66    32    63    1
    67    33    64    1
    68    33    65    1
