@<TRIPOS>MOLECULE
*****
 30 31 0 0 0
SMALL
GASTEIGER

@<TRIPOS>ATOM
      1 O          -1.6314   -1.5496    1.7713 O.2     1  UNL1       -0.2873
      2 C          -1.6508   -0.7419    0.8301 C.2     1  UNL1        0.1861
      3 C          -0.3719   -0.3168    0.2615 C.2     1  UNL1       -0.0138
      4 C           0.7636   -0.7760    0.7325 C.2     1  UNL1       -0.0508
      5 C           2.0629   -0.4080    0.2293 C.ar    1  UNL1       -0.0212
      6 C           3.1889   -0.9713    0.8223 C.ar    1  UNL1       -0.0509
      7 C           4.4573   -0.6660    0.3940 C.ar    1  UNL1       -0.0160
      8 C           4.6874    0.2112   -0.6423 C.ar    1  UNL1        0.1582
      9 O           5.9861    0.5158   -1.0715 O.3     1  UNL1       -0.5033
     10 C           3.5818    0.7760   -1.2382 C.ar    1  UNL1        0.1588
     11 O           3.7890    1.6555   -2.2760 O.3     1  UNL1       -0.5033
     12 C           2.2917    0.4677   -0.8052 C.ar    1  UNL1       -0.0094
     13 C          -2.9165   -0.2399    0.3165 C.ar    1  UNL1        0.0217
     14 C          -4.0970   -0.6824    0.9000 C.ar    1  UNL1       -0.0509
     15 C          -5.3346   -0.2526    0.4691 C.ar    1  UNL1       -0.0611
     16 C          -5.4530    0.6455   -0.5719 C.ar    1  UNL1       -0.0617
     17 C          -4.2805    1.0845   -1.1509 C.ar    1  UNL1       -0.0611
     18 C          -3.0374    0.6489   -0.7135 C.ar    1  UNL1       -0.0509
     19 H          -0.3453    0.3857   -0.5596 H       1  UNL1        0.0656
     20 H           0.6949   -1.4881    1.5672 H       1  UNL1        0.0625
     21 H           3.0789   -1.6787    1.6538 H       1  UNL1        0.0625
     22 H           5.3500   -1.1042    0.8544 H       1  UNL1        0.0655
     23 H           6.7191    0.3715   -0.3882 H       1  UNL1        0.2923
     24 H           4.2300    1.4187   -3.1538 H       1  UNL1        0.2923
     25 H           1.4334    0.9276   -1.2928 H       1  UNL1        0.0661
     26 H          -4.0130   -1.3977    1.7298 H       1  UNL1        0.0625
     27 H          -6.2274   -0.6324    0.9630 H       1  UNL1        0.0618
     28 H          -6.4288    0.9759   -0.9019 H       1  UNL1        0.0618
     29 H          -4.3745    1.7960   -1.9756 H       1  UNL1        0.0618
     30 H          -2.1528    1.0254   -1.2030 H       1  UNL1        0.0625
@<TRIPOS>BOND
     1     1     2    2
     2     2     3    1
     3     3     4    2
     4     4     5    1
     5     5     6   ar
     6     6     7   ar
     7     7     8   ar
     8     8     9    1
     9     8    10   ar
    10    10    11    1
    11    10    12   ar
    12     2    13    1
    13    13    14   ar
    14    14    15   ar
    15    15    16   ar
    16    16    17   ar
    17    17    18   ar
    18    12     5   ar
    19    18    13   ar
    20     3    19    1
    21     4    20    1
    22     6    21    1
    23     7    22    1
    24     9    23    1
    25    11    24    1
    26    12    25    1
    27    14    26    1
    28    15    27    1
    29    16    28    1
    30    17    29    1
    31    18    30    1
