@<TRIPOS>MOLECULE
*****
 64 66 0 0 0
SMALL
GASTEIGER

@<TRIPOS>ATOM
      1 C          -8.6363    0.1361   -1.0833 C.3     1  UNL1        0.0386
      2 C          -7.1725    0.1267   -1.3150 C.2     1  UNL1        0.2769
      3 N          -6.6685    0.7752   -2.2945 N.2     1  UNL1       -0.1041
      4 N          -6.3841   -0.6420   -0.3881 N.pl3   1  UNL1       -0.2264
      5 C          -6.4313   -2.0799   -0.4645 C.3     1  UNL1        0.0693
      6 C          -5.5587    0.0097    0.6017 C.3     1  UNL1        0.0926
      7 C          -4.1118   -0.2204    0.2617 C.3     1  UNL1        0.0350
      8 N          -3.8114   -1.6103    0.3016 N.3     1  UNL1       -0.2976
      9 C          -3.8291   -2.1815    1.6125 C.3     1  UNL1       -0.0123
     10 C          -2.6125   -2.0050   -0.3891 C.3     1  UNL1        0.0239
     11 C          -1.3875   -1.3331    0.1696 C.ar    1  UNL1       -0.0333
     12 C          -0.6455   -1.8681    1.1855 C.ar    1  UNL1       -0.0566
     13 C           0.4893   -1.2240    1.6933 C.ar    1  UNL1       -0.0493
     14 C           0.8733   -0.0054    1.1494 C.ar    1  UNL1        0.0370
     15 C           2.0280    0.7045    1.6397 C.2     1  UNL1        0.2483
     16 O           2.6707    0.1996    2.6236 O.2     1  UNL1       -0.2699
     17 N           2.5462    1.9242    1.1481 N.am    1  UNL1       -0.2808
     18 C           3.6836    2.5771    1.6726 C.ar    1  UNL1        0.0459
     19 C           3.6490    3.5111    2.6847 C.ar    1  UNL1       -0.0384
     20 C           4.7670    4.1406    3.1781 C.ar    1  UNL1       -0.0416
     21 C           5.9833    3.8072    2.6176 C.ar    1  UNL1        0.0418
     22 CL          7.4438    4.5795    3.2067 Cl      1  UNL1       -0.0835
     23 C           6.0651    2.8771    1.6009 C.ar    1  UNL1       -0.0295
     24 C           4.9184    2.2746    1.1420 C.ar    1  UNL1        0.0596
     25 C           4.9933    1.2864    0.0818 C.2     1  UNL1        0.2511
     26 O           3.9451    0.7022   -0.3378 O.2     1  UNL1       -0.2697
     27 N           6.1943    0.8905   -0.5645 N.am    1  UNL1       -0.2663
     28 C           6.2542   -0.0864   -1.6022 C.ar    1  UNL1        0.1252
     29 C           6.1326    0.1626   -2.9306 C.ar    1  UNL1       -0.0201
     30 C           6.2172   -0.8820   -3.8256 C.ar    1  UNL1       -0.0387
     31 C           6.4229   -2.1723   -3.3892 C.ar    1  UNL1        0.0592
     32 CL          6.5235   -3.4791   -4.5704 Cl      1  UNL1       -0.0820
     33 C           6.5427   -2.4010   -2.0436 C.ar    1  UNL1        0.0480
     34 N           6.4553   -1.3608   -1.2039 N.ar    1  UNL1       -0.2387
     35 C           0.1163    0.5096    0.1344 C.ar    1  UNL1       -0.0493
     36 C          -1.0079   -0.1221   -0.3731 C.ar    1  UNL1       -0.0566
     37 H          -8.9996   -0.9192   -1.0377 H       1  UNL1        0.0351
     38 H          -9.1382    0.6109   -1.9553 H       1  UNL1        0.0351
     39 H          -8.9099    0.6241   -0.1282 H       1  UNL1        0.0351
     40 H          -5.6700    0.8254   -2.5298 H       1  UNL1        0.3629
     41 H          -5.5629   -2.5118   -0.9657 H       1  UNL1        0.0689
     42 H          -6.4962   -2.4912    0.5589 H       1  UNL1        0.0689
     43 H          -7.3233   -2.3681   -1.0773 H       1  UNL1        0.0689
     44 H          -5.7500    1.1093    0.5391 H       1  UNL1        0.0739
     45 H          -5.8243   -0.3512    1.6266 H       1  UNL1        0.0739
     46 H          -3.4384    0.3848    0.9291 H       1  UNL1        0.0463
     47 H          -3.9721    0.2243   -0.7601 H       1  UNL1        0.0463
     48 H          -4.7805   -2.0096    2.1305 H       1  UNL1        0.0391
     49 H          -2.9985   -1.7568    2.2389 H       1  UNL1        0.0391
     50 H          -3.7039   -3.2925    1.5052 H       1  UNL1        0.0391
     51 H          -2.5397   -3.1072   -0.3363 H       1  UNL1        0.0476
     52 H          -2.6692   -1.7519   -1.4861 H       1  UNL1        0.0476
     53 H          -0.9554   -2.8304    1.6067 H       1  UNL1        0.0621
     54 H           1.0330   -1.6860    2.4878 H       1  UNL1        0.0625
     55 H           2.0173    2.3494    0.3263 H       1  UNL1        0.1552
     56 H           2.6935    3.7658    3.1176 H       1  UNL1        0.0637
     57 H           4.6449    4.8555    3.9710 H       1  UNL1        0.0633
     58 H           7.0358    2.6553    1.2007 H       1  UNL1        0.0640
     59 H           7.0945    1.3267   -0.2806 H       1  UNL1        0.1566
     60 H           5.9719    1.1833   -3.2537 H       1  UNL1        0.0652
     61 H           6.1176   -0.6713   -4.9018 H       1  UNL1        0.0634
     62 H           6.7057   -3.4244   -1.7123 H       1  UNL1        0.0845
     63 H           0.3693    1.4524   -0.3239 H       1  UNL1        0.0625
     64 H          -1.6093    0.2835   -1.1764 H       1  UNL1        0.0621
@<TRIPOS>BOND
     1     1     2    1
     2     2     3    2
     3     2     4    1
     4     4     5    1
     5     4     6    1
     6     6     7    1
     7     7     8    1
     8     8     9    1
     9     8    10    1
    10    10    11    1
    11    11    12   ar
    12    12    13   ar
    13    13    14   ar
    14    14    15    1
    15    15    16    2
    16    15    17   am
    17    17    18    1
    18    18    19   ar
    19    19    20   ar
    20    20    21   ar
    21    21    22    1
    22    21    23   ar
    23    23    24   ar
    24    24    25    1
    25    25    26    2
    26    25    27   am
    27    27    28    1
    28    28    29   ar
    29    29    30   ar
    30    30    31   ar
    31    31    32    1
    32    31    33   ar
    33    33    34   ar
    34    14    35   ar
    35    35    36   ar
    36    36    11   ar
    37    24    18   ar
    38    34    28   ar
    39     1    37    1
    40     1    38    1
    41     1    39    1
    42     3    40    1
    43     5    41    1
    44     5    42    1
    45     5    43    1
    46     6    44    1
    47     6    45    1
    48     7    46    1
    49     7    47    1
    50     9    48    1
    51     9    49    1
    52     9    50    1
    53    10    51    1
    54    10    52    1
    55    12    53    1
    56    13    54    1
    57    17    55    1
    58    19    56    1
    59    20    57    1
    60    23    58    1
    61    27    59    1
    62    29    60    1
    63    30    61    1
    64    33    62    1
    65    35    63    1
    66    36    64    1
