@<TRIPOS>MOLECULE
*****
 37 39 0 0 0
SMALL
GASTEIGER

@<TRIPOS>ATOM
      1 N          -0.3215   -3.2541   -2.3744 N.1     1  UNL1       -0.1876
      2 C          -0.1882   -2.3316   -1.6643 C.1     1  UNL1        0.1401
      3 C          -0.0127   -1.1938   -0.7978 C.ar    1  UNL1        0.2378
      4 N           1.2130   -0.7910   -0.4303 N.ar    1  UNL1       -0.1849
      5 C           1.4314    0.2487    0.3654 C.ar    1  UNL1        0.2249
      6 N           2.7044    0.6761    0.7565 N.pl3   1  UNL1       -0.2833
      7 C           3.9377    0.1301    0.3153 C.ar    1  UNL1        0.0390
      8 C           5.0855    0.3944    1.0735 C.ar    1  UNL1       -0.0050
      9 C           6.2945   -0.0917    0.6818 C.ar    1  UNL1        0.1279
     10 F           7.4402    0.1470    1.3994 F       1  UNL1       -0.2053
     11 C           6.3892   -0.8551   -0.4782 C.ar    1  UNL1        0.0089
     12 C           5.2689   -1.1078   -1.2105 C.ar    1  UNL1        0.1279
     13 F           5.3082   -1.8553   -2.3613 F       1  UNL1       -0.2053
     14 C           4.0296   -0.6194   -0.8248 C.ar    1  UNL1       -0.0050
     15 N           0.3665    0.9632    0.8491 N.ar    1  UNL1       -0.1808
     16 C          -0.8710    0.5739    0.4913 C.ar    1  UNL1        0.2208
     17 N          -2.0146    1.2771    0.9658 N.pl3   1  UNL1       -0.3105
     18 C          -3.3649    0.9580    0.6566 C.3     1  UNL1        0.0233
     19 C          -3.7959   -0.4370    1.0788 C.3     1  UNL1       -0.0345
     20 C          -5.2158   -0.4488    0.4943 C.3     1  UNL1       -0.0513
     21 C          -5.1028    0.3231   -0.8013 C.3     1  UNL1       -0.0513
     22 C          -3.6950    0.9340   -0.8168 C.3     1  UNL1       -0.0345
     23 N          -1.0477   -0.4905   -0.3208 N.ar    1  UNL1       -0.1852
     24 H           2.7968    1.4935    1.4520 H       1  UNL1        0.1550
     25 H           5.0095    0.9786    1.9620 H       1  UNL1        0.0665
     26 H           7.3371   -1.2608   -0.8238 H       1  UNL1        0.0675
     27 H           3.1602   -0.8487   -1.4686 H       1  UNL1        0.0665
     28 H          -1.8484    2.0996    1.5967 H       1  UNL1        0.1492
     29 H          -4.0991    1.6575    1.1197 H       1  UNL1        0.0498
     30 H          -3.7930   -0.5798    2.1637 H       1  UNL1        0.0283
     31 H          -3.1574   -1.1528    0.5264 H       1  UNL1        0.0283
     32 H          -5.8237    0.1814    1.1923 H       1  UNL1        0.0266
     33 H          -5.6060   -1.4616    0.3733 H       1  UNL1        0.0266
     34 H          -5.2422   -0.3553   -1.6675 H       1  UNL1        0.0266
     35 H          -5.8005    1.1743   -0.8600 H       1  UNL1        0.0266
     36 H          -3.7095    1.9448   -1.2706 H       1  UNL1        0.0283
     37 H          -3.0627    0.2197   -1.3427 H       1  UNL1        0.0283
@<TRIPOS>BOND
     1     1     2    3
     2     2     3    1
     3     3     4   ar
     4     4     5   ar
     5     5     6    1
     6     6     7    1
     7     7     8   ar
     8     8     9   ar
     9     9    10    1
    10     9    11   ar
    11    11    12   ar
    12    12    13    1
    13    12    14   ar
    14     5    15   ar
    15    15    16   ar
    16    16    17    1
    17    17    18    1
    18    18    19    1
    19    19    20    1
    20    20    21    1
    21    21    22    1
    22    16    23   ar
    23    23     3   ar
    24    14     7   ar
    25    22    18    1
    26     6    24    1
    27     8    25    1
    28    11    26    1
    29    14    27    1
    30    17    28    1
    31    18    29    1
    32    19    30    1
    33    19    31    1
    34    20    32    1
    35    20    33    1
    36    21    34    1
    37    21    35    1
    38    22    36    1
    39    22    37    1
