
     RDKit          3D

 34 35  0  0  0  0  0  0  0  0999 V2000
    6.1643    0.3445   -0.5736 C   0  0  0  0  0  0  0  0  0  0  0  0
    5.4282   -0.6911    0.0475 O   0  0  0  0  0  0  0  0  0  0  0  0
    4.0762   -0.5389    0.2968 C   0  0  0  0  0  0  0  0  0  0  0  0
    3.4541    0.6322   -0.0665 C   0  0  0  0  0  0  0  0  0  0  0  0
    2.1118    0.8465    0.1535 C   0  0  0  0  0  0  0  0  0  0  0  0
    1.3623   -0.1338    0.7537 C   0  0  0  0  0  0  0  0  0  0  0  0
   -0.0491    0.0986    0.9820 C   0  0  0  0  0  0  0  0  0  0  0  0
   -0.7165   -0.8023    1.5282 O   0  0  0  0  0  0  0  0  0  0  0  0
   -0.6664    1.3615    0.5784 C   0  0  0  0  0  0  0  0  0  0  0  0
   -2.3752    1.5146    0.9037 S   0  0  0  0  0  6  0  0  0  0  0  0
   -2.8146    2.8874    0.4336 O   0  0  0  0  0  0  0  0  0  0  0  0
   -2.6645    1.4889    2.3937 O   0  0  0  0  0  0  0  0  0  0  0  0
   -3.3865    0.3481    0.1403 C   0  0  0  0  0  0  0  0  0  0  0  0
   -3.8655    0.4967   -1.1521 C   0  0  0  0  0  0  0  0  0  0  0  0
   -4.6796   -0.4526   -1.7323 C   0  0  0  0  0  0  0  0  0  0  0  0
   -5.0552   -1.5931   -1.0547 C   0  0  0  0  0  0  0  0  0  0  0  0
   -4.5916   -1.7617    0.2298 C   0  0  0  0  0  0  0  0  0  0  0  0
   -3.7668   -0.7940    0.8096 C   0  0  0  0  0  0  0  0  0  0  0  0
    2.0024   -1.3024    1.1117 C   0  0  0  0  0  0  0  0  0  0  0  0
    3.3276   -1.5258    0.8996 C   0  0  0  0  0  0  0  0  0  0  0  0
    7.2421    0.1092   -0.5917 H   0  0  0  0  0  0  0  0  0  0  0  0
    5.7793    0.5179   -1.6132 H   0  0  0  0  0  0  0  0  0  0  0  0
    5.9736    1.2663    0.0135 H   0  0  0  0  0  0  0  0  0  0  0  0
    4.0194    1.4348   -0.5466 H   0  0  0  0  0  0  0  0  0  0  0  0
    1.6758    1.7646   -0.1433 H   0  0  0  0  0  0  0  0  0  0  0  0
   -0.1592    2.2532    1.0568 H   0  0  0  0  0  0  0  0  0  0  0  0
   -0.5245    1.5742   -0.5242 H   0  0  0  0  0  0  0  0  0  0  0  0
   -3.5642    1.3935   -1.6713 H   0  0  0  0  0  0  0  0  0  0  0  0
   -5.0450   -0.3288   -2.7321 H   0  0  0  0  0  0  0  0  0  0  0  0
   -5.6991   -2.3194   -1.5467 H   0  0  0  0  0  0  0  0  0  0  0  0
   -4.8440   -2.6173    0.8050 H   0  0  0  0  0  0  0  0  0  0  0  0
   -3.4185   -0.9432    1.8189 H   0  0  0  0  0  0  0  0  0  0  0  0
    1.4188   -2.0905    1.5898 H   0  0  0  0  0  0  0  0  0  0  0  0
    3.8501   -2.4379    1.1737 H   0  0  0  0  0  0  0  0  0  0  0  0
  1  2  1  0
  2  3  1  0
  3  4  2  0
  4  5  1  0
  5  6  2  0
  6  7  1  0
  7  8  2  0
  7  9  1  0
  9 10  1  0
 10 11  2  0
 10 12  2  0
 10 13  1  0
 13 14  2  0
 14 15  1  0
 15 16  2  0
 16 17  1  0
 17 18  2  0
  6 19  1  0
 19 20  2  0
 20  3  1  0
 18 13  1  0
  1 21  1  0
  1 22  1  0
  1 23  1  0
  4 24  1  0
  5 25  1  0
  9 26  1  0
  9 27  1  0
 14 28  1  0
 15 29  1  0
 16 30  1  0
 17 31  1  0
 18 32  1  0
 19 33  1  0
 20 34  1  0
M  END
$$$$
