@<TRIPOS>MOLECULE
*****
 34 35 0 0 0
SMALL
GASTEIGER

@<TRIPOS>ATOM
      1 C           6.1643    0.3445   -0.5736 C.3     1  UNL1        0.0788
      2 O           5.4282   -0.6911    0.0475 O.3     1  UNL1       -0.4951
      3 C           4.0762   -0.5389    0.2968 C.ar    1  UNL1        0.1201
      4 C           3.4541    0.6322   -0.0665 C.ar    1  UNL1       -0.0193
      5 C           2.1118    0.8465    0.1535 C.ar    1  UNL1       -0.0478
      6 C           1.3623   -0.1338    0.7537 C.ar    1  UNL1        0.0193
      7 C          -0.0491    0.0986    0.9820 C.2     1  UNL1        0.1844
      8 O          -0.7165   -0.8023    1.5282 O.2     1  UNL1       -0.2903
      9 C          -0.6664    1.3615    0.5784 C.3     1  UNL1        0.1334
     10 S          -2.3752    1.5146    0.9037 S.O2    1  UNL1        0.0041
     11 O          -2.8146    2.8874    0.4336 O.2     1  UNL1       -0.1689
     12 O          -2.6645    1.4889    2.3937 O.2     1  UNL1       -0.1689
     13 C          -3.3865    0.3481    0.1403 C.ar    1  UNL1        0.0887
     14 C          -3.8655    0.4967   -1.1521 C.ar    1  UNL1       -0.0369
     15 C          -4.6796   -0.4526   -1.7323 C.ar    1  UNL1       -0.0600
     16 C          -5.0552   -1.5931   -1.0547 C.ar    1  UNL1       -0.0616
     17 C          -4.5916   -1.7617    0.2298 C.ar    1  UNL1       -0.0600
     18 C          -3.7668   -0.7940    0.8096 C.ar    1  UNL1       -0.0369
     19 C           2.0024   -1.3024    1.1117 C.ar    1  UNL1       -0.0478
     20 C           3.3276   -1.5258    0.8996 C.ar    1  UNL1       -0.0193
     21 H           7.2421    0.1092   -0.5917 H       1  UNL1        0.0660
     22 H           5.7793    0.5179   -1.6132 H       1  UNL1        0.0660
     23 H           5.9736    1.2663    0.0135 H       1  UNL1        0.0660
     24 H           4.0194    1.4348   -0.5466 H       1  UNL1        0.0654
     25 H           1.6758    1.7646   -0.1433 H       1  UNL1        0.0626
     26 H          -0.1592    2.2532    1.0568 H       1  UNL1        0.0587
     27 H          -0.5245    1.5742   -0.5242 H       1  UNL1        0.0587
     28 H          -3.5642    1.3935   -1.6713 H       1  UNL1        0.0636
     29 H          -5.0450   -0.3288   -2.7321 H       1  UNL1        0.0618
     30 H          -5.6991   -2.3194   -1.5467 H       1  UNL1        0.0618
     31 H          -4.8440   -2.6173    0.8050 H       1  UNL1        0.0618
     32 H          -3.4185   -0.9432    1.8189 H       1  UNL1        0.0636
     33 H           1.4188   -2.0905    1.5898 H       1  UNL1        0.0626
     34 H           3.8501   -2.4379    1.1737 H       1  UNL1        0.0654
@<TRIPOS>BOND
     1     1     2    1
     2     2     3    1
     3     3     4   ar
     4     4     5   ar
     5     5     6   ar
     6     6     7    1
     7     7     8    2
     8     7     9    1
     9     9    10    1
    10    10    11    2
    11    10    12    2
    12    10    13    1
    13    13    14   ar
    14    14    15   ar
    15    15    16   ar
    16    16    17   ar
    17    17    18   ar
    18     6    19   ar
    19    19    20   ar
    20    20     3   ar
    21    18    13   ar
    22     1    21    1
    23     1    22    1
    24     1    23    1
    25     4    24    1
    26     5    25    1
    27     9    26    1
    28     9    27    1
    29    14    28    1
    30    15    29    1
    31    16    30    1
    32    17    31    1
    33    18    32    1
    34    19    33    1
    35    20    34    1
