@<TRIPOS>MOLECULE
*****
 57 60 0 0 0
SMALL
GASTEIGER

@<TRIPOS>ATOM
      1 C           0.7213   -0.7438    0.4728 C.3     1  UNL1       -0.0289
      2 C           1.7269   -1.0238    1.5027 C.3     1  UNL1       -0.0437
      3 C           2.9523   -1.2370    0.5946 C.3     1  UNL1       -0.0071
      4 C           2.7065   -2.5286   -0.1377 C.3     1  UNL1       -0.0594
      5 C           2.7855   -0.1114   -0.4419 C.3     1  UNL1        0.1340
      6 O           3.1614   -0.5755   -1.7063 O.3     1  UNL1       -0.3802
      7 C           3.7553    0.9527   -0.0897 C.2     1  UNL1        0.1904
      8 O           4.5218    1.0266   -1.0563 O.2     1  UNL1       -0.2919
      9 C           4.7174    2.0116    0.2651 C.3     1  UNL1        0.1052
     10 O           5.6220    2.1621   -0.7854 O.3     1  UNL1       -0.3874
     11 C           1.3665    0.3206   -0.3868 C.3     1  UNL1        0.0094
     12 C           1.2614    1.7015    0.1936 C.3     1  UNL1       -0.0562
     13 C           0.6410    0.2799   -1.6972 C.3     1  UNL1       -0.0178
     14 C          -0.8297    0.2111   -1.6134 C.3     1  UNL1        0.0600
     15 O          -1.3055    1.5337   -1.7885 O.3     1  UNL1       -0.3914
     16 C          -1.4571   -0.2941   -0.3605 C.3     1  UNL1        0.0009
     17 C          -0.5938   -0.1731    0.8793 C.3     1  UNL1       -0.0284
     18 C          -1.2590   -0.9048    1.9995 C.3     1  UNL1       -0.0143
     19 C          -2.6498   -0.3451    2.1539 C.3     1  UNL1        0.1235
     20 F          -3.2700   -0.8608    3.2974 F       1  UNL1       -0.2407
     21 C          -3.4879   -0.5832    0.9695 C.2     1  UNL1       -0.0226
     22 C          -4.5771   -1.3343    0.9806 C.2     1  UNL1       -0.0122
     23 C          -5.2549   -1.4370   -0.3059 C.2     1  UNL1        0.1788
     24 O          -6.2873   -2.1223   -0.3894 O.2     1  UNL1       -0.2879
     25 C          -4.7582   -0.7600   -1.4978 C.2     1  UNL1       -0.0180
     26 C          -3.6563   -0.0419   -1.3524 C.2     1  UNL1       -0.0701
     27 C          -2.8500    0.1715   -0.1262 C.3     1  UNL1        0.0158
     28 C          -2.9556    1.6434    0.1980 C.3     1  UNL1       -0.0519
     29 H           0.5636   -1.6529   -0.1352 H       1  UNL1        0.0310
     30 H           1.8965   -0.2550    2.2538 H       1  UNL1        0.0272
     31 H           1.5537   -1.9960    2.0129 H       1  UNL1        0.0272
     32 H           3.8879   -1.1801    1.1432 H       1  UNL1        0.0330
     33 H           3.6167   -3.1839   -0.1694 H       1  UNL1        0.0233
     34 H           2.3665   -2.3767   -1.1856 H       1  UNL1        0.0233
     35 H           1.8969   -3.1446    0.3427 H       1  UNL1        0.0233
     36 H           4.1347   -0.7297   -1.7417 H       1  UNL1        0.2108
     37 H           4.2378    2.9864    0.4565 H       1  UNL1        0.0637
     38 H           5.3153    1.7353    1.1783 H       1  UNL1        0.0637
     39 H           5.9227    3.0987   -0.9062 H       1  UNL1        0.2100
     40 H           2.0362    2.3888   -0.2101 H       1  UNL1        0.0236
     41 H           1.2723    1.7696    1.2774 H       1  UNL1        0.0236
     42 H           0.2937    2.1427   -0.1823 H       1  UNL1        0.0236
     43 H           1.0469   -0.6257   -2.2298 H       1  UNL1        0.0297
     44 H           0.9807    1.1440   -2.3087 H       1  UNL1        0.0297
     45 H          -1.2079   -0.3413   -2.5004 H       1  UNL1        0.0596
     46 H          -1.3685    1.7818   -2.7383 H       1  UNL1        0.2098
     47 H          -1.5533   -1.4146   -0.4955 H       1  UNL1        0.0340
     48 H          -0.5594    0.8882    1.1574 H       1  UNL1        0.0308
     49 H          -0.6880   -0.6679    2.9218 H       1  UNL1        0.0299
     50 H          -1.2407   -1.9964    1.8970 H       1  UNL1        0.0299
     51 H          -2.5724    0.7394    2.3489 H       1  UNL1        0.0699
     52 H          -4.8933   -1.8100    1.8973 H       1  UNL1        0.0656
     53 H          -5.2594   -0.8373   -2.4519 H       1  UNL1        0.0653
     54 H          -3.3139    0.4509   -2.2743 H       1  UNL1        0.0582
     55 H          -3.3947    2.2303   -0.6623 H       1  UNL1        0.0241
     56 H          -3.6877    1.8045    1.0160 H       1  UNL1        0.0241
     57 H          -2.0299    2.1139    0.5168 H       1  UNL1        0.0241
@<TRIPOS>BOND
     1     1     2    1
     2     2     3    1
     3     3     4    1
     4     3     5    1
     5     5     6    1
     6     5     7    1
     7     7     8    2
     8     7     9    1
     9     9    10    1
    10     5    11    1
    11    11    12    1
    12    11    13    1
    13    13    14    1
    14    14    15    1
    15    14    16    1
    16    16    17    1
    17    17    18    1
    18    18    19    1
    19    19    20    1
    20    19    21    1
    21    21    22    2
    22    22    23    1
    23    23    24    2
    24    23    25    1
    25    25    26    2
    26    26    27    1
    27    27    28    1
    28    11     1    1
    29    27    16    1
    30    17     1    1
    31    27    21    1
    32     1    29    1
    33     2    30    1
    34     2    31    1
    35     3    32    1
    36     4    33    1
    37     4    34    1
    38     4    35    1
    39     6    36    1
    40     9    37    1
    41     9    38    1
    42    10    39    1
    43    12    40    1
    44    12    41    1
    45    12    42    1
    46    13    43    1
    47    13    44    1
    48    14    45    1
    49    15    46    1
    50    16    47    1
    51    17    48    1
    52    18    49    1
    53    18    50    1
    54    19    51    1
    55    22    52    1
    56    25    53    1
    57    26    54    1
    58    28    55    1
    59    28    56    1
    60    28    57    1
