
     RDKit          3D

 49 52  0  0  0  0  0  0  0  0999 V2000
   -6.6625    2.6520   -0.8229 C   0  0  0  0  0  0  0  0  0  0  0  0
   -5.4677    2.0713   -0.2141 O   0  0  0  0  0  0  0  0  0  0  0  0
   -5.1493    0.7959   -0.5329 C   0  0  0  0  0  0  0  0  0  0  0  0
   -3.9907    1.0418    0.3744 C   0  0  0  0  0  0  0  0  0  0  0  0
   -2.8882    0.2053    0.7807 C   0  0  0  0  0  0  0  0  0  0  0  0
   -2.9782   -1.0364    0.1940 C   0  0  0  0  0  0  0  0  0  0  0  0
   -2.1418   -2.0856    0.4274 C   0  0  0  0  0  0  0  0  0  0  0  0
   -0.9712   -2.0131    1.2628 O   0  0  0  0  0  0  0  0  0  0  0  0
    0.2328   -1.6997    0.6279 C   0  0  0  0  0  0  0  0  0  0  0  0
    1.3900   -1.6413    1.3424 C   0  0  0  0  0  0  0  0  0  0  0  0
    2.6460   -1.3412    0.7496 C   0  0  0  0  0  0  0  0  0  0  0  0
    4.1230   -1.3018    1.6628 Cl  0  0  0  0  0  0  0  0  0  0  0  0
    2.7298   -1.0861   -0.5981 C   0  0  0  0  0  0  0  0  0  0  0  0
    3.9506   -0.8940   -1.3153 N   0  0  0  0  0  0  0  0  0  0  0  0
    5.2930   -0.7424   -0.8511 C   0  0  0  0  0  0  0  0  0  0  0  0
    6.2850   -1.7166   -1.0161 O   0  0  0  0  0  0  0  0  0  0  0  0
    5.3233    0.4140   -0.2957 N   0  0  0  0  0  0  0  0  0  0  0  0
    6.5522    0.8980    0.2556 C   0  0  0  0  0  0  0  0  0  0  0  0
    6.7141    2.4048    0.1133 C   0  0  0  0  0  0  0  0  0  0  0  0
    6.5730    1.7467    1.4821 C   0  0  0  0  0  0  0  0  0  0  0  0
    1.5802   -1.1165   -1.3790 C   0  0  0  0  0  0  0  0  0  0  0  0
    0.4112   -1.4243   -0.7085 C   0  0  0  0  0  0  0  0  0  0  0  0
   -2.1860   -3.3621   -0.0432 C   0  0  0  0  0  0  0  0  0  0  0  0
   -3.2554   -3.6220   -0.9054 C   0  0  0  0  0  0  0  0  0  0  0  0
   -4.1718   -2.6270   -1.2216 N   0  0  0  0  0  0  0  0  0  0  0  0
   -3.9429   -1.4231   -0.6328 C   0  0  0  0  0  0  0  0  0  0  0  0
   -4.8319   -0.4493   -0.8397 C   0  0  0  0  0  0  0  0  0  0  0  0
   -3.7435    2.2238    1.3111 C   0  0  0  0  0  0  0  0  0  0  0  0
   -3.0542    2.8600    2.2970 O   0  0  0  0  0  0  0  0  0  0  0  0
   -4.2505    3.3516    1.5895 N   0  0  0  0  0  0  0  0  0  0  0  0
   -7.3753    2.8001   -0.0419 H   0  0  0  0  0  0  0  0  0  0  0  0
   -6.3481    3.7023   -1.1698 H   0  0  0  0  0  0  0  0  0  0  0  0
   -6.9926    2.0926   -1.6824 H   0  0  0  0  0  0  0  0  0  0  0  0
   -2.0112    0.2664    1.4174 H   0  0  0  0  0  0  0  0  0  0  0  0
    1.4417   -1.8270    2.4331 H   0  0  0  0  0  0  0  0  0  0  0  0
    3.9363   -0.9084   -2.3865 H   0  0  0  0  0  0  0  0  0  0  0  0
    7.0148   -1.7490   -0.3216 H   0  0  0  0  0  0  0  0  0  0  0  0
    7.4858    0.2841    0.0577 H   0  0  0  0  0  0  0  0  0  0  0  0
    5.8441    2.9678   -0.3051 H   0  0  0  0  0  0  0  0  0  0  0  0
    7.7080    2.7949   -0.1254 H   0  0  0  0  0  0  0  0  0  0  0  0
    5.5966    1.8850    2.0034 H   0  0  0  0  0  0  0  0  0  0  0  0
    7.4830    1.7274    2.1066 H   0  0  0  0  0  0  0  0  0  0  0  0
    1.5763   -0.9088   -2.4393 H   0  0  0  0  0  0  0  0  0  0  0  0
   -0.4663   -1.4168   -1.3058 H   0  0  0  0  0  0  0  0  0  0  0  0
   -1.5620   -4.1957    0.1117 H   0  0  0  0  0  0  0  0  0  0  0  0
   -3.4890   -4.5407   -1.3758 H   0  0  0  0  0  0  0  0  0  0  0  0
   -5.7489   -0.5028   -1.5050 H   0  0  0  0  0  0  0  0  0  0  0  0
   -3.1419    2.6243    3.3257 H   0  0  0  0  0  0  0  0  0  0  0  0
   -5.0694    3.8214    1.2084 H   0  0  0  0  0  0  0  0  0  0  0  0
  1  2  1  0
  2  3  1  0
  3  4  2  0
  4  5  1  0
  5  6  2  0
  6  7  1  0
  7  8  1  0
  8  9  1  0
  9 10  2  0
 10 11  1  0
 11 12  1  0
 11 13  2  0
 13 14  1  0
 14 15  1  0
 15 16  1  0
 15 17  2  3
 17 18  1  0
 18 19  1  0
 19 20  1  0
 13 21  1  0
 21 22  2  0
  7 23  2  0
 23 24  1  0
 24 25  2  0
 25 26  1  0
 26 27  2  0
  4 28  1  0
 28 29  1  0
 28 30  2  3
 27  3  1  0
 26  6  1  0
 22  9  1  0
 20 18  1  0
  1 31  1  0
  1 32  1  0
  1 33  1  0
  5 34  1  0
 10 35  1  0
 14 36  1  0
 16 37  1  0
 18 38  1  0
 19 39  1  0
 19 40  1  0
 20 41  1  0
 20 42  1  0
 21 43  1  0
 22 44  1  0
 23 45  1  0
 24 46  1  0
 27 47  1  0
 29 48  1  0
 30 49  1  0
M  END
$$$$
