@<TRIPOS>MOLECULE
*****
 39 39 0 0 0
SMALL
GASTEIGER

@<TRIPOS>ATOM
      1 O           1.9070   -2.0060    1.2900 O.3     1  UNL1       -0.3865
      2 C           0.9264   -1.5335    0.4164 C.3     1  UNL1        0.1127
      3 C          -0.2255   -1.0546    1.2584 C.3     1  UNL1        0.1127
      4 O          -0.6950   -2.0670    2.0509 O.3     1  UNL1       -0.3865
      5 C          -1.2457   -0.5218    0.2603 C.3     1  UNL1        0.1274
      6 O          -2.4486   -0.2102    0.8861 O.3     1  UNL1       -0.2781
      7 P          -3.7528   -1.0807    0.2925 P.3     1  UNL1        0.4728
      8 O          -3.7067   -2.6260    1.0121 O.3     1  UNL1       -0.3026
      9 O          -3.7736   -1.1736   -1.3784 O.3     1  UNL1       -0.3026
     10 O          -5.0260   -0.3989    0.7590 O.2     1  UNL1       -0.2275
     11 C          -0.6440    0.7749   -0.2587 C.3     1  UNL1        0.1275
     12 O          -1.5260    1.6184   -0.8027 O.3     1  UNL1       -0.2781
     13 P          -1.8986    3.0646   -0.1675 P.3     1  UNL1        0.4728
     14 O          -0.7883    3.4693    1.0501 O.3     1  UNL1       -0.3026
     15 O          -2.0741    4.3587   -1.2008 O.3     1  UNL1       -0.3026
     16 O          -3.2495    2.9172    0.5445 O.2     1  UNL1       -0.2275
     17 C           0.5966    0.5035   -1.0736 C.3     1  UNL1        0.1135
     18 O           1.2878    1.7375   -1.0646 O.3     1  UNL1       -0.3864
     19 C           1.5072   -0.4856   -0.4649 C.3     1  UNL1        0.1266
     20 O           2.5610    0.1098    0.2513 O.3     1  UNL1       -0.2781
     21 P           4.0670   -0.2448   -0.3937 P.3     1  UNL1        0.4728
     22 O           4.6358    0.9469   -1.4329 O.3     1  UNL1       -0.3026
     23 O           5.1434   -0.3923    0.9002 O.3     1  UNL1       -0.3026
     24 O           4.0803   -1.5528   -1.1360 O.2     1  UNL1       -0.2275
     25 H           2.2527   -2.8942    1.0268 H       1  UNL1        0.2100
     26 H           0.5867   -2.3989   -0.1872 H       1  UNL1        0.0647
     27 H           0.1021   -0.2078    1.8685 H       1  UNL1        0.0647
     28 H          -0.8629   -2.9107    1.6045 H       1  UNL1        0.2100
     29 H          -1.3416   -1.2836   -0.5180 H       1  UNL1        0.0656
     30 H          -4.1531   -3.2845    0.4484 H       1  UNL1        0.2220
     31 H          -3.1867   -1.9047   -1.7031 H       1  UNL1        0.2220
     32 H          -0.2696    1.2914    0.6663 H       1  UNL1        0.0656
     33 H          -0.5005    4.3972    0.9718 H       1  UNL1        0.2220
     34 H          -1.8189    4.1978   -2.1197 H       1  UNL1        0.2220
     35 H           0.4058    0.3008   -2.1404 H       1  UNL1        0.0647
     36 H           1.5956    1.8141   -0.1055 H       1  UNL1        0.2100
     37 H           2.0134   -1.0527   -1.3019 H       1  UNL1        0.0655
     38 H           3.9916    1.0636   -2.1518 H       1  UNL1        0.2220
     39 H           5.5277   -1.2809    0.9756 H       1  UNL1        0.2220
@<TRIPOS>BOND
     1     1     2    1
     2     2     3    1
     3     3     4    1
     4     3     5    1
     5     5     6    1
     6     6     7    1
     7     7     8    1
     8     7     9    1
     9     7    10    2
    10     5    11    1
    11    11    12    1
    12    12    13    1
    13    13    14    1
    14    13    15    1
    15    13    16    2
    16    11    17    1
    17    17    18    1
    18    17    19    1
    19    19    20    1
    20    20    21    1
    21    21    22    1
    22    21    23    1
    23    21    24    2
    24    19     2    1
    25     1    25    1
    26     2    26    1
    27     3    27    1
    28     4    28    1
    29     5    29    1
    30     8    30    1
    31     9    31    1
    32    11    32    1
    33    14    33    1
    34    15    34    1
    35    17    35    1
    36    18    36    1
    37    19    37    1
    38    22    38    1
    39    23    39    1
