
     RDKit          3D

 39 39  0  0  0  0  0  0  0  0999 V2000
    1.9070   -2.0060    1.2900 O   0  0  0  0  0  0  0  0  0  0  0  0
    0.9264   -1.5335    0.4164 C   0  0  1  0  0  0  0  0  0  0  0  0
   -0.2255   -1.0546    1.2584 C   0  0  2  0  0  0  0  0  0  0  0  0
   -0.6950   -2.0670    2.0509 O   0  0  0  0  0  0  0  0  0  0  0  0
   -1.2457   -0.5218    0.2603 C   0  0  1  0  0  0  0  0  0  0  0  0
   -2.4486   -0.2102    0.8861 O   0  0  0  0  0  0  0  0  0  0  0  0
   -3.7528   -1.0807    0.2925 P   0  0  0  0  0  0  0  0  0  0  0  0
   -3.7067   -2.6260    1.0121 O   0  0  0  0  0  0  0  0  0  0  0  0
   -3.7736   -1.1736   -1.3784 O   0  0  0  0  0  0  0  0  0  0  0  0
   -5.0260   -0.3989    0.7590 O   0  0  0  0  0  0  0  0  0  0  0  0
   -0.6440    0.7749   -0.2587 C   0  0  2  0  0  0  0  0  0  0  0  0
   -1.5260    1.6184   -0.8027 O   0  0  0  0  0  0  0  0  0  0  0  0
   -1.8986    3.0646   -0.1675 P   0  0  0  0  0  0  0  0  0  0  0  0
   -0.7883    3.4693    1.0501 O   0  0  0  0  0  0  0  0  0  0  0  0
   -2.0741    4.3587   -1.2008 O   0  0  0  0  0  0  0  0  0  0  0  0
   -3.2495    2.9172    0.5445 O   0  0  0  0  0  0  0  0  0  0  0  0
    0.5966    0.5035   -1.0736 C   0  0  1  0  0  0  0  0  0  0  0  0
    1.2878    1.7375   -1.0646 O   0  0  0  0  0  0  0  0  0  0  0  0
    1.5072   -0.4856   -0.4649 C   0  0  1  0  0  0  0  0  0  0  0  0
    2.5610    0.1098    0.2513 O   0  0  0  0  0  0  0  0  0  0  0  0
    4.0670   -0.2448   -0.3937 P   0  0  0  0  0  0  0  0  0  0  0  0
    4.6358    0.9469   -1.4329 O   0  0  0  0  0  0  0  0  0  0  0  0
    5.1434   -0.3923    0.9002 O   0  0  0  0  0  0  0  0  0  0  0  0
    4.0803   -1.5528   -1.1360 O   0  0  0  0  0  0  0  0  0  0  0  0
    2.2527   -2.8942    1.0268 H   0  0  0  0  0  0  0  0  0  0  0  0
    0.5867   -2.3989   -0.1872 H   0  0  0  0  0  0  0  0  0  0  0  0
    0.1021   -0.2078    1.8685 H   0  0  0  0  0  0  0  0  0  0  0  0
   -0.8629   -2.9107    1.6045 H   0  0  0  0  0  0  0  0  0  0  0  0
   -1.3416   -1.2836   -0.5180 H   0  0  0  0  0  0  0  0  0  0  0  0
   -4.1531   -3.2845    0.4484 H   0  0  0  0  0  0  0  0  0  0  0  0
   -3.1867   -1.9047   -1.7031 H   0  0  0  0  0  0  0  0  0  0  0  0
   -0.2696    1.2914    0.6663 H   0  0  0  0  0  0  0  0  0  0  0  0
   -0.5005    4.3972    0.9718 H   0  0  0  0  0  0  0  0  0  0  0  0
   -1.8189    4.1978   -2.1197 H   0  0  0  0  0  0  0  0  0  0  0  0
    0.4058    0.3008   -2.1404 H   0  0  0  0  0  0  0  0  0  0  0  0
    1.5956    1.8141   -0.1055 H   0  0  0  0  0  0  0  0  0  0  0  0
    2.0134   -1.0527   -1.3019 H   0  0  0  0  0  0  0  0  0  0  0  0
    3.9916    1.0636   -2.1518 H   0  0  0  0  0  0  0  0  0  0  0  0
    5.5277   -1.2809    0.9756 H   0  0  0  0  0  0  0  0  0  0  0  0
  1  2  1  0
  2  3  1  0
  3  4  1  0
  3  5  1  0
  5  6  1  0
  6  7  1  0
  7  8  1  0
  7  9  1  0
  7 10  2  0
  5 11  1  0
 11 12  1  0
 12 13  1  0
 13 14  1  0
 13 15  1  0
 13 16  2  0
 11 17  1  0
 17 18  1  0
 17 19  1  0
 19 20  1  0
 20 21  1  0
 21 22  1  0
 21 23  1  0
 21 24  2  0
 19  2  1  0
  1 25  1  0
  2 26  1  6
  3 27  1  1
  4 28  1  0
  5 29  1  6
  8 30  1  0
  9 31  1  0
 11 32  1  1
 14 33  1  0
 15 34  1  0
 17 35  1  6
 18 36  1  0
 19 37  1  6
 22 38  1  0
 23 39  1  0
M  END
$$$$
