@<TRIPOS>MOLECULE
*****
 46 48 0 0 0
SMALL
GASTEIGER

@<TRIPOS>ATOM
      1 C           4.9661    0.3789    0.4423 C.3     1  UNL1        0.0050
      2 N           6.3326   -0.0388    0.5291 N.3     1  UNL1       -0.3272
      3 C           4.5054    0.4531   -1.0071 C.3     1  UNL1       -0.0361
      4 C           3.6398   -0.7435   -1.3406 C.3     1  UNL1       -0.0331
      5 C           2.3476   -0.7745   -0.5406 C.3     1  UNL1        0.0221
      6 C           2.6359   -0.2471    0.8336 C.3     1  UNL1       -0.0331
      7 C           4.0683   -0.6106    1.1962 C.3     1  UNL1       -0.0361
      8 N           1.3243   -0.0031   -1.2225 N.pl3   1  UNL1       -0.3261
      9 C          -0.0663    0.2133   -0.9870 C.ar    1  UNL1        0.1246
     10 N          -0.8187    1.0295   -1.7827 N.ar    1  UNL1       -0.2119
     11 C          -2.1202    1.1774   -1.5084 C.ar    1  UNL1        0.1768
     12 C          -3.0008    1.9648   -2.2239 C.ar    1  UNL1        0.1156
     13 C          -4.2074    1.7973   -1.5741 C.ar    1  UNL1        0.0694
     14 N          -3.9870    0.9550   -0.5511 N.ar    1  UNL1       -0.1704
     15 N          -2.7414    0.5652   -0.4859 N.ar    1  UNL1       -0.1992
     16 C          -2.0811   -0.2569    0.3503 C.ar    1  UNL1        0.1260
     17 N          -2.6633   -0.9215    1.4342 N.pl3   1  UNL1       -0.3266
     18 C          -4.0040   -0.8592    1.9020 C.3     1  UNL1        0.0163
     19 C          -4.3714    0.5397    2.3493 C.3     1  UNL1       -0.0469
     20 C          -5.0132   -1.4436    0.9431 C.3     1  UNL1       -0.0469
     21 C          -0.7392   -0.3955    0.0491 C.ar    1  UNL1        0.0180
     22 C          -2.7620    2.7833   -3.3798 C.1     1  UNL1        0.1045
     23 N          -2.5709    3.4392   -4.3274 N.1     1  UNL1       -0.1907
     24 H           4.8193    1.3807    0.8793 H       1  UNL1        0.0458
     25 H           7.0178    0.7241    0.4660 H       1  UNL1        0.1185
     26 H           6.5322   -0.8132   -0.1447 H       1  UNL1        0.1185
     27 H           5.4112    0.3526   -1.6359 H       1  UNL1        0.0281
     28 H           4.0003    1.3997   -1.2258 H       1  UNL1        0.0281
     29 H           4.2295   -1.6647   -1.2424 H       1  UNL1        0.0284
     30 H           3.3763   -0.6472   -2.4175 H       1  UNL1        0.0284
     31 H           1.9729   -1.8124   -0.4451 H       1  UNL1        0.0498
     32 H           2.5920    0.8621    0.8032 H       1  UNL1        0.0284
     33 H           1.9517   -0.6393    1.5990 H       1  UNL1        0.0284
     34 H           4.2789   -1.6029    0.7865 H       1  UNL1        0.0281
     35 H           4.2477   -0.5501    2.2769 H       1  UNL1        0.0281
     36 H           1.6661    0.5156   -2.0776 H       1  UNL1        0.1477
     37 H          -5.1641    2.2394   -1.8108 H       1  UNL1        0.0862
     38 H          -2.0163   -1.5638    1.9868 H       1  UNL1        0.1477
     39 H          -4.1235   -1.4873    2.8365 H       1  UNL1        0.0492
     40 H          -5.3071    0.9203    1.8903 H       1  UNL1        0.0247
     41 H          -3.4846    1.1907    2.1684 H       1  UNL1        0.0247
     42 H          -4.5921    0.5765    3.4591 H       1  UNL1        0.0247
     43 H          -4.6027   -1.7145   -0.0457 H       1  UNL1        0.0247
     44 H          -5.8086   -0.6894    0.7728 H       1  UNL1        0.0247
     45 H          -5.5046   -2.3414    1.3363 H       1  UNL1        0.0247
     46 H          -0.1651   -1.0510    0.6860 H       1  UNL1        0.0686
@<TRIPOS>BOND
     1     1     2    1
     2     1     3    1
     3     3     4    1
     4     4     5    1
     5     5     6    1
     6     6     7    1
     7     5     8    1
     8     8     9    1
     9     9    10   ar
    10    10    11   ar
    11    11    12   ar
    12    12    13   ar
    13    13    14   ar
    14    14    15   ar
    15    15    16   ar
    16    16    17    1
    17    17    18    1
    18    18    19    1
    19    18    20    1
    20    16    21   ar
    21    12    22    1
    22    22    23    3
    23     7     1    1
    24    21     9   ar
    25    15    11   ar
    26     1    24    1
    27     2    25    1
    28     2    26    1
    29     3    27    1
    30     3    28    1
    31     4    29    1
    32     4    30    1
    33     5    31    1
    34     6    32    1
    35     6    33    1
    36     7    34    1
    37     7    35    1
    38     8    36    1
    39    13    37    1
    40    17    38    1
    41    18    39    1
    42    19    40    1
    43    19    41    1
    44    19    42    1
    45    20    43    1
    46    20    44    1
    47    20    45    1
    48    21    46    1
