@<TRIPOS>MOLECULE
*****
 39 42 0 0 0
SMALL
GASTEIGER

@<TRIPOS>ATOM
      1 C          -5.9968    0.5498   -0.4018 C.3     1  UNL1       -0.0241
      2 C          -4.5016    0.4893   -0.3403 C.ar    1  UNL1        0.0195
      3 N          -3.7798    1.3282   -1.1143 N.ar    1  UNL1       -0.3257
      4 C          -2.4343    1.3238   -1.1051 C.ar    1  UNL1        0.2588
      5 O          -1.7678    2.0992   -1.8206 O.2     1  UNL1       -0.2672
      6 C          -1.7537    0.4411   -0.2854 C.ar    1  UNL1        0.0741
      7 C          -2.4959   -0.4202    0.5093 C.ar    1  UNL1       -0.0060
      8 C          -1.8316   -1.3049    1.3308 C.ar    1  UNL1       -0.0515
      9 C          -0.4522   -1.3557    1.3829 C.ar    1  UNL1       -0.0356
     10 C           0.2347   -0.4831    0.5777 C.ar    1  UNL1        0.0682
     11 N           1.5499   -0.2928    0.4063 N.ar    1  UNL1       -0.3258
     12 C           1.7833    0.6691   -0.4833 C.ar    1  UNL1        0.1983
     13 N           3.0431    1.1463   -0.9205 N.pl3   1  UNL1       -0.2828
     14 C           4.2651    0.6148   -0.4238 C.ar    1  UNL1        0.0705
     15 C           4.8782   -0.4631   -1.0538 C.ar    1  UNL1        0.0636
     16 CL          4.0976   -1.1257   -2.4568 Cl      1  UNL1       -0.0816
     17 C           6.0643   -1.0002   -0.5947 C.ar    1  UNL1       -0.0415
     18 C           6.6859   -0.4751    0.5198 C.ar    1  UNL1       -0.0589
     19 C           6.0816    0.5924    1.1462 C.ar    1  UNL1       -0.0415
     20 C           4.8876    1.1378    0.6892 C.ar    1  UNL1        0.0636
     21 CL          4.1561    2.4868    1.5089 Cl      1  UNL1       -0.0816
     22 N           0.5870    1.1153   -0.9009 N.ar    1  UNL1       -0.2136
     23 C          -0.3779    0.4188   -0.2597 C.ar    1  UNL1        0.1036
     24 C          -3.8874   -0.4153    0.4995 C.ar    1  UNL1       -0.0236
     25 C          -4.6545   -1.3324    1.3458 C.3     1  UNL1       -0.0375
     26 H          -6.3048    1.1997   -1.2459 H       1  UNL1        0.0292
     27 H          -6.4260   -0.4606   -0.6279 H       1  UNL1        0.0292
     28 H          -6.3708    0.9659    0.5511 H       1  UNL1        0.0292
     29 H          -4.2920    1.9936   -1.7322 H       1  UNL1        0.1686
     30 H          -2.4558   -1.9632    1.9379 H       1  UNL1        0.0624
     31 H           0.0233   -2.0631    2.0396 H       1  UNL1        0.0639
     32 H           2.3149   -0.8273    0.9040 H       1  UNL1        0.1686
     33 H           3.1120    1.9110   -1.6282 H       1  UNL1        0.1551
     34 H           6.5384   -1.8432   -1.0921 H       1  UNL1        0.0633
     35 H           7.6127   -0.8927    0.8808 H       1  UNL1        0.0618
     36 H           6.5903    0.9874    2.0207 H       1  UNL1        0.0633
     37 H          -4.5002   -1.1780    2.4311 H       1  UNL1        0.0278
     38 H          -5.7349   -1.1583    1.1603 H       1  UNL1        0.0278
     39 H          -4.4881   -2.4150    1.0758 H       1  UNL1        0.0278
@<TRIPOS>BOND
     1     1     2    1
     2     2     3   ar
     3     3     4   ar
     4     4     5    2
     5     4     6   ar
     6     6     7   ar
     7     7     8   ar
     8     8     9   ar
     9     9    10   ar
    10    10    11   ar
    11    11    12   ar
    12    12    13    1
    13    13    14    1
    14    14    15   ar
    15    15    16    1
    16    15    17   ar
    17    17    18   ar
    18    18    19   ar
    19    19    20   ar
    20    20    21    1
    21    12    22   ar
    22    22    23   ar
    23     7    24   ar
    24    24    25    1
    25    24     2   ar
    26    23     6   ar
    27    23    10   ar
    28    20    14   ar
    29     1    26    1
    30     1    27    1
    31     1    28    1
    32     3    29    1
    33     8    30    1
    34     9    31    1
    35    11    32    1
    36    13    33    1
    37    17    34    1
    38    18    35    1
    39    19    36    1
    40    25    37    1
    41    25    38    1
    42    25    39    1
