
     RDKit          3D

 55 59  0  0  0  0  0  0  0  0999 V2000
    8.7509    3.2221   -0.5321 C   0  0  0  0  0  0  0  0  0  0  0  0
    8.3352    2.3840    0.5593 N   0  0  0  0  0  0  0  0  0  0  0  0
    7.3356    1.3641    0.2675 C   0  0  0  0  0  0  0  0  0  0  0  0
    6.2280    1.0808    0.3043 N   0  0  0  0  0  0  0  0  0  0  0  0
    5.5829   -0.0055   -0.0765 C   0  0  0  0  0  0  0  0  0  0  0  0
    4.1176   -0.2075    0.0647 C   0  0  0  0  0  0  0  0  0  0  0  0
    3.3246    0.7699    0.6245 C   0  0  0  0  0  0  0  0  0  0  0  0
    1.9735    0.5177    0.7377 C   0  0  0  0  0  0  0  0  0  0  0  0
    1.4079   -0.6555    0.3168 C   0  0  0  0  0  0  0  0  0  0  0  0
    2.2293   -1.6300   -0.2470 C   0  0  0  0  0  0  0  0  0  0  0  0
    3.5865   -1.3935   -0.3678 C   0  0  0  0  0  0  0  0  0  0  0  0
    1.4247   -2.8228   -0.6399 C   0  0  0  0  0  0  0  0  0  0  0  0
    0.0308   -2.2172   -0.7119 C   0  0  0  0  0  0  0  0  0  0  0  0
    0.0828   -1.1740    0.3212 N   0  0  0  0  0  0  0  0  0  0  0  0
   -0.9960   -0.7671    1.1607 C   0  0  0  0  0  0  0  0  0  0  0  0
   -0.8302    0.1697    1.9726 O   0  0  0  0  0  0  0  0  0  0  0  0
   -2.2645   -1.4606    1.0502 C   0  0  0  0  0  0  0  0  0  0  0  0
   -2.4520   -2.5830    1.8221 C   0  0  0  0  0  0  0  0  0  0  0  0
   -3.6158   -3.3236    1.7783 C   0  0  0  0  0  0  0  0  0  0  0  0
   -4.6272   -2.9314    0.9360 C   0  0  0  0  0  0  0  0  0  0  0  0
   -4.4292   -1.7975    0.1613 C   0  0  0  0  0  0  0  0  0  0  0  0
   -3.2794   -1.0379    0.1834 C   0  0  0  0  0  0  0  0  0  0  0  0
   -3.0563    0.0618   -0.5503 O   0  0  0  0  0  0  0  0  0  0  0  0
   -3.6631    0.8374   -1.4722 C   0  0  0  0  0  0  0  0  0  0  0  0
   -4.9225    1.4635   -1.0292 C   0  0  0  0  0  0  0  0  0  0  0  0
   -4.8587    2.6397   -0.2792 C   0  0  0  0  0  0  0  0  0  0  0  0
   -6.0060    3.2871    0.1360 C   0  0  0  0  0  0  0  0  0  0  0  0
   -7.2610    2.8076   -0.1675 C   0  0  0  0  0  0  0  0  0  0  0  0
   -8.7146    3.6474    0.3759 Cl  0  0  0  0  0  0  0  0  0  0  0  0
   -7.3461    1.6482   -0.9071 C   0  0  0  0  0  0  0  0  0  0  0  0
   -6.1841    1.0086   -1.3176 C   0  0  0  0  0  0  0  0  0  0  0  0
    6.3945   -0.9556   -0.6100 C   0  0  0  0  0  0  0  0  0  0  0  0
    8.0457   -0.2371   -0.5354 S   0  0  0  0  0  0  0  0  0  0  0  0
    8.1836    4.1722   -0.5454 H   0  0  0  0  0  0  0  0  0  0  0  0
    9.8502    3.4140   -0.3887 H   0  0  0  0  0  0  0  0  0  0  0  0
    8.6085    2.7324   -1.5220 H   0  0  0  0  0  0  0  0  0  0  0  0
    8.7105    2.4743    1.5359 H   0  0  0  0  0  0  0  0  0  0  0  0
    3.7394    1.7203    0.9734 H   0  0  0  0  0  0  0  0  0  0  0  0
    1.3035    1.2587    1.1715 H   0  0  0  0  0  0  0  0  0  0  0  0
    4.1839   -2.1861   -0.8128 H   0  0  0  0  0  0  0  0  0  0  0  0
    1.6761   -3.1587   -1.6724 H   0  0  0  0  0  0  0  0  0  0  0  0
    1.5081   -3.6314    0.1000 H   0  0  0  0  0  0  0  0  0  0  0  0
   -0.7128   -2.9747   -0.4586 H   0  0  0  0  0  0  0  0  0  0  0  0
   -0.1560   -1.7821   -1.7127 H   0  0  0  0  0  0  0  0  0  0  0  0
   -1.6786   -2.9240    2.4967 H   0  0  0  0  0  0  0  0  0  0  0  0
   -3.7669   -4.2152    2.3875 H   0  0  0  0  0  0  0  0  0  0  0  0
   -5.5406   -3.5117    0.9003 H   0  0  0  0  0  0  0  0  0  0  0  0
   -5.2403   -1.5210   -0.4935 H   0  0  0  0  0  0  0  0  0  0  0  0
   -3.8993    0.2570   -2.4272 H   0  0  0  0  0  0  0  0  0  0  0  0
   -2.9423    1.6199   -1.8618 H   0  0  0  0  0  0  0  0  0  0  0  0
   -3.8724    3.0203   -0.0420 H   0  0  0  0  0  0  0  0  0  0  0  0
   -5.9227    4.2085    0.7267 H   0  0  0  0  0  0  0  0  0  0  0  0
   -8.2978    1.2146   -1.1792 H   0  0  0  0  0  0  0  0  0  0  0  0
   -6.2485    0.0872   -1.9162 H   0  0  0  0  0  0  0  0  0  0  0  0
    6.1706   -1.9841   -1.0285 H   0  0  0  0  0  0  0  0  0  0  0  0
  1  2  1  0
  2  3  1  0
  3  4  2  0
  4  5  1  0
  5  6  1  0
  6  7  2  0
  7  8  1  0
  8  9  2  0
  9 10  1  0
 10 11  2  0
 10 12  1  0
 12 13  1  0
 13 14  1  0
 14 15  1  0
 15 16  2  0
 15 17  1  0
 17 18  2  0
 18 19  1  0
 19 20  2  0
 20 21  1  0
 21 22  2  0
 22 23  1  0
 23 24  1  0
 24 25  1  0
 25 26  2  0
 26 27  1  0
 27 28  2  0
 28 29  1  0
 28 30  1  0
 30 31  2  0
  5 32  2  0
 32 33  1  0
 33  3  1  0
 11  6  1  0
 22 17  1  0
 31 25  1  0
 14  9  1  0
  1 34  1  0
  1 35  1  0
  1 36  1  0
  2 37  1  0
  7 38  1  0
  8 39  1  0
 11 40  1  0
 12 41  1  0
 12 42  1  0
 13 43  1  0
 13 44  1  0
 18 45  1  0
 19 46  1  0
 20 47  1  0
 21 48  1  0
 24 49  1  0
 24 50  1  0
 26 51  1  0
 27 52  1  0
 30 53  1  0
 31 54  1  0
 32 55  1  0
M  END
$$$$
