@<TRIPOS>MOLECULE
*****
 55 59 0 0 0
SMALL
GASTEIGER

@<TRIPOS>ATOM
      1 C           8.7509    3.2221   -0.5321 C.3     1  UNL1       -0.0006
      2 N           8.3352    2.3840    0.5593 N.pl3   1  UNL1       -0.3265
      3 C           7.3356    1.3641    0.2675 C.ar    1  UNL1        0.1584
      4 N           6.2280    1.0808    0.3043 N.ar    1  UNL1       -0.2250
      5 C           5.5829   -0.0055   -0.0765 C.ar    1  UNL1        0.0802
      6 C           4.1176   -0.2075    0.0647 C.ar    1  UNL1        0.0013
      7 C           3.3246    0.7699    0.6245 C.ar    1  UNL1       -0.0508
      8 C           1.9735    0.5177    0.7377 C.ar    1  UNL1       -0.0394
      9 C           1.4079   -0.6555    0.3168 C.ar    1  UNL1        0.0398
     10 C           2.2293   -1.6300   -0.2470 C.ar    1  UNL1       -0.0238
     11 C           3.5865   -1.3935   -0.3678 C.ar    1  UNL1       -0.0476
     12 C           1.4247   -2.8228   -0.6399 C.3     1  UNL1       -0.0096
     13 C           0.0308   -2.2172   -0.7119 C.3     1  UNL1        0.0241
     14 N           0.0828   -1.1740    0.3212 N.am    1  UNL1       -0.2668
     15 C          -0.9960   -0.7671    1.1607 C.2     1  UNL1        0.2544
     16 O          -0.8302    0.1697    1.9726 O.2     1  UNL1       -0.2695
     17 C          -2.2645   -1.4606    1.0502 C.ar    1  UNL1        0.0788
     18 C          -2.4520   -2.5830    1.8221 C.ar    1  UNL1       -0.0461
     19 C          -3.6158   -3.3236    1.7783 C.ar    1  UNL1       -0.0608
     20 C          -4.6272   -2.9314    0.9360 C.ar    1  UNL1       -0.0583
     21 C          -4.4292   -1.7975    0.1613 C.ar    1  UNL1       -0.0192
     22 C          -3.2794   -1.0379    0.1834 C.ar    1  UNL1        0.1331
     23 O          -3.0563    0.0618   -0.5503 O.3     1  UNL1       -0.4866
     24 C          -3.6631    0.8374   -1.4722 C.3     1  UNL1        0.1147
     25 C          -4.9225    1.4635   -1.0292 C.ar    1  UNL1       -0.0103
     26 C          -4.8587    2.6397   -0.2792 C.ar    1  UNL1       -0.0540
     27 C          -6.0060    3.2871    0.1360 C.ar    1  UNL1       -0.0430
     28 C          -7.2610    2.8076   -0.1675 C.ar    1  UNL1        0.0410
     29 CL         -8.7146    3.6474    0.3759 Cl      1  UNL1       -0.0835
     30 C          -7.3461    1.6482   -0.9071 C.ar    1  UNL1       -0.0430
     31 C          -6.1841    1.0086   -1.3176 C.ar    1  UNL1       -0.0540
     32 C           6.3945   -0.9556   -0.6100 C.ar    1  UNL1        0.0049
     33 S           8.0457   -0.2371   -0.5354 S.2     1  UNL1       -0.0603
     34 H           8.1836    4.1722   -0.5454 H       1  UNL1        0.0426
     35 H           9.8502    3.4140   -0.3887 H       1  UNL1        0.0426
     36 H           8.6085    2.7324   -1.5220 H       1  UNL1        0.0426
     37 H           8.7105    2.4743    1.5359 H       1  UNL1        0.1476
     38 H           3.7394    1.7203    0.9734 H       1  UNL1        0.0625
     39 H           1.3035    1.2587    1.1715 H       1  UNL1        0.0636
     40 H           4.1839   -2.1861   -0.8128 H       1  UNL1        0.0627
     41 H           1.6761   -3.1587   -1.6724 H       1  UNL1        0.0329
     42 H           1.5081   -3.6314    0.1000 H       1  UNL1        0.0329
     43 H          -0.7128   -2.9747   -0.4586 H       1  UNL1        0.0472
     44 H          -0.1560   -1.7821   -1.7127 H       1  UNL1        0.0472
     45 H          -1.6786   -2.9240    2.4967 H       1  UNL1        0.0626
     46 H          -3.7669   -4.2152    2.3875 H       1  UNL1        0.0618
     47 H          -5.5406   -3.5117    0.9003 H       1  UNL1        0.0619
     48 H          -5.2403   -1.5210   -0.4935 H       1  UNL1        0.0654
     49 H          -3.8993    0.2570   -2.4272 H       1  UNL1        0.0748
     50 H          -2.9423    1.6199   -1.8618 H       1  UNL1        0.0748
     51 H          -3.8724    3.0203   -0.0420 H       1  UNL1        0.0622
     52 H          -5.9227    4.2085    0.7267 H       1  UNL1        0.0632
     53 H          -8.2978    1.2146   -1.1792 H       1  UNL1        0.0632
     54 H          -6.2485    0.0872   -1.9162 H       1  UNL1        0.0622
     55 H           6.1706   -1.9841   -1.0285 H       1  UNL1        0.0716
@<TRIPOS>BOND
     1     1     2    1
     2     2     3    1
     3     3     4   ar
     4     4     5   ar
     5     5     6    1
     6     6     7   ar
     7     7     8   ar
     8     8     9   ar
     9     9    10   ar
    10    10    11   ar
    11    10    12    1
    12    12    13    1
    13    13    14    1
    14    14    15   am
    15    15    16    2
    16    15    17    1
    17    17    18   ar
    18    18    19   ar
    19    19    20   ar
    20    20    21   ar
    21    21    22   ar
    22    22    23    1
    23    23    24    1
    24    24    25    1
    25    25    26   ar
    26    26    27   ar
    27    27    28   ar
    28    28    29    1
    29    28    30   ar
    30    30    31   ar
    31     5    32   ar
    32    32    33   ar
    33    33     3   ar
    34    11     6   ar
    35    22    17   ar
    36    31    25   ar
    37    14     9    1
    38     1    34    1
    39     1    35    1
    40     1    36    1
    41     2    37    1
    42     7    38    1
    43     8    39    1
    44    11    40    1
    45    12    41    1
    46    12    42    1
    47    13    43    1
    48    13    44    1
    49    18    45    1
    50    19    46    1
    51    20    47    1
    52    21    48    1
    53    24    49    1
    54    24    50    1
    55    26    51    1
    56    27    52    1
    57    30    53    1
    58    31    54    1
    59    32    55    1
