@<TRIPOS>MOLECULE
*****
 54 56 0 0 0
SMALL
GASTEIGER

@<TRIPOS>ATOM
      1 C          -5.4308    3.4591    0.1209 C.3     1  UNL1       -0.0306
      2 C          -6.3285    2.3664   -0.3825 C.3     1  UNL1        0.0897
      3 O          -5.9825    1.0928    0.1327 O.3     1  UNL1       -0.4643
      4 C          -4.7498    0.5196   -0.0788 C.2     1  UNL1        0.3172
      5 O          -3.8962    1.1327   -0.7468 O.2     1  UNL1       -0.2499
      6 C          -4.4360   -0.8064    0.4766 C.3     1  UNL1        0.0870
      7 C          -4.5643   -0.6976    1.9920 C.3     1  UNL1       -0.0456
      8 C          -5.4559   -1.8256    0.0294 C.3     1  UNL1       -0.0456
      9 C          -3.0468   -1.2552    0.1526 C.ar    1  UNL1       -0.0291
     10 C          -2.8130   -2.5407   -0.2968 C.ar    1  UNL1       -0.0568
     11 C          -1.5314   -2.9540   -0.5931 C.ar    1  UNL1       -0.0520
     12 C          -0.4351   -2.1297   -0.4619 C.ar    1  UNL1        0.0036
     13 C           0.8384   -2.5628   -0.7639 C.ar    1  UNL1       -0.0362
     14 C           1.0706   -3.9691   -1.2525 C.3     1  UNL1       -0.0389
     15 C           1.9154   -1.7114   -0.6215 C.ar    1  UNL1        0.0039
     16 C           1.6876   -0.4229   -0.1718 C.ar    1  UNL1        0.2213
     17 O           2.6567    0.4615   -0.0050 O.3     1  UNL1       -0.4380
     18 C           3.9058    0.8144   -0.0474 C.ar    1  UNL1        0.1304
     19 C           4.9979    0.0407   -0.4392 C.ar    1  UNL1       -0.0185
     20 C           6.2911    0.5064   -0.4502 C.ar    1  UNL1       -0.0434
     21 C           6.5478    1.7991   -0.0590 C.ar    1  UNL1        0.0649
     22 C           7.9195    2.2903   -0.0717 C.2     1  UNL1        0.3081
     23 N           8.1832    3.5254   -0.2839 N.2     1  UNL1       -0.0994
     24 N           8.9947    1.3928    0.1544 N.pl3   1  UNL1       -0.2466
     25 C           5.5069    2.6046    0.3367 C.ar    1  UNL1       -0.0434
     26 C           4.2279    2.1400    0.3463 C.ar    1  UNL1       -0.0185
     27 N           0.3775   -0.0414    0.1180 N.ar    1  UNL1       -0.2125
     28 C          -0.6609   -0.8406   -0.0122 C.ar    1  UNL1        0.0753
     29 C          -1.9628   -0.4221    0.2885 C.ar    1  UNL1       -0.0314
     30 H          -5.2467    3.3313    1.2021 H       1  UNL1        0.0262
     31 H          -5.9762    4.4253   -0.0023 H       1  UNL1        0.0262
     32 H          -4.4748    3.5384   -0.4276 H       1  UNL1        0.0262
     33 H          -6.3662    2.3672   -1.4753 H       1  UNL1        0.0694
     34 H          -7.3714    2.5978   -0.0326 H       1  UNL1        0.0694
     35 H          -5.6143   -0.8663    2.2469 H       1  UNL1        0.0243
     36 H          -3.9482   -1.4604    2.4921 H       1  UNL1        0.0243
     37 H          -4.3044    0.3466    2.3231 H       1  UNL1        0.0243
     38 H          -6.4549   -1.4099    0.2131 H       1  UNL1        0.0243
     39 H          -5.3476   -2.7263    0.6584 H       1  UNL1        0.0243
     40 H          -5.3919   -2.0467   -1.0612 H       1  UNL1        0.0243
     41 H          -3.6610   -3.2247   -0.4135 H       1  UNL1        0.0621
     42 H          -1.3304   -3.9744   -0.9518 H       1  UNL1        0.0624
     43 H           0.6723   -4.6998   -0.5170 H       1  UNL1        0.0278
     44 H           2.1627   -4.1512   -1.3082 H       1  UNL1        0.0278
     45 H           0.6632   -4.1122   -2.2733 H       1  UNL1        0.0278
     46 H           2.9141   -2.0744   -0.8659 H       1  UNL1        0.0674
     47 H           4.8507   -0.9669   -0.7508 H       1  UNL1        0.0654
     48 H           7.1075   -0.1291   -0.7618 H       1  UNL1        0.0627
     49 H           7.3984    4.1813   -0.4490 H       1  UNL1        0.3633
     50 H           9.9761    1.7262    0.1810 H       1  UNL1        0.2884
     51 H           8.8506    0.3660    0.3030 H       1  UNL1        0.2884
     52 H           5.7656    3.6315    0.6406 H       1  UNL1        0.0627
     53 H           3.4119    2.7719    0.6566 H       1  UNL1        0.0654
     54 H          -2.1119    0.5921    0.6408 H       1  UNL1        0.0642
@<TRIPOS>BOND
     1     1     2    1
     2     2     3    1
     3     3     4    1
     4     4     5    2
     5     4     6    1
     6     6     7    1
     7     6     8    1
     8     6     9    1
     9     9    10   ar
    10    10    11   ar
    11    11    12   ar
    12    12    13   ar
    13    13    14    1
    14    13    15   ar
    15    15    16   ar
    16    16    17    1
    17    17    18    1
    18    18    19   ar
    19    19    20   ar
    20    20    21   ar
    21    21    22    1
    22    22    23    2
    23    22    24    1
    24    21    25   ar
    25    25    26   ar
    26    16    27   ar
    27    27    28   ar
    28    28    29   ar
    29    29     9   ar
    30    28    12   ar
    31    26    18   ar
    32     1    30    1
    33     1    31    1
    34     1    32    1
    35     2    33    1
    36     2    34    1
    37     7    35    1
    38     7    36    1
    39     7    37    1
    40     8    38    1
    41     8    39    1
    42     8    40    1
    43    10    41    1
    44    11    42    1
    45    14    43    1
    46    14    44    1
    47    14    45    1
    48    15    46    1
    49    19    47    1
    50    20    48    1
    51    23    49    1
    52    24    50    1
    53    24    51    1
    54    25    52    1
    55    26    53    1
    56    29    54    1
