@<TRIPOS>MOLECULE
*****
 57 59 0 0 0
SMALL
GASTEIGER

@<TRIPOS>ATOM
      1 C           6.2078    3.4106   -1.4620 C.3     1  UNL1        0.0365
      2 O           6.4378    2.7831   -0.2615 O.3     1  UNL1       -0.3817
      3 C           7.0157    1.5414   -0.3939 C.3     1  UNL1        0.0600
      4 C           6.1712    0.5430   -1.1098 C.3     1  UNL1        0.0224
      5 N           4.9321    0.2195   -0.5456 N.3     1  UNL1       -0.2990
      6 C           4.9662   -0.4867    0.6835 C.3     1  UNL1       -0.0123
      7 C           3.7758    0.9574   -0.8531 C.3     1  UNL1        0.0238
      8 C           2.5461    0.4127   -0.1944 C.ar    1  UNL1       -0.0333
      9 C           1.8339   -0.5457   -0.8683 C.ar    1  UNL1       -0.0566
     10 C           0.7008   -1.0685   -0.2995 C.ar    1  UNL1       -0.0493
     11 C           0.2619   -0.6572    0.9257 C.ar    1  UNL1        0.0370
     12 C          -0.9362   -1.2213    1.5134 C.2     1  UNL1        0.2483
     13 O          -1.3360   -0.7871    2.6518 O.2     1  UNL1       -0.2699
     14 N          -1.7434   -2.2338    0.9520 N.am    1  UNL1       -0.2808
     15 C          -2.9134   -2.7511    1.5738 C.ar    1  UNL1        0.0459
     16 C          -2.8334   -3.8284    2.4432 C.ar    1  UNL1       -0.0384
     17 C          -3.9688   -4.3092    3.0266 C.ar    1  UNL1       -0.0416
     18 C          -5.1943   -3.7113    2.7410 C.ar    1  UNL1        0.0418
     19 CL         -6.6090   -4.3785    3.5240 Cl      1  UNL1       -0.0835
     20 C          -5.2927   -2.6267    1.8686 C.ar    1  UNL1       -0.0295
     21 C          -4.1150   -2.1523    1.2834 C.ar    1  UNL1        0.0596
     22 C          -4.1450   -1.0309    0.3672 C.2     1  UNL1        0.2511
     23 O          -3.0697   -0.6283   -0.1375 O.2     1  UNL1       -0.2697
     24 N          -5.3141   -0.3226   -0.0257 N.am    1  UNL1       -0.2663
     25 C          -5.2853    0.7716   -0.9297 C.ar    1  UNL1        0.1252
     26 C          -6.4724    1.3865   -1.2500 C.ar    1  UNL1       -0.0201
     27 C          -6.5313    2.4668   -2.1301 C.ar    1  UNL1       -0.0387
     28 C          -5.3568    2.9291   -2.6943 C.ar    1  UNL1        0.0592
     29 CL         -5.3514    4.2900   -3.8153 Cl      1  UNL1       -0.0820
     30 C          -4.1925    2.2794   -2.3417 C.ar    1  UNL1        0.0480
     31 N          -4.1553    1.2324   -1.4857 N.ar    1  UNL1       -0.2387
     32 C           0.9769    0.3027    1.5986 C.ar    1  UNL1       -0.0493
     33 C           2.1349    0.8551    1.0470 C.ar    1  UNL1       -0.0566
     34 H           5.7424    4.4116   -1.3458 H       1  UNL1        0.0523
     35 H           5.5663    2.8166   -2.1182 H       1  UNL1        0.0523
     36 H           7.2081    3.5879   -1.9548 H       1  UNL1        0.0523
     37 H           7.3239    1.1271    0.5937 H       1  UNL1        0.0572
     38 H           7.9913    1.6985   -0.9417 H       1  UNL1        0.0572
     39 H           6.0535    0.8564   -2.1765 H       1  UNL1        0.0449
     40 H           6.7827   -0.4007   -1.1664 H       1  UNL1        0.0449
     41 H           4.6581    0.1911    1.5174 H       1  UNL1        0.0391
     42 H           4.2301   -1.3378    0.6430 H       1  UNL1        0.0391
     43 H           5.9583   -0.9118    0.8654 H       1  UNL1        0.0391
     44 H           3.8643    2.0604   -0.6100 H       1  UNL1        0.0476
     45 H           3.5861    0.9431   -1.9511 H       1  UNL1        0.0476
     46 H           2.1419   -0.9136   -1.8575 H       1  UNL1        0.0621
     47 H           0.1365   -1.8410   -0.8546 H       1  UNL1        0.0625
     48 H          -1.4736   -2.6298    0.0312 H       1  UNL1        0.1552
     49 H          -1.8836   -4.2844    2.6584 H       1  UNL1        0.0637
     50 H          -3.8787   -5.1437    3.6956 H       1  UNL1        0.0633
     51 H          -6.2367   -2.1840    1.6633 H       1  UNL1        0.0640
     52 H          -6.2189   -0.6358    0.3783 H       1  UNL1        0.1566
     53 H          -7.3971    1.0366   -0.8172 H       1  UNL1        0.0652
     54 H          -7.4406    2.9641   -2.3974 H       1  UNL1        0.0634
     55 H          -3.2809    2.6501   -2.7896 H       1  UNL1        0.0845
     56 H           0.7026    0.6870    2.5728 H       1  UNL1        0.0625
     57 H           2.7191    1.6103    1.5487 H       1  UNL1        0.0621
@<TRIPOS>BOND
     1     1     2    1
     2     2     3    1
     3     3     4    1
     4     4     5    1
     5     5     6    1
     6     5     7    1
     7     7     8    1
     8     8     9   ar
     9     9    10   ar
    10    10    11   ar
    11    11    12    1
    12    12    13    2
    13    12    14   am
    14    14    15    1
    15    15    16   ar
    16    16    17   ar
    17    17    18   ar
    18    18    19    1
    19    18    20   ar
    20    20    21   ar
    21    21    22    1
    22    22    23    2
    23    22    24   am
    24    24    25    1
    25    25    26   ar
    26    26    27   ar
    27    27    28   ar
    28    28    29    1
    29    28    30   ar
    30    30    31   ar
    31    11    32   ar
    32    32    33   ar
    33    33     8   ar
    34    21    15   ar
    35    31    25   ar
    36     1    34    1
    37     1    35    1
    38     1    36    1
    39     3    37    1
    40     3    38    1
    41     4    39    1
    42     4    40    1
    43     6    41    1
    44     6    42    1
    45     6    43    1
    46     7    44    1
    47     7    45    1
    48     9    46    1
    49    10    47    1
    50    14    48    1
    51    16    49    1
    52    17    50    1
    53    20    51    1
    54    24    52    1
    55    26    53    1
    56    27    54    1
    57    30    55    1
    58    32    56    1
    59    33    57    1
