
     RDKit          3D

 57 59  0  0  0  0  0  0  0  0999 V2000
    6.2078    3.4106   -1.4620 C   0  0  0  0  0  0  0  0  0  0  0  0
    6.4378    2.7831   -0.2615 O   0  0  0  0  0  0  0  0  0  0  0  0
    7.0157    1.5414   -0.3939 C   0  0  0  0  0  0  0  0  0  0  0  0
    6.1712    0.5430   -1.1098 C   0  0  0  0  0  0  0  0  0  0  0  0
    4.9321    0.2195   -0.5456 N   0  0  0  0  0  0  0  0  0  0  0  0
    4.9662   -0.4867    0.6835 C   0  0  0  0  0  0  0  0  0  0  0  0
    3.7758    0.9574   -0.8531 C   0  0  0  0  0  0  0  0  0  0  0  0
    2.5461    0.4127   -0.1944 C   0  0  0  0  0  0  0  0  0  0  0  0
    1.8339   -0.5457   -0.8683 C   0  0  0  0  0  0  0  0  0  0  0  0
    0.7008   -1.0685   -0.2995 C   0  0  0  0  0  0  0  0  0  0  0  0
    0.2619   -0.6572    0.9257 C   0  0  0  0  0  0  0  0  0  0  0  0
   -0.9362   -1.2213    1.5134 C   0  0  0  0  0  0  0  0  0  0  0  0
   -1.3360   -0.7871    2.6518 O   0  0  0  0  0  0  0  0  0  0  0  0
   -1.7434   -2.2338    0.9520 N   0  0  0  0  0  0  0  0  0  0  0  0
   -2.9134   -2.7511    1.5738 C   0  0  0  0  0  0  0  0  0  0  0  0
   -2.8334   -3.8284    2.4432 C   0  0  0  0  0  0  0  0  0  0  0  0
   -3.9688   -4.3092    3.0266 C   0  0  0  0  0  0  0  0  0  0  0  0
   -5.1943   -3.7113    2.7410 C   0  0  0  0  0  0  0  0  0  0  0  0
   -6.6090   -4.3785    3.5240 Cl  0  0  0  0  0  0  0  0  0  0  0  0
   -5.2927   -2.6267    1.8686 C   0  0  0  0  0  0  0  0  0  0  0  0
   -4.1150   -2.1523    1.2834 C   0  0  0  0  0  0  0  0  0  0  0  0
   -4.1450   -1.0309    0.3672 C   0  0  0  0  0  0  0  0  0  0  0  0
   -3.0697   -0.6283   -0.1375 O   0  0  0  0  0  0  0  0  0  0  0  0
   -5.3141   -0.3226   -0.0257 N   0  0  0  0  0  0  0  0  0  0  0  0
   -5.2853    0.7716   -0.9297 C   0  0  0  0  0  0  0  0  0  0  0  0
   -6.4724    1.3865   -1.2500 C   0  0  0  0  0  0  0  0  0  0  0  0
   -6.5313    2.4668   -2.1301 C   0  0  0  0  0  0  0  0  0  0  0  0
   -5.3568    2.9291   -2.6943 C   0  0  0  0  0  0  0  0  0  0  0  0
   -5.3514    4.2900   -3.8153 Cl  0  0  0  0  0  0  0  0  0  0  0  0
   -4.1925    2.2794   -2.3417 C   0  0  0  0  0  0  0  0  0  0  0  0
   -4.1553    1.2324   -1.4857 N   0  0  0  0  0  0  0  0  0  0  0  0
    0.9769    0.3027    1.5986 C   0  0  0  0  0  0  0  0  0  0  0  0
    2.1349    0.8551    1.0470 C   0  0  0  0  0  0  0  0  0  0  0  0
    5.7424    4.4116   -1.3458 H   0  0  0  0  0  0  0  0  0  0  0  0
    5.5663    2.8166   -2.1182 H   0  0  0  0  0  0  0  0  0  0  0  0
    7.2081    3.5879   -1.9548 H   0  0  0  0  0  0  0  0  0  0  0  0
    7.3239    1.1271    0.5937 H   0  0  0  0  0  0  0  0  0  0  0  0
    7.9913    1.6985   -0.9417 H   0  0  0  0  0  0  0  0  0  0  0  0
    6.0535    0.8564   -2.1765 H   0  0  0  0  0  0  0  0  0  0  0  0
    6.7827   -0.4007   -1.1664 H   0  0  0  0  0  0  0  0  0  0  0  0
    4.6581    0.1911    1.5174 H   0  0  0  0  0  0  0  0  0  0  0  0
    4.2301   -1.3378    0.6430 H   0  0  0  0  0  0  0  0  0  0  0  0
    5.9583   -0.9118    0.8654 H   0  0  0  0  0  0  0  0  0  0  0  0
    3.8643    2.0604   -0.6100 H   0  0  0  0  0  0  0  0  0  0  0  0
    3.5861    0.9431   -1.9511 H   0  0  0  0  0  0  0  0  0  0  0  0
    2.1419   -0.9136   -1.8575 H   0  0  0  0  0  0  0  0  0  0  0  0
    0.1365   -1.8410   -0.8546 H   0  0  0  0  0  0  0  0  0  0  0  0
   -1.4736   -2.6298    0.0312 H   0  0  0  0  0  0  0  0  0  0  0  0
   -1.8836   -4.2844    2.6584 H   0  0  0  0  0  0  0  0  0  0  0  0
   -3.8787   -5.1437    3.6956 H   0  0  0  0  0  0  0  0  0  0  0  0
   -6.2367   -2.1840    1.6633 H   0  0  0  0  0  0  0  0  0  0  0  0
   -6.2189   -0.6358    0.3783 H   0  0  0  0  0  0  0  0  0  0  0  0
   -7.3971    1.0366   -0.8172 H   0  0  0  0  0  0  0  0  0  0  0  0
   -7.4406    2.9641   -2.3974 H   0  0  0  0  0  0  0  0  0  0  0  0
   -3.2809    2.6501   -2.7896 H   0  0  0  0  0  0  0  0  0  0  0  0
    0.7026    0.6870    2.5728 H   0  0  0  0  0  0  0  0  0  0  0  0
    2.7191    1.6103    1.5487 H   0  0  0  0  0  0  0  0  0  0  0  0
  1  2  1  0
  2  3  1  0
  3  4  1  0
  4  5  1  0
  5  6  1  0
  5  7  1  0
  7  8  1  0
  8  9  2  0
  9 10  1  0
 10 11  2  0
 11 12  1  0
 12 13  2  0
 12 14  1  0
 14 15  1  0
 15 16  2  0
 16 17  1  0
 17 18  2  0
 18 19  1  0
 18 20  1  0
 20 21  2  0
 21 22  1  0
 22 23  2  0
 22 24  1  0
 24 25  1  0
 25 26  2  0
 26 27  1  0
 27 28  2  0
 28 29  1  0
 28 30  1  0
 30 31  2  0
 11 32  1  0
 32 33  2  0
 33  8  1  0
 21 15  1  0
 31 25  1  0
  1 34  1  0
  1 35  1  0
  1 36  1  0
  3 37  1  0
  3 38  1  0
  4 39  1  0
  4 40  1  0
  6 41  1  0
  6 42  1  0
  6 43  1  0
  7 44  1  0
  7 45  1  0
  9 46  1  0
 10 47  1  0
 14 48  1  0
 16 49  1  0
 17 50  1  0
 20 51  1  0
 24 52  1  0
 26 53  1  0
 27 54  1  0
 30 55  1  0
 32 56  1  0
 33 57  1  0
M  END
$$$$
