
     RDKit          3D

 63 66  0  0  0  0  0  0  0  0999 V2000
    0.3917   -1.3491    3.5733 C   0  0  0  0  0  0  0  0  0  0  0  0
   -0.5234   -1.2805    2.3633 C   0  0  0  0  0  0  0  0  0  0  0  0
   -0.2786    0.0829    1.7240 C   0  0  1  0  0  0  0  0  0  0  0  0
    1.1538    0.1253    1.3528 C   0  0  0  0  0  0  0  0  0  0  0  0
    1.9850    1.0933    1.9346 C   0  0  0  0  0  0  0  0  0  0  0  0
    3.3326    1.1788    1.6635 C   0  0  0  0  0  0  0  0  0  0  0  0
    3.9385    0.2997    0.7912 C   0  0  0  0  0  0  0  0  0  0  0  0
    5.3700    0.3955    0.5044 C   0  0  0  0  0  0  0  0  0  0  0  0
    6.2544    0.8413    1.4604 C   0  0  0  0  0  0  0  0  0  0  0  0
    7.6248    0.9332    1.2002 C   0  0  0  0  0  0  0  0  0  0  0  0
    8.0569    0.5586   -0.0544 C   0  0  0  0  0  0  0  0  0  0  0  0
    9.3012    0.6407   -0.2929 O   0  0  0  0  0  0  0  0  0  0  0  0
    7.2012    0.1188   -1.0050 N   0  0  0  0  0  0  0  0  0  0  0  0
    7.7142   -0.2668   -2.3232 C   0  0  0  0  0  0  0  0  0  0  0  0
    5.8893    0.0422   -0.7232 C   0  0  0  0  0  0  0  0  0  0  0  0
    3.1378   -0.6583    0.2102 C   0  0  0  0  0  0  0  0  0  0  0  0
    1.7758   -0.7407    0.4876 C   0  0  0  0  0  0  0  0  0  0  0  0
   -1.1584    0.3553    0.6557 N   0  0  0  0  0  0  0  0  0  0  0  0
   -1.1295   -0.3926   -0.5657 C   0  0  0  0  0  0  0  0  0  0  0  0
   -2.2736   -0.0185   -1.4932 C   0  0  0  0  0  0  0  0  0  0  0  0
   -3.5696    0.1401   -0.7497 C   0  0  2  0  0  0  0  0  0  0  0  0
   -3.8340   -1.0985    0.0357 C   0  0  0  0  0  0  0  0  0  0  0  0
   -5.1502   -0.9906    0.8195 C   0  0  0  0  0  0  0  0  0  0  0  0
   -5.3861   -2.1404    1.5449 O   0  0  0  0  0  0  0  0  0  0  0  0
   -4.7017    0.4644   -1.6349 C   0  0  0  0  0  0  0  0  0  0  0  0
   -5.4778   -0.4740   -2.2535 C   0  0  0  0  0  0  0  0  0  0  0  0
   -6.5456   -0.1551   -3.0851 C   0  0  0  0  0  0  0  0  0  0  0  0
   -6.8169    1.1805   -3.2807 C   0  0  0  0  0  0  0  0  0  0  0  0
   -6.0443    2.1482   -2.6647 C   0  0  0  0  0  0  0  0  0  0  0  0
   -5.0047    1.8148   -1.8555 C   0  0  0  0  0  0  0  0  0  0  0  0
   -3.3618    1.2575    0.1293 O   0  0  0  0  0  0  0  0  0  0  0  0
   -2.1267    1.4209    0.7479 C   0  0  0  0  0  0  0  0  0  0  0  0
   -1.8398    2.4845    1.3877 O   0  0  0  0  0  0  0  0  0  0  0  0
    1.4292   -1.4583    3.1768 H   0  0  0  0  0  0  0  0  0  0  0  0
    0.1924   -2.2151    4.2101 H   0  0  0  0  0  0  0  0  0  0  0  0
    0.3492   -0.3788    4.1117 H   0  0  0  0  0  0  0  0  0  0  0  0
   -0.1811   -2.0412    1.6347 H   0  0  0  0  0  0  0  0  0  0  0  0
   -1.5673   -1.4670    2.6055 H   0  0  0  0  0  0  0  0  0  0  0  0
   -0.4600    0.8125    2.5461 H   0  0  0  0  0  0  0  0  0  0  0  0
    1.5172    1.7928    2.6269 H   0  0  0  0  0  0  0  0  0  0  0  0
    3.9655    1.9385    2.1262 H   0  0  0  0  0  0  0  0  0  0  0  0
    5.8655    1.1241    2.4343 H   0  0  0  0  0  0  0  0  0  0  0  0
    8.2962    1.2911    1.9802 H   0  0  0  0  0  0  0  0  0  0  0  0
    7.0431   -1.0584   -2.6928 H   0  0  0  0  0  0  0  0  0  0  0  0
    8.7284   -0.7355   -2.1738 H   0  0  0  0  0  0  0  0  0  0  0  0
    7.8304    0.5711   -3.0050 H   0  0  0  0  0  0  0  0  0  0  0  0
    5.2459   -0.3162   -1.5187 H   0  0  0  0  0  0  0  0  0  0  0  0
    3.6108   -1.3448   -0.4709 H   0  0  0  0  0  0  0  0  0  0  0  0
    1.1686   -1.5217    0.0266 H   0  0  0  0  0  0  0  0  0  0  0  0
   -1.1584   -1.4721   -0.4479 H   0  0  0  0  0  0  0  0  0  0  0  0
   -0.2075   -0.0622   -1.1274 H   0  0  0  0  0  0  0  0  0  0  0  0
   -2.4248   -0.7270   -2.3138 H   0  0  0  0  0  0  0  0  0  0  0  0
   -2.0294    0.9705   -1.9200 H   0  0  0  0  0  0  0  0  0  0  0  0
   -3.9651   -1.9641   -0.6465 H   0  0  0  0  0  0  0  0  0  0  0  0
   -3.0062   -1.3807    0.7114 H   0  0  0  0  0  0  0  0  0  0  0  0
   -5.9906   -0.7940    0.1307 H   0  0  0  0  0  0  0  0  0  0  0  0
   -5.0893   -0.1341    1.5170 H   0  0  0  0  0  0  0  0  0  0  0  0
   -6.3598   -2.2926    1.6170 H   0  0  0  0  0  0  0  0  0  0  0  0
   -5.2871   -1.5178   -2.1174 H   0  0  0  0  0  0  0  0  0  0  0  0
   -7.1405   -0.9220   -3.5604 H   0  0  0  0  0  0  0  0  0  0  0  0
   -7.6413    1.5030   -3.9222 H   0  0  0  0  0  0  0  0  0  0  0  0
   -6.2544    3.2190   -2.8149 H   0  0  0  0  0  0  0  0  0  0  0  0
   -4.3843    2.5698   -1.3618 H   0  0  0  0  0  0  0  0  0  0  0  0
  1  2  1  0
  2  3  1  0
  3  4  1  0
  4  5  2  0
  5  6  1  0
  6  7  2  0
  7  8  1  0
  8  9  1  0
  9 10  2  0
 10 11  1  0
 11 12  2  0
 11 13  1  0
 13 14  1  0
 13 15  1  0
  7 16  1  0
 16 17  2  0
  3 18  1  0
 18 19  1  0
 19 20  1  0
 20 21  1  0
 21 22  1  1
 22 23  1  0
 23 24  1  0
 21 25  1  0
 25 26  2  0
 26 27  1  0
 27 28  2  0
 28 29  1  0
 29 30  2  0
 21 31  1  0
 31 32  1  0
 32 33  2  0
 17  4  1  0
 32 18  1  0
 15  8  2  0
 30 25  1  0
  1 34  1  0
  1 35  1  0
  1 36  1  0
  2 37  1  0
  2 38  1  0
  3 39  1  1
  5 40  1  0
  6 41  1  0
  9 42  1  0
 10 43  1  0
 14 44  1  0
 14 45  1  0
 14 46  1  0
 15 47  1  0
 16 48  1  0
 17 49  1  0
 19 50  1  0
 19 51  1  0
 20 52  1  0
 20 53  1  0
 22 54  1  0
 22 55  1  0
 23 56  1  0
 23 57  1  0
 24 58  1  0
 26 59  1  0
 27 60  1  0
 28 61  1  0
 29 62  1  0
 30 63  1  0
M  END
$$$$
