@<TRIPOS>MOLECULE
*****
 63 66 0 0 0
SMALL
GASTEIGER

@<TRIPOS>ATOM
      1 C           0.3917   -1.3491    3.5733 C.3     1  UNL1       -0.0633
      2 C          -0.5234   -1.2805    2.3633 C.3     1  UNL1       -0.0329
      3 C          -0.2786    0.0829    1.7240 C.3     1  UNL1        0.0540
      4 C           1.1538    0.1253    1.3528 C.ar    1  UNL1       -0.0269
      5 C           1.9850    1.0933    1.9346 C.ar    1  UNL1       -0.0562
      6 C           3.3326    1.1788    1.6635 C.ar    1  UNL1       -0.0537
      7 C           3.9385    0.2997    0.7912 C.ar    1  UNL1       -0.0165
      8 C           5.3700    0.3955    0.5044 C.ar    1  UNL1       -0.0015
      9 C           6.2544    0.8413    1.4604 C.ar    1  UNL1       -0.0475
     10 C           7.6248    0.9332    1.2002 C.ar    1  UNL1        0.0036
     11 C           8.0569    0.5586   -0.0544 C.ar    1  UNL1        0.2511
     12 O           9.3012    0.6407   -0.2929 O.2     1  UNL1       -0.2677
     13 N           7.2012    0.1188   -1.0050 N.ar    1  UNL1       -0.3177
     14 C           7.7142   -0.2668   -2.3232 C.3     1  UNL1        0.0147
     15 C           5.8893    0.0422   -0.7232 C.ar    1  UNL1        0.0153
     16 C           3.1378   -0.6583    0.2102 C.ar    1  UNL1       -0.0537
     17 C           1.7758   -0.7407    0.4876 C.ar    1  UNL1       -0.0562
     18 N          -1.1584    0.3553    0.6557 N.am    1  UNL1       -0.2602
     19 C          -1.1295   -0.3926   -0.5657 C.3     1  UNL1        0.0224
     20 C          -2.2736   -0.0185   -1.4932 C.3     1  UNL1        0.0075
     21 C          -3.5696    0.1401   -0.7497 C.3     1  UNL1        0.1435
     22 C          -3.8340   -1.0985    0.0357 C.3     1  UNL1        0.0148
     23 C          -5.1502   -0.9906    0.8195 C.3     1  UNL1        0.0482
     24 O          -5.3861   -2.1404    1.5449 O.3     1  UNL1       -0.3949
     25 C          -4.7017    0.4644   -1.6349 C.ar    1  UNL1       -0.0041
     26 C          -5.4778   -0.4740   -2.2535 C.ar    1  UNL1       -0.0548
     27 C          -6.5456   -0.1551   -3.0851 C.ar    1  UNL1       -0.0614
     28 C          -6.8169    1.1805   -3.2807 C.ar    1  UNL1       -0.0617
     29 C          -6.0443    2.1482   -2.6647 C.ar    1  UNL1       -0.0614
     30 C          -5.0047    1.8148   -1.8555 C.ar    1  UNL1       -0.0548
     31 O          -3.3618    1.2575    0.1293 O.3     1  UNL1       -0.4388
     32 C          -2.1267    1.4209    0.7479 C.2     1  UNL1        0.4042
     33 O          -1.8398    2.4845    1.3877 O.2     1  UNL1       -0.2262
     34 H           1.4292   -1.4583    3.1768 H       1  UNL1        0.0230
     35 H           0.1924   -2.2151    4.2101 H       1  UNL1        0.0230
     36 H           0.3492   -0.3788    4.1117 H       1  UNL1        0.0230
     37 H          -0.1811   -2.0412    1.6347 H       1  UNL1        0.0284
     38 H          -1.5673   -1.4670    2.6055 H       1  UNL1        0.0284
     39 H          -0.4600    0.8125    2.5461 H       1  UNL1        0.0551
     40 H           1.5172    1.7928    2.6269 H       1  UNL1        0.0621
     41 H           3.9655    1.9385    2.1262 H       1  UNL1        0.0624
     42 H           5.8655    1.1241    2.4343 H       1  UNL1        0.0626
     43 H           8.2962    1.2911    1.9802 H       1  UNL1        0.0672
     44 H           7.0431   -1.0584   -2.6928 H       1  UNL1        0.0457
     45 H           8.7284   -0.7355   -2.1738 H       1  UNL1        0.0457
     46 H           7.8304    0.5711   -3.0050 H       1  UNL1        0.0457
     47 H           5.2459   -0.3162   -1.5187 H       1  UNL1        0.0816
     48 H           3.6108   -1.3448   -0.4709 H       1  UNL1        0.0624
     49 H           1.1686   -1.5217    0.0266 H       1  UNL1        0.0621
     50 H          -1.1584   -1.4721   -0.4479 H       1  UNL1        0.0467
     51 H          -0.2075   -0.0622   -1.1274 H       1  UNL1        0.0467
     52 H          -2.4248   -0.7270   -2.3138 H       1  UNL1        0.0322
     53 H          -2.0294    0.9705   -1.9200 H       1  UNL1        0.0322
     54 H          -3.9651   -1.9641   -0.6465 H       1  UNL1        0.0329
     55 H          -3.0062   -1.3807    0.7114 H       1  UNL1        0.0329
     56 H          -5.9906   -0.7940    0.1307 H       1  UNL1        0.0558
     57 H          -5.0893   -0.1341    1.5170 H       1  UNL1        0.0558
     58 H          -6.3598   -2.2926    1.6170 H       1  UNL1        0.2094
     59 H          -5.2871   -1.5178   -2.1174 H       1  UNL1        0.0622
     60 H          -7.1405   -0.9220   -3.5604 H       1  UNL1        0.0618
     61 H          -7.6413    1.5030   -3.9222 H       1  UNL1        0.0618
     62 H          -6.2544    3.2190   -2.8149 H       1  UNL1        0.0618
     63 H          -4.3843    2.5698   -1.3618 H       1  UNL1        0.0622
@<TRIPOS>BOND
     1     1     2    1
     2     2     3    1
     3     3     4    1
     4     4     5   ar
     5     5     6   ar
     6     6     7   ar
     7     7     8    1
     8     8     9   ar
     9     9    10   ar
    10    10    11   ar
    11    11    12    2
    12    11    13   ar
    13    13    14    1
    14    13    15   ar
    15     7    16   ar
    16    16    17   ar
    17     3    18    1
    18    18    19    1
    19    19    20    1
    20    20    21    1
    21    21    22    1
    22    22    23    1
    23    23    24    1
    24    21    25    1
    25    25    26   ar
    26    26    27   ar
    27    27    28   ar
    28    28    29   ar
    29    29    30   ar
    30    21    31    1
    31    31    32    1
    32    32    33    2
    33    17     4   ar
    34    32    18   am
    35    15     8   ar
    36    30    25   ar
    37     1    34    1
    38     1    35    1
    39     1    36    1
    40     2    37    1
    41     2    38    1
    42     3    39    1
    43     5    40    1
    44     6    41    1
    45     9    42    1
    46    10    43    1
    47    14    44    1
    48    14    45    1
    49    14    46    1
    50    15    47    1
    51    16    48    1
    52    17    49    1
    53    19    50    1
    54    19    51    1
    55    20    52    1
    56    20    53    1
    57    22    54    1
    58    22    55    1
    59    23    56    1
    60    23    57    1
    61    24    58    1
    62    26    59    1
    63    27    60    1
    64    28    61    1
    65    29    62    1
    66    30    63    1
