
     RDKit          3D

 28 28  0  0  0  0  0  0  0  0999 V2000
    4.2646   -0.2780    1.3523 O   0  0  0  0  0  0  0  0  0  0  0  0
    3.6809    0.9924    0.4013 S   0  0  0  0  0  0  0  0  0  0  0  0
    4.7777    1.5885   -0.3988 O   0  0  0  0  0  0  0  0  0  0  0  0
    3.1836    2.0353    1.3708 O   0  0  0  0  0  0  0  0  0  0  0  0
    2.3141    0.4255   -0.6012 C   0  0  0  0  0  0  0  0  0  0  0  0
    1.2530   -0.0539    0.3718 C   0  0  0  0  0  0  0  0  0  0  0  0
    0.0665   -0.5533   -0.3556 C   0  0  0  0  0  0  0  0  0  0  0  0
   -1.0037   -1.0312    0.4871 N   0  0  0  0  0  0  0  0  0  0  0  0
   -2.0453   -1.4981   -0.4140 C   0  0  0  0  0  0  0  0  0  0  0  0
   -3.2169   -0.5512   -0.5099 C   0  0  0  0  0  0  0  0  0  0  0  0
   -2.6948    0.7247   -0.7194 O   0  0  0  0  0  0  0  0  0  0  0  0
   -2.1224    1.1558    0.4758 C   0  0  0  0  0  0  0  0  0  0  0  0
   -1.5850    0.0098    1.2985 C   0  0  0  0  0  0  0  0  0  0  0  0
    5.0370   -0.6721    0.8944 H   0  0  0  0  0  0  0  0  0  0  0  0
    2.6524   -0.3725   -1.2775 H   0  0  0  0  0  0  0  0  0  0  0  0
    1.9626    1.3305   -1.1655 H   0  0  0  0  0  0  0  0  0  0  0  0
    1.0649    0.7572    1.0808 H   0  0  0  0  0  0  0  0  0  0  0  0
    1.7447   -0.8647    0.9779 H   0  0  0  0  0  0  0  0  0  0  0  0
    0.3646   -1.3901   -1.0168 H   0  0  0  0  0  0  0  0  0  0  0  0
   -0.3185    0.2681   -1.0077 H   0  0  0  0  0  0  0  0  0  0  0  0
   -2.4445   -2.4468   -0.0026 H   0  0  0  0  0  0  0  0  0  0  0  0
   -1.6614   -1.7040   -1.4272 H   0  0  0  0  0  0  0  0  0  0  0  0
   -3.7730   -0.8399   -1.4378 H   0  0  0  0  0  0  0  0  0  0  0  0
   -3.8757   -0.6261    0.3802 H   0  0  0  0  0  0  0  0  0  0  0  0
   -1.3424    1.9394    0.2718 H   0  0  0  0  0  0  0  0  0  0  0  0
   -2.9193    1.6840    1.0406 H   0  0  0  0  0  0  0  0  0  0  0  0
   -0.9165    0.4128    2.0724 H   0  0  0  0  0  0  0  0  0  0  0  0
   -2.4472   -0.4420    1.8361 H   0  0  0  0  0  0  0  0  0  0  0  0
  1  2  1  0
  2  3  2  0
  2  4  2  0
  2  5  1  0
  5  6  1  0
  6  7  1  0
  7  8  1  0
  8  9  1  0
  9 10  1  0
 10 11  1  0
 11 12  1  0
 12 13  1  0
 13  8  1  0
  1 14  1  0
  5 15  1  0
  5 16  1  0
  6 17  1  0
  6 18  1  0
  7 19  1  0
  7 20  1  0
  9 21  1  0
  9 22  1  0
 10 23  1  0
 10 24  1  0
 12 25  1  0
 12 26  1  0
 13 27  1  0
 13 28  1  0
M  END
$$$$
