@<TRIPOS>MOLECULE
*****
 28 28 0 0 0
SMALL
GASTEIGER

@<TRIPOS>ATOM
      1 O           4.2646   -0.2780    1.3523 O.3     1  UNL1       -0.2539
      2 S           3.6809    0.9924    0.4013 S.O2    1  UNL1        0.0798
      3 O           4.7777    1.5885   -0.3988 O.2     1  UNL1       -0.1474
      4 O           3.1836    2.0353    1.3708 O.2     1  UNL1       -0.1474
      5 C           2.3141    0.4255   -0.6012 C.3     1  UNL1        0.0938
      6 C           1.2530   -0.0539    0.3718 C.3     1  UNL1       -0.0184
      7 C           0.0665   -0.5533   -0.3556 C.3     1  UNL1        0.0006
      8 N          -1.0037   -1.0312    0.4871 N.3     1  UNL1       -0.2979
      9 C          -2.0453   -1.4981   -0.4140 C.3     1  UNL1        0.0224
     10 C          -3.2169   -0.5512   -0.5099 C.3     1  UNL1        0.0604
     11 O          -2.6948    0.7247   -0.7194 O.3     1  UNL1       -0.3772
     12 C          -2.1224    1.1558    0.4758 C.3     1  UNL1        0.0604
     13 C          -1.5850    0.0098    1.2985 C.3     1  UNL1        0.0224
     14 H           5.0370   -0.6721    0.8944 H       1  UNL1        0.2445
     15 H           2.6524   -0.3725   -1.2775 H       1  UNL1        0.0526
     16 H           1.9626    1.3305   -1.1655 H       1  UNL1        0.0526
     17 H           1.0649    0.7572    1.0808 H       1  UNL1        0.0294
     18 H           1.7447   -0.8647    0.9779 H       1  UNL1        0.0294
     19 H           0.3646   -1.3901   -1.0168 H       1  UNL1        0.0427
     20 H          -0.3185    0.2681   -1.0077 H       1  UNL1        0.0427
     21 H          -2.4445   -2.4468   -0.0026 H       1  UNL1        0.0449
     22 H          -1.6614   -1.7040   -1.4272 H       1  UNL1        0.0449
     23 H          -3.7730   -0.8399   -1.4378 H       1  UNL1        0.0572
     24 H          -3.8757   -0.6261    0.3802 H       1  UNL1        0.0572
     25 H          -1.3424    1.9394    0.2718 H       1  UNL1        0.0572
     26 H          -2.9193    1.6840    1.0406 H       1  UNL1        0.0572
     27 H          -0.9165    0.4128    2.0724 H       1  UNL1        0.0449
     28 H          -2.4472   -0.4420    1.8361 H       1  UNL1        0.0449
@<TRIPOS>BOND
     1     1     2    1
     2     2     3    2
     3     2     4    2
     4     2     5    1
     5     5     6    1
     6     6     7    1
     7     7     8    1
     8     8     9    1
     9     9    10    1
    10    10    11    1
    11    11    12    1
    12    12    13    1
    13    13     8    1
    14     1    14    1
    15     5    15    1
    16     5    16    1
    17     6    17    1
    18     6    18    1
    19     7    19    1
    20     7    20    1
    21     9    21    1
    22     9    22    1
    23    10    23    1
    24    10    24    1
    25    12    25    1
    26    12    26    1
    27    13    27    1
    28    13    28    1
