@<TRIPOS>MOLECULE
*****
 46 47 0 0 0
SMALL
GASTEIGER

@<TRIPOS>ATOM
      1 C           6.2931    1.1162   -2.1918 C.3     1  UNL1       -0.0306
      2 C           4.9966    0.5906   -1.5707 C.3     1  UNL1        0.0884
      3 O           5.1037    0.6374   -0.1615 O.3     1  UNL1       -0.4757
      4 C           4.0296    0.1957    0.5871 C.ar    1  UNL1        0.2362
      5 N           2.9081   -0.2701    0.0351 N.ar    1  UNL1       -0.1966
      6 C           1.8582   -0.7022    0.7621 C.ar    1  UNL1        0.1305
      7 N           0.6078   -1.2280    0.3700 N.am    1  UNL1       -0.2700
      8 C          -0.5744   -0.4845    0.1162 C.2     1  UNL1        0.2227
      9 O          -0.5334    0.7836    0.2423 O.2     1  UNL1       -0.2751
     10 C          -1.7130   -1.3624   -0.2723 C.3     1  UNL1        0.0530
     11 C          -2.9414   -0.5775   -0.5465 C.ar    1  UNL1        0.0065
     12 C          -3.9630   -0.5216    0.3847 C.ar    1  UNL1       -0.0117
     13 C          -5.0945    0.2051    0.1396 C.ar    1  UNL1        0.1345
     14 O          -6.1835    0.3399    0.9897 O.3     1  UNL1       -0.4940
     15 C          -6.2132   -0.3065    2.2654 C.3     1  UNL1        0.0788
     16 C          -5.2690    0.9169   -1.0502 C.ar    1  UNL1        0.0629
     17 BR         -6.7968    1.9614   -1.5054 Br      1  UNL1       -0.0464
     18 C          -4.2457    0.8671   -1.9954 C.ar    1  UNL1       -0.0022
     19 C          -3.0965    0.1180   -1.7251 C.ar    1  UNL1        0.1250
     20 O          -2.0208    0.0172   -2.6261 O.3     1  UNL1       -0.4948
     21 C          -2.0991    0.7090   -3.8782 C.3     1  UNL1        0.0788
     22 C           1.9449   -0.6618    2.1507 C.ar    1  UNL1        0.0007
     23 C           3.0937   -0.1842    2.7906 C.ar    1  UNL1        0.0506
     24 N           3.2243   -0.1260    4.2047 N.pl3   1  UNL1       -0.3567
     25 C           4.1353    0.2440    1.9627 C.ar    1  UNL1        0.1337
     26 C           5.3333    0.7401    2.6198 C.1     1  UNL1        0.1064
     27 N           6.2963    1.1273    3.1506 N.1     1  UNL1       -0.1906
     28 H           6.1829    2.1712   -2.4846 H       1  UNL1        0.0262
     29 H           6.5342    0.5397   -3.1135 H       1  UNL1        0.0262
     30 H           7.0970    1.0046   -1.4157 H       1  UNL1        0.0262
     31 H           4.1899    1.2917   -1.9264 H       1  UNL1        0.0694
     32 H           4.7293   -0.4131   -1.8985 H       1  UNL1        0.0694
     33 H           0.7246   -2.2789    0.3034 H       1  UNL1        0.1562
     34 H          -1.8947   -2.0442    0.5854 H       1  UNL1        0.0408
     35 H          -1.4611   -1.9576   -1.1582 H       1  UNL1        0.0408
     36 H          -3.9109   -1.0497    1.3465 H       1  UNL1        0.0658
     37 H          -5.2193   -0.0630    2.7229 H       1  UNL1        0.0660
     38 H          -6.9689    0.1384    2.9175 H       1  UNL1        0.0660
     39 H          -6.2859   -1.3920    2.1935 H       1  UNL1        0.0660
     40 H          -4.2974    1.3777   -2.9248 H       1  UNL1        0.0666
     41 H          -1.1133    0.6759   -4.3611 H       1  UNL1        0.0660
     42 H          -2.8344    0.1923   -4.5441 H       1  UNL1        0.0660
     43 H          -2.4411    1.7308   -3.7114 H       1  UNL1        0.0660
     44 H           1.1902   -0.9711    2.8641 H       1  UNL1        0.0671
     45 H           2.9601    0.5267    4.9723 H       1  UNL1        0.1424
     46 H           3.7384   -1.0372    4.3846 H       1  UNL1        0.1424
@<TRIPOS>BOND
     1     1     2    1
     2     2     3    1
     3     3     4    1
     4     4     5   ar
     5     5     6   ar
     6     6     7    1
     7     7     8   am
     8     8     9    2
     9     8    10    1
    10    10    11    1
    11    11    12   ar
    12    12    13   ar
    13    13    14    1
    14    14    15    1
    15    13    16   ar
    16    16    17    1
    17    16    18   ar
    18    18    19   ar
    19    19    20    1
    20    20    21    1
    21     6    22   ar
    22    22    23   ar
    23    23    24    1
    24    23    25   ar
    25    25    26    1
    26    26    27    3
    27    25     4   ar
    28    19    11   ar
    29     1    28    1
    30     1    29    1
    31     1    30    1
    32     2    31    1
    33     2    32    1
    34     7    33    1
    35    10    34    1
    36    10    35    1
    37    12    36    1
    38    15    37    1
    39    15    38    1
    40    15    39    1
    41    18    40    1
    42    21    41    1
    43    21    42    1
    44    21    43    1
    45    22    44    1
    46    24    45    1
    47    24    46    1
