
     RDKit          3D

 49 51  0  0  0  0  0  0  0  0999 V2000
   -0.9551   -0.4018    1.3174 C   0  0  0  0  0  0  0  0  0  0  0  0
   -1.5701    0.2746    0.0636 C   0  0  0  0  0  0  0  0  0  0  0  0
   -0.3995    0.5210   -0.8648 C   0  0  0  0  0  0  0  0  0  0  0  0
    0.8626    0.1776   -0.4681 C   0  0  0  0  0  0  0  0  0  0  0  0
    1.9734    0.3814   -1.2704 C   0  0  0  0  0  0  0  0  0  0  0  0
    3.3040    0.0631   -0.9525 N   0  0  0  0  0  0  0  0  0  0  0  0
    3.7939   -0.5240    0.2318 C   0  0  0  0  0  0  0  0  0  0  0  0
    3.0204   -0.8219    1.1437 O   0  0  0  0  0  0  0  0  0  0  0  0
    5.2326   -0.8018    0.4251 C   0  0  0  0  0  0  0  0  0  0  0  0
    5.7040   -1.3744    1.5820 C   0  0  0  0  0  0  0  0  0  0  0  0
    7.0650   -1.6348    1.7593 C   0  0  0  0  0  0  0  0  0  0  0  0
    7.9362   -1.3054    0.7461 C   0  0  0  0  0  0  0  0  0  0  0  0
    9.6549   -1.6245    0.9480 Cl  0  0  0  0  0  0  0  0  0  0  0  0
    7.4393   -0.7297   -0.4101 C   0  0  0  0  0  0  0  0  0  0  0  0
    6.1164   -0.4977   -0.5346 N   0  0  0  0  0  0  0  0  0  0  0  0
    1.7263    0.9566   -2.5038 C   0  0  0  0  0  0  0  0  0  0  0  0
    0.4640    1.3193   -2.9440 C   0  0  0  0  0  0  0  0  0  0  0  0
    0.3171    1.8770   -4.1679 F   0  0  0  0  0  0  0  0  0  0  0  0
   -0.6043    1.0933   -2.1043 C   0  0  0  0  0  0  0  0  0  0  0  0
   -1.8424    1.4366   -2.5121 F   0  0  0  0  0  0  0  0  0  0  0  0
   -2.0252    1.6611    0.4393 C   0  0  0  0  0  0  0  0  0  0  0  0
   -3.7638    1.8264    0.3178 S   0  0  0  0  0  6  0  0  0  0  0  0
   -4.2272    2.5725    1.5573 O   0  0  0  0  0  0  0  0  0  0  0  0
   -4.1512    2.5999   -0.9159 O   0  0  0  0  0  0  0  0  0  0  0  0
   -4.5051    0.2260    0.3441 C   0  0  0  0  0  0  0  0  0  0  0  0
   -5.9429    0.3148   -0.1933 C   0  0  0  0  0  0  0  0  0  0  0  0
   -4.6050   -0.2324    1.7815 C   0  0  0  0  0  0  0  0  0  0  0  0
   -3.7024   -0.6642   -0.5142 C   0  0  0  0  0  0  0  0  0  0  0  0
   -4.4730   -1.6390   -1.2679 N   0  0  0  0  0  0  0  0  0  0  0  0
   -2.4677   -0.5806   -0.5783 N   0  0  0  0  0  0  0  0  0  0  0  0
   -0.4728   -1.3592    1.0542 H   0  0  0  0  0  0  0  0  0  0  0  0
   -1.8109   -0.7026    1.9850 H   0  0  0  0  0  0  0  0  0  0  0  0
   -0.2700    0.2553    1.8414 H   0  0  0  0  0  0  0  0  0  0  0  0
    1.0615   -0.2693    0.4908 H   0  0  0  0  0  0  0  0  0  0  0  0
    4.0818    0.2730   -1.6658 H   0  0  0  0  0  0  0  0  0  0  0  0
    5.0003   -1.6264    2.3684 H   0  0  0  0  0  0  0  0  0  0  0  0
    7.4597   -2.0823    2.6553 H   0  0  0  0  0  0  0  0  0  0  0  0
    8.1597   -0.4872   -1.1801 H   0  0  0  0  0  0  0  0  0  0  0  0
    2.5960    1.1282   -3.1591 H   0  0  0  0  0  0  0  0  0  0  0  0
   -1.5820    2.4545   -0.2177 H   0  0  0  0  0  0  0  0  0  0  0  0
   -1.6445    1.9268    1.4646 H   0  0  0  0  0  0  0  0  0  0  0  0
   -6.2906   -0.7332   -0.2773 H   0  0  0  0  0  0  0  0  0  0  0  0
   -6.5080    0.9031    0.5470 H   0  0  0  0  0  0  0  0  0  0  0  0
   -5.8865    0.8188   -1.1765 H   0  0  0  0  0  0  0  0  0  0  0  0
   -4.2326   -1.2718    1.8866 H   0  0  0  0  0  0  0  0  0  0  0  0
   -5.6267   -0.1161    2.1670 H   0  0  0  0  0  0  0  0  0  0  0  0
   -3.9510    0.3974    2.4339 H   0  0  0  0  0  0  0  0  0  0  0  0
   -4.9863   -1.3679   -2.1225 H   0  0  0  0  0  0  0  0  0  0  0  0
   -4.4723   -2.6102   -0.8947 H   0  0  0  0  0  0  0  0  0  0  0  0
  1  2  1  0
  2  3  1  0
  3  4  2  0
  4  5  1  0
  5  6  1  0
  6  7  1  0
  7  8  2  0
  7  9  1  0
  9 10  2  0
 10 11  1  0
 11 12  2  0
 12 13  1  0
 12 14  1  0
 14 15  2  0
  5 16  2  0
 16 17  1  0
 17 18  1  0
 17 19  2  0
 19 20  1  0
  2 21  1  0
 21 22  1  0
 22 23  2  0
 22 24  2  0
 22 25  1  0
 25 26  1  0
 25 27  1  0
 25 28  1  0
 28 29  1  0
 28 30  2  0
 30  2  1  0
 19  3  1  0
 15  9  1  0
  1 31  1  0
  1 32  1  0
  1 33  1  0
  4 34  1  0
  6 35  1  0
 10 36  1  0
 11 37  1  0
 14 38  1  0
 16 39  1  0
 21 40  1  0
 21 41  1  0
 26 42  1  0
 26 43  1  0
 26 44  1  0
 27 45  1  0
 27 46  1  0
 27 47  1  0
 29 48  1  0
 29 49  1  0
M  END
$$$$
