@<TRIPOS>MOLECULE
*****
 49 51 0 0 0
SMALL
GASTEIGER

@<TRIPOS>ATOM
      1 C          -0.9551   -0.4018    1.3174 C.3     1  UNL1       -0.0112
      2 C          -1.5701    0.2746    0.0636 C.3     1  UNL1        0.1960
      3 C          -0.3995    0.5210   -0.8648 C.ar    1  UNL1        0.0449
      4 C           0.8626    0.1776   -0.4681 C.ar    1  UNL1       -0.0299
      5 C           1.9734    0.3814   -1.2704 C.ar    1  UNL1        0.0370
      6 N           3.3040    0.0631   -0.9525 N.am    1  UNL1       -0.2801
      7 C           3.7939   -0.5240    0.2318 C.2     1  UNL1        0.2666
      8 O           3.0204   -0.8219    1.1437 O.2     1  UNL1       -0.2682
      9 C           5.2326   -0.8018    0.4251 C.ar    1  UNL1        0.1257
     10 C           5.7040   -1.3744    1.5820 C.ar    1  UNL1       -0.0298
     11 C           7.0650   -1.6348    1.7593 C.ar    1  UNL1       -0.0397
     12 C           7.9362   -1.3054    0.7461 C.ar    1  UNL1        0.0591
     13 CL          9.6549   -1.6245    0.9480 Cl      1  UNL1       -0.0820
     14 C           7.4393   -0.7297   -0.4101 C.ar    1  UNL1        0.0467
     15 N           6.1164   -0.4977   -0.5346 N.ar    1  UNL1       -0.2489
     16 C           1.7263    0.9566   -2.5038 C.ar    1  UNL1       -0.0023
     17 C           0.4640    1.3193   -2.9440 C.ar    1  UNL1        0.1606
     18 F           0.3171    1.8770   -4.1679 F       1  UNL1       -0.2024
     19 C          -0.6043    1.0933   -2.1043 C.ar    1  UNL1        0.1661
     20 F          -1.8424    1.4366   -2.5121 F       1  UNL1       -0.2020
     21 C          -2.0252    1.6611    0.4393 C.3     1  UNL1        0.1183
     22 S          -3.7638    1.8264    0.3178 S.O2    1  UNL1       -0.0101
     23 O          -4.2272    2.5725    1.5573 O.2     1  UNL1       -0.1731
     24 O          -4.1512    2.5999   -0.9159 O.2     1  UNL1       -0.1731
     25 C          -4.5051    0.2260    0.3441 C.3     1  UNL1        0.1831
     26 C          -5.9429    0.3148   -0.1933 C.3     1  UNL1       -0.0288
     27 C          -4.6050   -0.2324    1.7815 C.3     1  UNL1       -0.0288
     28 C          -3.7024   -0.6642   -0.5142 C.2     1  UNL1        0.3067
     29 N          -4.4730   -1.6390   -1.2679 N.pl3   1  UNL1       -0.2488
     30 N          -2.4677   -0.5806   -0.5783 N.2     1  UNL1       -0.0727
     31 H          -0.4728   -1.3592    1.0542 H       1  UNL1        0.0279
     32 H          -1.8109   -0.7026    1.9850 H       1  UNL1        0.0279
     33 H          -0.2700    0.2553    1.8414 H       1  UNL1        0.0279
     34 H           1.0615   -0.2693    0.4908 H       1  UNL1        0.0641
     35 H           4.0818    0.2730   -1.6658 H       1  UNL1        0.1552
     36 H           5.0003   -1.6264    2.3684 H       1  UNL1        0.0641
     37 H           7.4597   -2.0823    2.6553 H       1  UNL1        0.0633
     38 H           8.1597   -0.4872   -1.1801 H       1  UNL1        0.0844
     39 H           2.5960    1.1282   -3.1591 H       1  UNL1        0.0666
     40 H          -1.5820    2.4545   -0.2177 H       1  UNL1        0.0550
     41 H          -1.6445    1.9268    1.4646 H       1  UNL1        0.0550
     42 H          -6.2906   -0.7332   -0.2773 H       1  UNL1        0.0256
     43 H          -6.5080    0.9031    0.5470 H       1  UNL1        0.0256
     44 H          -5.8865    0.8188   -1.1765 H       1  UNL1        0.0256
     45 H          -4.2326   -1.2718    1.8866 H       1  UNL1        0.0256
     46 H          -5.6267   -0.1161    2.1670 H       1  UNL1        0.0256
     47 H          -3.9510    0.3974    2.4339 H       1  UNL1        0.0256
     48 H          -4.9863   -1.3679   -2.1225 H       1  UNL1        0.2881
     49 H          -4.4723   -2.6102   -0.8947 H       1  UNL1        0.2881
@<TRIPOS>BOND
     1     1     2    1
     2     2     3    1
     3     3     4   ar
     4     4     5   ar
     5     5     6    1
     6     6     7   am
     7     7     8    2
     8     7     9    1
     9     9    10   ar
    10    10    11   ar
    11    11    12   ar
    12    12    13    1
    13    12    14   ar
    14    14    15   ar
    15     5    16   ar
    16    16    17   ar
    17    17    18    1
    18    17    19   ar
    19    19    20    1
    20     2    21    1
    21    21    22    1
    22    22    23    2
    23    22    24    2
    24    22    25    1
    25    25    26    1
    26    25    27    1
    27    25    28    1
    28    28    29    1
    29    28    30    2
    30    30     2    1
    31    19     3   ar
    32    15     9   ar
    33     1    31    1
    34     1    32    1
    35     1    33    1
    36     4    34    1
    37     6    35    1
    38    10    36    1
    39    11    37    1
    40    14    38    1
    41    16    39    1
    42    21    40    1
    43    21    41    1
    44    26    42    1
    45    26    43    1
    46    26    44    1
    47    27    45    1
    48    27    46    1
    49    27    47    1
    50    29    48    1
    51    29    49    1
