@<TRIPOS>MOLECULE
*****
 58 62 0 0 0
SMALL
GASTEIGER

@<TRIPOS>ATOM
      1 C          -7.3474   -1.1873    0.9607 C.3     1  UNL1       -0.0396
      2 C          -5.8826   -1.1070    0.7281 C.ar    1  UNL1       -0.0483
      3 C          -4.9583   -1.4829    1.6824 C.ar    1  UNL1       -0.0580
      4 C          -3.5988   -1.4061    1.4625 C.ar    1  UNL1       -0.0473
      5 C          -3.0913   -0.9459    0.2677 C.ar    1  UNL1        0.0640
      6 C          -1.6455   -0.8578    0.0235 C.2     1  UNL1        0.2491
      7 O          -1.1288   -1.9047   -0.4929 O.2     1  UNL1       -0.2699
      8 N          -0.9036    0.2865    0.3357 N.am    1  UNL1       -0.2897
      9 C          -1.6299    1.4214    0.9305 C.3     1  UNL1        0.0388
     10 C          -0.9584    1.6979    2.2556 C.3     1  UNL1        0.0635
     11 O           0.3675    2.0124    1.9968 O.3     1  UNL1       -0.3764
     12 C           1.0904    0.9486    1.4564 C.3     1  UNL1        0.0666
     13 C           0.4893    0.4864    0.1431 C.3     1  UNL1        0.0537
     14 C           1.2544   -0.6459   -0.4020 C.3     1  UNL1       -0.0065
     15 C           2.6822   -0.2673   -0.5373 C.ar    1  UNL1       -0.0406
     16 C           3.6560   -0.6964    0.3392 C.ar    1  UNL1       -0.0311
     17 C           4.9876   -0.3260    0.1913 C.ar    1  UNL1        0.0864
     18 N           5.9517   -0.8032    1.1306 N.ar    1  UNL1       -0.1503
     19 N           6.2255   -2.0793    1.4210 N.ar    1  UNL1       -0.1556
     20 C           7.1897   -2.1383    2.3502 C.ar    1  UNL1        0.0697
     21 C           7.5289   -0.8429    2.6496 C.ar    1  UNL1        0.0697
     22 N           6.7391   -0.0735    1.8732 N.ar    1  UNL1       -0.1556
     23 C           5.3398    0.4932   -0.8625 C.ar    1  UNL1       -0.0343
     24 C           4.3923    0.9358   -1.7510 C.ar    1  UNL1       -0.0565
     25 C           3.0610    0.5479   -1.5784 C.ar    1  UNL1       -0.0471
     26 C           2.1048    1.0567   -2.5669 C.3     1  UNL1       -0.0394
     27 C          -4.0078   -0.5670   -0.6947 C.ar    1  UNL1        0.0985
     28 N          -3.5165   -0.0923   -1.9324 N.ar    1  UNL1       -0.1496
     29 N          -2.9452    1.0708   -2.1178 N.ar    1  UNL1       -0.1556
     30 C          -2.6011    1.2011   -3.3994 C.ar    1  UNL1        0.0697
     31 C          -2.9827    0.0506   -4.0417 C.ar    1  UNL1        0.0697
     32 N          -3.5422   -0.7115   -3.0872 N.ar    1  UNL1       -0.1556
     33 C          -5.3834   -0.6453   -0.4704 C.ar    1  UNL1       -0.0309
     34 H          -7.9121   -1.5132    0.0781 H       1  UNL1        0.0278
     35 H          -7.5472   -1.8828    1.7998 H       1  UNL1        0.0278
     36 H          -7.7520   -0.1922    1.3103 H       1  UNL1        0.0278
     37 H          -5.3598   -1.8452    2.6232 H       1  UNL1        0.0620
     38 H          -2.8874   -1.7114    2.2376 H       1  UNL1        0.0626
     39 H          -2.7001    1.2492    0.9927 H       1  UNL1        0.0487
     40 H          -1.4125    2.2794    0.2614 H       1  UNL1        0.0487
     41 H          -0.9606    0.8130    2.9179 H       1  UNL1        0.0575
     42 H          -1.4001    2.5463    2.7919 H       1  UNL1        0.0575
     43 H           2.1116    1.3729    1.2436 H       1  UNL1        0.0578
     44 H           1.2429    0.1452    2.1765 H       1  UNL1        0.0578
     45 H           0.5904    1.3669   -0.5563 H       1  UNL1        0.0526
     46 H           1.1996   -1.4908    0.3465 H       1  UNL1        0.0332
     47 H           0.9278   -1.0569   -1.3477 H       1  UNL1        0.0332
     48 H           3.3350   -1.3379    1.1522 H       1  UNL1        0.0642
     49 H           7.6068   -3.0567    2.7709 H       1  UNL1        0.0864
     50 H           8.2849   -0.5677    3.3709 H       1  UNL1        0.0864
     51 H           6.3883    0.7509   -0.9307 H       1  UNL1        0.0639
     52 H           4.7003    1.5691   -2.5563 H       1  UNL1        0.0621
     53 H           1.1898    0.4557   -2.6878 H       1  UNL1        0.0278
     54 H           1.8479    2.1257   -2.4483 H       1  UNL1        0.0278
     55 H           2.6169    0.9942   -3.5740 H       1  UNL1        0.0278
     56 H          -2.1069    2.0509   -3.8792 H       1  UNL1        0.0864
     57 H          -2.8534   -0.1832   -5.1031 H       1  UNL1        0.0864
     58 H          -6.0869   -0.3375   -1.2535 H       1  UNL1        0.0642
@<TRIPOS>BOND
     1     1     2    1
     2     2     3   ar
     3     3     4   ar
     4     4     5   ar
     5     5     6    1
     6     6     7    2
     7     6     8   am
     8     8     9    1
     9     9    10    1
    10    10    11    1
    11    11    12    1
    12    12    13    1
    13    13    14    1
    14    14    15    1
    15    15    16   ar
    16    16    17   ar
    17    17    18    1
    18    18    19   ar
    19    19    20   ar
    20    20    21   ar
    21    21    22   ar
    22    17    23   ar
    23    23    24   ar
    24    24    25   ar
    25    25    26    1
    26     5    27   ar
    27    27    28    1
    28    28    29   ar
    29    29    30   ar
    30    30    31   ar
    31    31    32   ar
    32    27    33   ar
    33    33     2   ar
    34    13     8    1
    35    25    15   ar
    36    32    28   ar
    37    22    18   ar
    38     1    34    1
    39     1    35    1
    40     1    36    1
    41     3    37    1
    42     4    38    1
    43     9    39    1
    44     9    40    1
    45    10    41    1
    46    10    42    1
    47    12    43    1
    48    12    44    1
    49    13    45    1
    50    14    46    1
    51    14    47    1
    52    16    48    1
    53    20    49    1
    54    21    50    1
    55    23    51    1
    56    24    52    1
    57    26    53    1
    58    26    54    1
    59    26    55    1
    60    30    56    1
    61    31    57    1
    62    33    58    1
