
     RDKit          3D

 58 62  0  0  0  0  0  0  0  0999 V2000
   -7.3474   -1.1873    0.9607 C   0  0  0  0  0  0  0  0  0  0  0  0
   -5.8826   -1.1070    0.7281 C   0  0  0  0  0  0  0  0  0  0  0  0
   -4.9583   -1.4829    1.6824 C   0  0  0  0  0  0  0  0  0  0  0  0
   -3.5988   -1.4061    1.4625 C   0  0  0  0  0  0  0  0  0  0  0  0
   -3.0913   -0.9459    0.2677 C   0  0  0  0  0  0  0  0  0  0  0  0
   -1.6455   -0.8578    0.0235 C   0  0  0  0  0  0  0  0  0  0  0  0
   -1.1288   -1.9047   -0.4929 O   0  0  0  0  0  0  0  0  0  0  0  0
   -0.9036    0.2865    0.3357 N   0  0  0  0  0  0  0  0  0  0  0  0
   -1.6299    1.4214    0.9305 C   0  0  0  0  0  0  0  0  0  0  0  0
   -0.9584    1.6979    2.2556 C   0  0  0  0  0  0  0  0  0  0  0  0
    0.3675    2.0124    1.9968 O   0  0  0  0  0  0  0  0  0  0  0  0
    1.0904    0.9486    1.4564 C   0  0  0  0  0  0  0  0  0  0  0  0
    0.4893    0.4864    0.1431 C   0  0  1  0  0  0  0  0  0  0  0  0
    1.2544   -0.6459   -0.4020 C   0  0  0  0  0  0  0  0  0  0  0  0
    2.6822   -0.2673   -0.5373 C   0  0  0  0  0  0  0  0  0  0  0  0
    3.6560   -0.6964    0.3392 C   0  0  0  0  0  0  0  0  0  0  0  0
    4.9876   -0.3260    0.1913 C   0  0  0  0  0  0  0  0  0  0  0  0
    5.9517   -0.8032    1.1306 N   0  0  0  0  0  0  0  0  0  0  0  0
    6.2255   -2.0793    1.4210 N   0  0  0  0  0  0  0  0  0  0  0  0
    7.1897   -2.1383    2.3502 C   0  0  0  0  0  0  0  0  0  0  0  0
    7.5289   -0.8429    2.6496 C   0  0  0  0  0  0  0  0  0  0  0  0
    6.7391   -0.0735    1.8732 N   0  0  0  0  0  0  0  0  0  0  0  0
    5.3398    0.4932   -0.8625 C   0  0  0  0  0  0  0  0  0  0  0  0
    4.3923    0.9358   -1.7510 C   0  0  0  0  0  0  0  0  0  0  0  0
    3.0610    0.5479   -1.5784 C   0  0  0  0  0  0  0  0  0  0  0  0
    2.1048    1.0567   -2.5669 C   0  0  0  0  0  0  0  0  0  0  0  0
   -4.0078   -0.5670   -0.6947 C   0  0  0  0  0  0  0  0  0  0  0  0
   -3.5165   -0.0923   -1.9324 N   0  0  0  0  0  0  0  0  0  0  0  0
   -2.9452    1.0708   -2.1178 N   0  0  0  0  0  0  0  0  0  0  0  0
   -2.6011    1.2011   -3.3994 C   0  0  0  0  0  0  0  0  0  0  0  0
   -2.9827    0.0506   -4.0417 C   0  0  0  0  0  0  0  0  0  0  0  0
   -3.5422   -0.7115   -3.0872 N   0  0  0  0  0  0  0  0  0  0  0  0
   -5.3834   -0.6453   -0.4704 C   0  0  0  0  0  0  0  0  0  0  0  0
   -7.9121   -1.5132    0.0781 H   0  0  0  0  0  0  0  0  0  0  0  0
   -7.5472   -1.8828    1.7998 H   0  0  0  0  0  0  0  0  0  0  0  0
   -7.7520   -0.1922    1.3103 H   0  0  0  0  0  0  0  0  0  0  0  0
   -5.3598   -1.8452    2.6232 H   0  0  0  0  0  0  0  0  0  0  0  0
   -2.8874   -1.7114    2.2376 H   0  0  0  0  0  0  0  0  0  0  0  0
   -2.7001    1.2492    0.9927 H   0  0  0  0  0  0  0  0  0  0  0  0
   -1.4125    2.2794    0.2614 H   0  0  0  0  0  0  0  0  0  0  0  0
   -0.9606    0.8130    2.9179 H   0  0  0  0  0  0  0  0  0  0  0  0
   -1.4001    2.5463    2.7919 H   0  0  0  0  0  0  0  0  0  0  0  0
    2.1116    1.3729    1.2436 H   0  0  0  0  0  0  0  0  0  0  0  0
    1.2429    0.1452    2.1765 H   0  0  0  0  0  0  0  0  0  0  0  0
    0.5904    1.3669   -0.5563 H   0  0  0  0  0  0  0  0  0  0  0  0
    1.1996   -1.4908    0.3465 H   0  0  0  0  0  0  0  0  0  0  0  0
    0.9278   -1.0569   -1.3477 H   0  0  0  0  0  0  0  0  0  0  0  0
    3.3350   -1.3379    1.1522 H   0  0  0  0  0  0  0  0  0  0  0  0
    7.6068   -3.0567    2.7709 H   0  0  0  0  0  0  0  0  0  0  0  0
    8.2849   -0.5677    3.3709 H   0  0  0  0  0  0  0  0  0  0  0  0
    6.3883    0.7509   -0.9307 H   0  0  0  0  0  0  0  0  0  0  0  0
    4.7003    1.5691   -2.5563 H   0  0  0  0  0  0  0  0  0  0  0  0
    1.1898    0.4557   -2.6878 H   0  0  0  0  0  0  0  0  0  0  0  0
    1.8479    2.1257   -2.4483 H   0  0  0  0  0  0  0  0  0  0  0  0
    2.6169    0.9942   -3.5740 H   0  0  0  0  0  0  0  0  0  0  0  0
   -2.1069    2.0509   -3.8792 H   0  0  0  0  0  0  0  0  0  0  0  0
   -2.8534   -0.1832   -5.1031 H   0  0  0  0  0  0  0  0  0  0  0  0
   -6.0869   -0.3375   -1.2535 H   0  0  0  0  0  0  0  0  0  0  0  0
  1  2  1  0
  2  3  2  0
  3  4  1  0
  4  5  2  0
  5  6  1  0
  6  7  2  0
  6  8  1  0
  8  9  1  0
  9 10  1  0
 10 11  1  0
 11 12  1  0
 12 13  1  0
 13 14  1  0
 14 15  1  0
 15 16  2  0
 16 17  1  0
 17 18  1  0
 18 19  1  0
 19 20  2  0
 20 21  1  0
 21 22  2  0
 17 23  2  0
 23 24  1  0
 24 25  2  0
 25 26  1  0
  5 27  1  0
 27 28  1  0
 28 29  1  0
 29 30  2  0
 30 31  1  0
 31 32  2  0
 27 33  2  0
 33  2  1  0
 13  8  1  0
 25 15  1  0
 32 28  1  0
 22 18  1  0
  1 34  1  0
  1 35  1  0
  1 36  1  0
  3 37  1  0
  4 38  1  0
  9 39  1  0
  9 40  1  0
 10 41  1  0
 10 42  1  0
 12 43  1  0
 12 44  1  0
 13 45  1  6
 14 46  1  0
 14 47  1  0
 16 48  1  0
 20 49  1  0
 21 50  1  0
 23 51  1  0
 24 52  1  0
 26 53  1  0
 26 54  1  0
 26 55  1  0
 30 56  1  0
 31 57  1  0
 33 58  1  0
M  END
$$$$
