@<TRIPOS>MOLECULE
*****
 43 45 0 0 0
SMALL
GASTEIGER

@<TRIPOS>ATOM
      1 C          -6.4246    0.0733    1.7317 C.3     1  UNL1       -0.0510
      2 C          -5.3188   -0.0761    0.7173 C.3     1  UNL1        0.0142
      3 N          -4.5719    1.1692    0.5693 N.3     1  UNL1       -0.1948
      4 S          -3.3334    0.8907   -0.6113 S.O2    1  UNL1        0.0296
      5 O          -3.9765    0.4891   -1.8995 O.2     1  UNL1       -0.1582
      6 O          -2.5958    2.1762   -0.8288 O.2     1  UNL1       -0.1582
      7 C          -2.2178   -0.3950   -0.0421 C.3     1  UNL1        0.0846
      8 C          -1.1677   -0.5935   -1.1025 C.3     1  UNL1       -0.0168
      9 C          -0.3375    0.6354   -1.4109 C.3     1  UNL1       -0.0299
     10 C           0.8281   -0.3405   -1.6330 C.3     1  UNL1        0.0251
     11 N           2.1148    0.1901   -1.2056 N.pl3   1  UNL1       -0.3146
     12 C           2.5580    1.3898   -1.8246 C.3     1  UNL1        0.0023
     13 C           2.8365   -0.5191   -0.2542 C.ar    1  UNL1        0.1337
     14 N           2.4959   -1.8177    0.0202 N.ar    1  UNL1       -0.2200
     15 C           3.1144   -2.6054    0.8766 C.ar    1  UNL1        0.1204
     16 N           4.1659   -2.1355    1.5536 N.ar    1  UNL1       -0.2178
     17 C           4.5655   -0.8567    1.3379 C.ar    1  UNL1        0.1432
     18 N           5.5633   -0.1582    1.8843 N.ar    1  UNL1       -0.3457
     19 C           5.6146    1.0824    1.4033 C.ar    1  UNL1        0.0042
     20 C           4.5684    1.1672    0.4848 C.ar    1  UNL1       -0.0318
     21 C           3.9085   -0.0330    0.4342 C.ar    1  UNL1        0.0585
     22 C           0.1376   -1.2170   -0.5855 C.3     1  UNL1       -0.0299
     23 H          -6.2018    0.9807    2.3333 H       1  UNL1        0.0242
     24 H          -7.4013    0.1825    1.2045 H       1  UNL1        0.0242
     25 H          -6.5011   -0.8391    2.3408 H       1  UNL1        0.0242
     26 H          -4.6490   -0.8949    1.0559 H       1  UNL1        0.0438
     27 H          -5.6958   -0.3562   -0.2807 H       1  UNL1        0.0438
     28 H          -4.1594    1.4856    1.4739 H       1  UNL1        0.1476
     29 H          -2.8202   -1.2939    0.1054 H       1  UNL1        0.0518
     30 H          -1.7693   -0.0803    0.9088 H       1  UNL1        0.0518
     31 H          -1.5094   -1.1014   -2.0122 H       1  UNL1        0.0318
     32 H          -0.6207    1.1775   -2.3348 H       1  UNL1        0.0286
     33 H          -0.1802    1.2392   -0.5121 H       1  UNL1        0.0286
     34 H           0.8121   -0.7530   -2.6406 H       1  UNL1        0.0500
     35 H           2.3351    2.2585   -1.1831 H       1  UNL1        0.0428
     36 H           3.6217    1.4043   -2.1374 H       1  UNL1        0.0428
     37 H           1.9976    1.5062   -2.8125 H       1  UNL1        0.0428
     38 H           2.8078   -3.6236    1.0586 H       1  UNL1        0.1048
     39 H           6.2366   -0.5220    2.6060 H       1  UNL1        0.1668
     40 H           6.2811    1.9066    1.6172 H       1  UNL1        0.0807
     41 H           4.3280    2.0482   -0.0786 H       1  UNL1        0.0640
     42 H           0.3711   -0.8452    0.4317 H       1  UNL1        0.0286
     43 H           0.1898   -2.2894   -0.7594 H       1  UNL1        0.0286
@<TRIPOS>BOND
     1     1     2    1
     2     2     3    1
     3     3     4    1
     4     4     5    2
     5     4     6    2
     6     4     7    1
     7     7     8    1
     8     8     9    1
     9     9    10    1
    10    10    11    1
    11    11    12    1
    12    11    13    1
    13    13    14   ar
    14    14    15   ar
    15    15    16   ar
    16    16    17   ar
    17    17    18   ar
    18    18    19   ar
    19    19    20   ar
    20    20    21   ar
    21    10    22    1
    22    22     8    1
    23    21    13   ar
    24    21    17   ar
    25     1    23    1
    26     1    24    1
    27     1    25    1
    28     2    26    1
    29     2    27    1
    30     3    28    1
    31     7    29    1
    32     7    30    1
    33     8    31    1
    34     9    32    1
    35     9    33    1
    36    10    34    1
    37    12    35    1
    38    12    36    1
    39    12    37    1
    40    15    38    1
    41    18    39    1
    42    19    40    1
    43    20    41    1
    44    22    42    1
    45    22    43    1
