
     RDKit          3D

 43 45  0  0  0  0  0  0  0  0999 V2000
   -6.4246    0.0733    1.7317 C   0  0  0  0  0  0  0  0  0  0  0  0
   -5.3188   -0.0761    0.7173 C   0  0  0  0  0  0  0  0  0  0  0  0
   -4.5719    1.1692    0.5693 N   0  0  0  0  0  0  0  0  0  0  0  0
   -3.3334    0.8907   -0.6113 S   0  0  0  0  0  6  0  0  0  0  0  0
   -3.9765    0.4891   -1.8995 O   0  0  0  0  0  0  0  0  0  0  0  0
   -2.5958    2.1762   -0.8288 O   0  0  0  0  0  0  0  0  0  0  0  0
   -2.2178   -0.3950   -0.0421 C   0  0  0  0  0  0  0  0  0  0  0  0
   -1.1677   -0.5935   -1.1025 C   0  0  1  0  0  0  0  0  0  0  0  0
   -0.3375    0.6354   -1.4109 C   0  0  0  0  0  0  0  0  0  0  0  0
    0.8281   -0.3405   -1.6330 C   0  0  1  0  0  0  0  0  0  0  0  0
    2.1148    0.1901   -1.2056 N   0  0  0  0  0  0  0  0  0  0  0  0
    2.5580    1.3898   -1.8246 C   0  0  0  0  0  0  0  0  0  0  0  0
    2.8365   -0.5191   -0.2542 C   0  0  0  0  0  0  0  0  0  0  0  0
    2.4959   -1.8177    0.0202 N   0  0  0  0  0  0  0  0  0  0  0  0
    3.1144   -2.6054    0.8766 C   0  0  0  0  0  0  0  0  0  0  0  0
    4.1659   -2.1355    1.5536 N   0  0  0  0  0  0  0  0  0  0  0  0
    4.5655   -0.8567    1.3379 C   0  0  0  0  0  0  0  0  0  0  0  0
    5.5633   -0.1582    1.8843 N   0  0  0  0  0  0  0  0  0  0  0  0
    5.6146    1.0824    1.4033 C   0  0  0  0  0  0  0  0  0  0  0  0
    4.5684    1.1672    0.4848 C   0  0  0  0  0  0  0  0  0  0  0  0
    3.9085   -0.0330    0.4342 C   0  0  0  0  0  0  0  0  0  0  0  0
    0.1376   -1.2170   -0.5855 C   0  0  0  0  0  0  0  0  0  0  0  0
   -6.2018    0.9807    2.3333 H   0  0  0  0  0  0  0  0  0  0  0  0
   -7.4013    0.1825    1.2045 H   0  0  0  0  0  0  0  0  0  0  0  0
   -6.5011   -0.8391    2.3408 H   0  0  0  0  0  0  0  0  0  0  0  0
   -4.6490   -0.8949    1.0559 H   0  0  0  0  0  0  0  0  0  0  0  0
   -5.6958   -0.3562   -0.2807 H   0  0  0  0  0  0  0  0  0  0  0  0
   -4.1594    1.4856    1.4739 H   0  0  0  0  0  0  0  0  0  0  0  0
   -2.8202   -1.2939    0.1054 H   0  0  0  0  0  0  0  0  0  0  0  0
   -1.7693   -0.0803    0.9088 H   0  0  0  0  0  0  0  0  0  0  0  0
   -1.5094   -1.1014   -2.0122 H   0  0  0  0  0  0  0  0  0  0  0  0
   -0.6207    1.1775   -2.3348 H   0  0  0  0  0  0  0  0  0  0  0  0
   -0.1802    1.2392   -0.5121 H   0  0  0  0  0  0  0  0  0  0  0  0
    0.8121   -0.7530   -2.6406 H   0  0  0  0  0  0  0  0  0  0  0  0
    2.3351    2.2585   -1.1831 H   0  0  0  0  0  0  0  0  0  0  0  0
    3.6217    1.4043   -2.1374 H   0  0  0  0  0  0  0  0  0  0  0  0
    1.9976    1.5062   -2.8125 H   0  0  0  0  0  0  0  0  0  0  0  0
    2.8078   -3.6236    1.0586 H   0  0  0  0  0  0  0  0  0  0  0  0
    6.2366   -0.5220    2.6060 H   0  0  0  0  0  0  0  0  0  0  0  0
    6.2811    1.9066    1.6172 H   0  0  0  0  0  0  0  0  0  0  0  0
    4.3280    2.0482   -0.0786 H   0  0  0  0  0  0  0  0  0  0  0  0
    0.3711   -0.8452    0.4317 H   0  0  0  0  0  0  0  0  0  0  0  0
    0.1898   -2.2894   -0.7594 H   0  0  0  0  0  0  0  0  0  0  0  0
  1  2  1  0
  2  3  1  0
  3  4  1  0
  4  5  2  0
  4  6  2  0
  4  7  1  0
  7  8  1  0
  8  9  1  0
  9 10  1  0
 10 11  1  0
 11 12  1  0
 11 13  1  0
 13 14  2  0
 14 15  1  0
 15 16  2  0
 16 17  1  0
 17 18  1  0
 18 19  1  0
 19 20  2  0
 20 21  1  0
 10 22  1  0
 22  8  1  0
 21 13  1  0
 21 17  2  0
  1 23  1  0
  1 24  1  0
  1 25  1  0
  2 26  1  0
  2 27  1  0
  3 28  1  0
  7 29  1  0
  7 30  1  0
  8 31  1  6
  9 32  1  0
  9 33  1  0
 10 34  1  6
 12 35  1  0
 12 36  1  0
 12 37  1  0
 15 38  1  0
 18 39  1  0
 19 40  1  0
 20 41  1  0
 22 42  1  0
 22 43  1  0
M  END
$$$$
