@<TRIPOS>MOLECULE
*****
 80 84 0 0 0
SMALL
GASTEIGER

@<TRIPOS>ATOM
      1 C           6.1473    3.6498   -0.8075 C.3     1  UNL1       -0.0155
      2 N           5.3586    3.9722   -1.9612 N.3     1  UNL1       -0.3150
      3 C           4.5647    2.8401   -2.3311 C.3     1  UNL1        0.0210
      4 C           3.6400    2.4821   -1.1887 C.ar    1  UNL1       -0.0332
      5 C           2.3788    3.0664   -1.1327 C.ar    1  UNL1       -0.0560
      6 C           1.5642    2.7221   -0.0850 C.ar    1  UNL1       -0.0428
      7 C           1.9656    1.8136    0.9088 C.ar    1  UNL1        0.0457
      8 CL          0.8397    1.5919    2.2714 Cl      1  UNL1       -0.0832
      9 C           3.1942    1.2503    0.8379 C.ar    1  UNL1       -0.0115
     10 C           3.6773    0.2004    1.7813 C.3     1  UNL1        0.0414
     11 N           3.4611   -1.1854    1.2894 N.am    1  UNL1       -0.2938
     12 C           2.3243   -1.8736    1.6129 C.2     1  UNL1        0.2210
     13 O           1.4334   -1.2748    2.3422 O.2     1  UNL1       -0.2752
     14 C           1.8813   -3.2483    1.2794 C.3     1  UNL1        0.0550
     15 C           2.5510   -4.3223    2.0911 C.3     1  UNL1        0.0076
     16 N           2.0762   -5.5830    1.5969 N.3     1  UNL1       -0.3152
     17 C           1.1870   -5.5169    0.4845 C.3     1  UNL1       -0.0035
     18 C          -0.0255   -4.6417    0.6754 C.3     1  UNL1       -0.0329
     19 C           0.3809   -3.4538    1.5276 C.3     1  UNL1       -0.0024
     20 C          -0.4168   -2.2619    1.2472 C.ar    1  UNL1       -0.0432
     21 C          -1.2843   -1.7429    2.1842 C.ar    1  UNL1       -0.0548
     22 C          -2.0401   -0.6208    1.9414 C.ar    1  UNL1       -0.0197
     23 C          -1.9640    0.0584    0.7133 C.ar    1  UNL1        0.1207
     24 O          -2.7392    1.1549    0.5528 O.3     1  UNL1       -0.4886
     25 C          -2.9474    2.0450   -0.4575 C.3     1  UNL1        0.1235
     26 C          -3.4907    1.5779   -1.7493 C.3     1  UNL1        0.1236
     27 O          -4.7326    0.9832   -1.7989 O.3     1  UNL1       -0.4857
     28 C          -5.9600    1.5156   -1.4540 C.ar    1  UNL1        0.1571
     29 C          -6.5660    1.3590   -0.2431 C.ar    1  UNL1        0.0842
     30 CL         -5.8076    0.3694    1.0160 Cl      1  UNL1       -0.0797
     31 C          -7.8160    1.9403    0.0298 C.ar    1  UNL1       -0.0368
     32 C          -8.4907    2.6920   -0.9039 C.ar    1  UNL1       -0.0475
     33 C          -9.8113    3.3143   -0.6372 C.3     1  UNL1       -0.0396
     34 C          -7.8707    2.8434   -2.1242 C.ar    1  UNL1       -0.0368
     35 C          -6.6550    2.2872   -2.4110 C.ar    1  UNL1        0.0842
     36 CL         -5.9116    2.5089   -3.9722 Cl      1  UNL1       -0.0797
     37 C          -1.0993   -0.4573   -0.2227 C.ar    1  UNL1       -0.0197
     38 C          -0.3555   -1.5842    0.0518 C.ar    1  UNL1       -0.0548
     39 C           4.5111   -1.6714    0.4285 C.3     1  UNL1        0.0265
     40 C           4.7576   -2.9676   -0.1425 C.3     1  UNL1       -0.0326
     41 C           4.1142   -1.9185   -1.0437 C.3     1  UNL1       -0.0326
     42 C           4.0326    1.6027   -0.2324 C.ar    1  UNL1       -0.0513
     43 H           5.5157    3.5822    0.0920 H       1  UNL1        0.0388
     44 H           6.8895    4.4838   -0.6860 H       1  UNL1        0.0388
     45 H           6.7050    2.7102   -1.0130 H       1  UNL1        0.0388
     46 H           5.8874    4.3600   -2.7580 H       1  UNL1        0.1219
     47 H           5.1879    1.9473   -2.4846 H       1  UNL1        0.0473
     48 H           3.9698    3.0725   -3.2312 H       1  UNL1        0.0473
     49 H           2.0979    3.7600   -1.9101 H       1  UNL1        0.0621
     50 H           0.5646    3.1681   -0.0157 H       1  UNL1        0.0632
     51 H           4.7575    0.3815    1.9482 H       1  UNL1        0.0514
     52 H           3.1628    0.3349    2.7492 H       1  UNL1        0.0514
     53 H           2.0117   -3.4449    0.2190 H       1  UNL1        0.0413
     54 H           3.6354   -4.2967    2.1286 H       1  UNL1        0.0432
     55 H           2.1198   -4.2178    3.1356 H       1  UNL1        0.0432
     56 H           1.6334   -6.1759    2.3337 H       1  UNL1        0.1220
     57 H           1.6915   -5.3182   -0.4849 H       1  UNL1        0.0424
     58 H           0.7708   -6.5613    0.3642 H       1  UNL1        0.0424
     59 H          -0.3488   -4.2670   -0.3376 H       1  UNL1        0.0283
     60 H          -0.9071   -5.1778    1.0763 H       1  UNL1        0.0283
     61 H           0.2582   -3.7885    2.5761 H       1  UNL1        0.0357
     62 H          -1.3647   -2.2510    3.1487 H       1  UNL1        0.0622
     63 H          -2.7261   -0.2122    2.6867 H       1  UNL1        0.0654
     64 H          -2.0392    2.6990   -0.6535 H       1  UNL1        0.0731
     65 H          -3.6906    2.8197   -0.0644 H       1  UNL1        0.0731
     66 H          -3.5976    2.5330   -2.3857 H       1  UNL1        0.0731
     67 H          -2.7862    0.9673   -2.3649 H       1  UNL1        0.0731
     68 H          -8.2596    1.7958    0.9916 H       1  UNL1        0.0636
     69 H          -9.6563    4.4082   -0.4552 H       1  UNL1        0.0278
     70 H         -10.4083    3.2320   -1.5933 H       1  UNL1        0.0278
     71 H         -10.3842    2.8203    0.1509 H       1  UNL1        0.0278
     72 H          -8.4165    3.4417   -2.8603 H       1  UNL1        0.0636
     73 H          -0.9984    0.0499   -1.2017 H       1  UNL1        0.0654
     74 H           0.3271   -1.9884   -0.6931 H       1  UNL1        0.0622
     75 H           5.4396   -0.9692    0.3760 H       1  UNL1        0.0500
     76 H           4.2059   -3.8943   -0.1147 H       1  UNL1        0.0284
     77 H           5.8533   -3.2130   -0.4266 H       1  UNL1        0.0284
     78 H           4.7616   -1.5311   -1.8494 H       1  UNL1        0.0284
     79 H           3.0397   -1.9272   -1.2024 H       1  UNL1        0.0284
     80 H           5.0409    1.1505   -0.2685 H       1  UNL1        0.0624
@<TRIPOS>BOND
     1     1     2    1
     2     2     3    1
     3     3     4    1
     4     4     5   ar
     5     5     6   ar
     6     6     7   ar
     7     7     8    1
     8     7     9   ar
     9     9    10    1
    10    10    11    1
    11    11    12   am
    12    12    13    2
    13    12    14    1
    14    14    15    1
    15    15    16    1
    16    16    17    1
    17    17    18    1
    18    18    19    1
    19    19    20    1
    20    20    21   ar
    21    21    22   ar
    22    22    23   ar
    23    23    24    1
    24    24    25    1
    25    25    26    1
    26    26    27    1
    27    27    28    1
    28    28    29   ar
    29    29    30    1
    30    29    31   ar
    31    31    32   ar
    32    32    33    1
    33    32    34   ar
    34    34    35   ar
    35    35    36    1
    36    23    37   ar
    37    37    38   ar
    38    11    39    1
    39    39    40    1
    40    40    41    1
    41     9    42   ar
    42    42     4   ar
    43    19    14    1
    44    38    20   ar
    45    41    39    1
    46    35    28   ar
    47     1    43    1
    48     1    44    1
    49     1    45    1
    50     2    46    1
    51     3    47    1
    52     3    48    1
    53     5    49    1
    54     6    50    1
    55    10    51    1
    56    10    52    1
    57    14    53    1
    58    15    54    1
    59    15    55    1
    60    16    56    1
    61    17    57    1
    62    17    58    1
    63    18    59    1
    64    18    60    1
    65    19    61    1
    66    21    62    1
    67    22    63    1
    68    25    64    1
    69    25    65    1
    70    26    66    1
    71    26    67    1
    72    31    68    1
    73    33    69    1
    74    33    70    1
    75    33    71    1
    76    34    72    1
    77    37    73    1
    78    38    74    1
    79    39    75    1
    80    40    76    1
    81    40    77    1
    82    41    78    1
    83    41    79    1
    84    42    80    1
