@<TRIPOS>MOLECULE
*****
 83 88 0 0 0
SMALL
GASTEIGER

@<TRIPOS>ATOM
      1 O          12.1609    2.9326   -1.7249 O.2     1  UNL1       -0.2452
      2 C          11.6193    1.8663   -1.3170 C.ar    1  UNL1        0.3372
      3 C          12.3768    0.8322   -0.8306 C.ar    1  UNL1        0.0236
      4 C          11.7513   -0.3131   -0.3964 C.ar    1  UNL1       -0.0443
      5 C          10.3814   -0.3569   -0.4758 C.ar    1  UNL1        0.0178
      6 C           9.7395   -1.4778   -0.0543 C.ar    1  UNL1       -0.0476
      7 C           8.3547   -1.5665   -0.1168 C.ar    1  UNL1       -0.0192
      8 C           7.6401   -0.5073   -0.6092 C.ar    1  UNL1        0.1240
      9 O           6.2948   -0.4842   -0.7101 O.3     1  UNL1       -0.4918
     10 C           5.2607   -1.3244   -0.4089 C.3     1  UNL1        0.0896
     11 C           5.0964   -1.6478    1.0543 C.3     1  UNL1       -0.0186
     12 C           3.9362   -2.5715    1.2373 C.3     1  UNL1       -0.0488
     13 C           2.6598   -1.9618    0.7551 C.3     1  UNL1       -0.0401
     14 C           2.3401   -0.6834    1.4923 C.3     1  UNL1       -0.0010
     15 N           1.0833   -0.1671    0.9727 N.3     1  UNL1       -0.2999
     16 C           0.6764    1.0251    1.6134 C.3     1  UNL1        0.0117
     17 C          -0.5516    1.6207    1.0672 C.3     1  UNL1        0.0117
     18 N          -1.2981    0.7608    0.2532 N.3     1  UNL1       -0.2999
     19 C          -2.3241    1.3070   -0.5237 C.3     1  UNL1        0.0004
     20 C          -3.1043    0.3459   -1.3873 C.3     1  UNL1       -0.0246
     21 C          -4.1855    1.1310   -2.1768 C.3     1  UNL1        0.0103
     22 N          -5.0972    1.7647   -1.3061 N.pl3   1  UNL1       -0.3430
     23 C          -6.1058    1.2690   -0.4919 C.ar    1  UNL1        0.0413
     24 C          -6.5753   -0.0481   -0.6459 C.ar    1  UNL1       -0.0047
     25 C          -7.4250   -0.5179    0.3122 C.ar    1  UNL1        0.0469
     26 N          -7.8231    0.2515    1.3831 N.ar    1  UNL1       -0.2512
     27 C          -7.3963    1.4944    1.5379 C.ar    1  UNL1        0.0731
     28 C          -7.8233    2.2512    2.6414 C.ar    1  UNL1       -0.0357
     29 C          -7.3884    3.5270    2.8100 C.ar    1  UNL1       -0.0597
     30 C          -6.5197    4.0621    1.8752 C.ar    1  UNL1       -0.0610
     31 C          -6.0847    3.3344    0.7793 C.ar    1  UNL1       -0.0508
     32 C          -6.5307    2.0478    0.6194 C.ar    1  UNL1        0.0215
     33 C          -7.9373   -1.9308    0.2925 C.3     1  UNL1       -0.0101
     34 C          -7.4376   -2.6985   -0.8868 C.3     1  UNL1       -0.0473
     35 C          -7.4175   -1.8125   -2.1057 C.3     1  UNL1       -0.0486
     36 C          -6.2677   -0.8063   -1.8731 C.3     1  UNL1       -0.0242
     37 C          -1.2815   -0.6178    0.5438 C.3     1  UNL1        0.0117
     38 C           0.1153   -1.1710    0.7341 C.3     1  UNL1        0.0117
     39 C           8.3223    0.6518   -1.0449 C.ar    1  UNL1        0.0231
     40 C           9.6859    0.7349   -0.9823 C.ar    1  UNL1        0.1425
     41 O          10.3175    1.8182   -1.3907 O.2     1  UNL1       -0.4220
     42 H          13.4561    0.9162   -0.7868 H       1  UNL1        0.0689
     43 H          12.2888   -1.1627   -0.0006 H       1  UNL1        0.0627
     44 H          10.2683   -2.3253    0.3379 H       1  UNL1        0.0626
     45 H           7.8480   -2.4547    0.1982 H       1  UNL1        0.0654
     46 H           5.4245   -2.2946   -0.9831 H       1  UNL1        0.0696
     47 H           4.3100   -0.9169   -0.8411 H       1  UNL1        0.0696
     48 H           6.0311   -2.0940    1.4997 H       1  UNL1        0.0298
     49 H           4.9635   -0.6559    1.5681 H       1  UNL1        0.0298
     50 H           4.1752   -3.4925    0.6310 H       1  UNL1        0.0267
     51 H           3.7719   -2.8495    2.3058 H       1  UNL1        0.0267
     52 H           2.6568   -1.8417   -0.3309 H       1  UNL1        0.0278
     53 H           1.8340   -2.7240    0.9455 H       1  UNL1        0.0278
     54 H           2.3094   -0.8261    2.5797 H       1  UNL1        0.0426
     55 H           3.1537    0.0420    1.2717 H       1  UNL1        0.0426
     56 H           1.5070    1.7759    1.5595 H       1  UNL1        0.0439
     57 H           0.5016    0.7615    2.7031 H       1  UNL1        0.0439
     58 H          -1.2315    1.9653    1.9137 H       1  UNL1        0.0439
     59 H          -0.3697    2.5720    0.5056 H       1  UNL1        0.0439
     60 H          -3.0897    1.7779    0.1604 H       1  UNL1        0.0427
     61 H          -1.9386    2.1551   -1.1523 H       1  UNL1        0.0427
     62 H          -2.5313   -0.1977   -2.1248 H       1  UNL1        0.0293
     63 H          -3.6567   -0.3628   -0.7512 H       1  UNL1        0.0293
     64 H          -4.4770    0.4901   -2.9696 H       1  UNL1        0.0461
     65 H          -3.5264    1.9184   -2.7023 H       1  UNL1        0.0461
     66 H          -4.9590    2.8382   -1.3222 H       1  UNL1        0.1461
     67 H          -8.5011    1.8446    3.3794 H       1  UNL1        0.0639
     68 H          -7.7217    4.1084    3.6667 H       1  UNL1        0.0618
     69 H          -6.2054    5.0805    2.0577 H       1  UNL1        0.0618
     70 H          -5.4234    3.8126    0.1184 H       1  UNL1        0.0625
     71 H          -9.0567   -1.8310    0.1861 H       1  UNL1        0.0328
     72 H          -7.7572   -2.4560    1.2330 H       1  UNL1        0.0328
     73 H          -6.4080   -3.0840   -0.7356 H       1  UNL1        0.0269
     74 H          -8.1247   -3.5519   -1.1261 H       1  UNL1        0.0269
     75 H          -8.3362   -1.1716   -2.1430 H       1  UNL1        0.0269
     76 H          -7.2683   -2.4051   -3.0100 H       1  UNL1        0.0269
     77 H          -6.4200   -0.1443   -2.7856 H       1  UNL1        0.0314
     78 H          -5.3752   -1.4060   -1.8809 H       1  UNL1        0.0314
     79 H          -1.8880   -0.8031    1.4675 H       1  UNL1        0.0439
     80 H          -1.7623   -1.2112   -0.2585 H       1  UNL1        0.0439
     81 H           0.4356   -1.7723   -0.1559 H       1  UNL1        0.0439
     82 H           0.0912   -1.8744    1.5867 H       1  UNL1        0.0439
     83 H           7.7632    1.4862   -1.4356 H       1  UNL1        0.0691
@<TRIPOS>BOND
     1     1     2    2
     2     2     3   ar
     3     3     4   ar
     4     4     5   ar
     5     5     6   ar
     6     6     7   ar
     7     7     8   ar
     8     8     9    1
     9     9    10    1
    10    10    11    1
    11    11    12    1
    12    12    13    1
    13    13    14    1
    14    14    15    1
    15    15    16    1
    16    16    17    1
    17    17    18    1
    18    18    19    1
    19    19    20    1
    20    20    21    1
    21    21    22    1
    22    22    23    1
    23    23    24   ar
    24    24    25   ar
    25    25    26   ar
    26    26    27   ar
    27    27    28   ar
    28    28    29   ar
    29    29    30   ar
    30    30    31   ar
    31    31    32   ar
    32    25    33    1
    33    33    34    1
    34    34    35    1
    35    35    36    1
    36    18    37    1
    37    37    38    1
    38     8    39   ar
    39    39    40   ar
    40    40    41   ar
    41    41     2   ar
    42    40     5   ar
    43    38    15    1
    44    32    23   ar
    45    36    24    1
    46    32    27   ar
    47     3    42    1
    48     4    43    1
    49     6    44    1
    50     7    45    1
    51    10    46    1
    52    10    47    1
    53    11    48    1
    54    11    49    1
    55    12    50    1
    56    12    51    1
    57    13    52    1
    58    13    53    1
    59    14    54    1
    60    14    55    1
    61    16    56    1
    62    16    57    1
    63    17    58    1
    64    17    59    1
    65    19    60    1
    66    19    61    1
    67    20    62    1
    68    20    63    1
    69    21    64    1
    70    21    65    1
    71    22    66    1
    72    28    67    1
    73    29    68    1
    74    30    69    1
    75    31    70    1
    76    33    71    1
    77    33    72    1
    78    34    73    1
    79    34    74    1
    80    35    75    1
    81    35    76    1
    82    36    77    1
    83    36    78    1
    84    37    79    1
    85    37    80    1
    86    38    81    1
    87    38    82    1
    88    39    83    1
