
     RDKit          3D

 64 68  0  0  0  0  0  0  0  0999 V2000
   10.4361   -1.8866   -1.1672 C   0  0  0  0  0  0  0  0  0  0  0  0
    9.8558   -0.7946   -0.4815 O   0  0  0  0  0  0  0  0  0  0  0  0
    8.4618   -0.6989   -0.4605 C   0  0  0  0  0  0  0  0  0  0  0  0
    7.6622   -1.6388   -1.0883 C   0  0  0  0  0  0  0  0  0  0  0  0
    6.2872   -1.5496   -1.0710 C   0  0  0  0  0  0  0  0  0  0  0  0
    5.5374   -2.4778   -1.6899 N   0  0  0  0  0  0  0  0  0  0  0  0
    4.1973   -2.4407   -1.7052 C   0  0  0  0  0  0  0  0  0  0  0  0
    3.5678   -1.3965   -1.0519 C   0  0  0  0  0  0  0  0  0  0  0  0
    4.2675   -0.4121   -0.3986 C   0  0  0  0  0  0  0  0  0  0  0  0
    3.7144    0.6566    0.2712 O   0  0  0  0  0  0  0  0  0  0  0  0
    2.3532    0.8501    0.3188 C   0  0  0  0  0  0  0  0  0  0  0  0
    1.6801    0.8396    1.5172 C   0  0  0  0  0  0  0  0  0  0  0  0
    0.3016    1.0381    1.5501 C   0  0  0  0  0  0  0  0  0  0  0  0
   -0.3915    1.2449    0.3893 C   0  0  0  0  0  0  0  0  0  0  0  0
   -1.8205    1.4563    0.3539 N   0  0  0  0  0  0  0  0  0  0  0  0
   -2.7176    0.3816    0.2265 C   0  0  0  0  0  0  0  0  0  0  0  0
   -2.1619   -0.7808    0.1472 O   0  0  0  0  0  0  0  0  0  0  0  0
   -4.1657    0.4395    0.1762 C   0  0  0  0  0  0  0  0  0  0  0  0
   -5.0517    1.4828    0.2075 C   0  0  0  0  0  0  0  0  0  0  0  0
   -4.6987    2.9276    0.3014 C   0  0  0  0  0  0  0  0  0  0  0  0
   -6.3384    1.0209    0.1365 N   0  0  0  0  0  0  0  0  0  0  0  0
   -7.5307    1.8734    0.1469 C   0  0  0  0  0  0  0  0  0  0  0  0
   -6.2697   -0.2827    0.0619 N   0  0  0  0  0  0  0  0  0  0  0  0
   -7.4533   -1.0994   -0.0267 C   0  0  0  0  0  0  0  0  0  0  0  0
   -7.6972   -2.0894    0.8966 C   0  0  0  0  0  0  0  0  0  0  0  0
   -8.8243   -2.8780    0.8244 C   0  0  0  0  0  0  0  0  0  0  0  0
   -9.7252   -2.6666   -0.1978 C   0  0  0  0  0  0  0  0  0  0  0  0
   -9.5055   -1.6883   -1.1286 C   0  0  0  0  0  0  0  0  0  0  0  0
   -8.3706   -0.9102   -1.0375 C   0  0  0  0  0  0  0  0  0  0  0  0
   -4.9966   -0.6985    0.0808 C   0  0  0  0  0  0  0  0  0  0  0  0
   -4.6067   -1.8963    0.0233 O   0  0  0  0  0  0  0  0  0  0  0  0
    0.2836    1.2545   -0.7999 C   0  0  0  0  0  0  0  0  0  0  0  0
    1.6641    1.0573   -0.8480 C   0  0  0  0  0  0  0  0  0  0  0  0
    2.2523    1.0919   -2.0555 F   0  0  0  0  0  0  0  0  0  0  0  0
    5.6467   -0.5158   -0.4249 C   0  0  0  0  0  0  0  0  0  0  0  0
    6.4490    0.4229    0.2022 C   0  0  0  0  0  0  0  0  0  0  0  0
    7.8237    0.3414    0.1899 C   0  0  0  0  0  0  0  0  0  0  0  0
    8.6364    1.2769    0.8152 O   0  0  0  0  0  0  0  0  0  0  0  0
    8.1235    2.3904    1.5163 C   0  0  0  0  0  0  0  0  0  0  0  0
   10.1632   -2.8512   -0.6997 H   0  0  0  0  0  0  0  0  0  0  0  0
   10.0130   -1.8986   -2.1976 H   0  0  0  0  0  0  0  0  0  0  0  0
   11.5329   -1.7634   -1.2678 H   0  0  0  0  0  0  0  0  0  0  0  0
    8.1469   -2.4735   -1.6107 H   0  0  0  0  0  0  0  0  0  0  0  0
    3.6723   -3.2190   -2.2212 H   0  0  0  0  0  0  0  0  0  0  0  0
    2.4987   -1.3588   -1.0510 H   0  0  0  0  0  0  0  0  0  0  0  0
    2.2127    0.6775    2.4436 H   0  0  0  0  0  0  0  0  0  0  0  0
   -0.2497    1.0345    2.4759 H   0  0  0  0  0  0  0  0  0  0  0  0
   -2.2098    2.4141    0.4245 H   0  0  0  0  0  0  0  0  0  0  0  0
   -4.1022    3.2411   -0.5736 H   0  0  0  0  0  0  0  0  0  0  0  0
   -4.2052    3.2199    1.2235 H   0  0  0  0  0  0  0  0  0  0  0  0
   -5.6482    3.5268    0.2129 H   0  0  0  0  0  0  0  0  0  0  0  0
   -7.4850    2.5810   -0.6838 H   0  0  0  0  0  0  0  0  0  0  0  0
   -7.4319    2.4767    1.0974 H   0  0  0  0  0  0  0  0  0  0  0  0
   -8.4394    1.2809    0.2271 H   0  0  0  0  0  0  0  0  0  0  0  0
   -7.0023   -2.2687    1.7039 H   0  0  0  0  0  0  0  0  0  0  0  0
   -9.0278   -3.6678    1.5531 H   0  0  0  0  0  0  0  0  0  0  0  0
  -10.6076   -3.2733   -0.2667 H   0  0  0  0  0  0  0  0  0  0  0  0
  -10.2149   -1.5213   -1.9342 H   0  0  0  0  0  0  0  0  0  0  0  0
   -8.2284   -0.1471   -1.7888 H   0  0  0  0  0  0  0  0  0  0  0  0
   -0.2466    1.4163   -1.7293 H   0  0  0  0  0  0  0  0  0  0  0  0
    5.9662    1.2562    0.7240 H   0  0  0  0  0  0  0  0  0  0  0  0
    8.9994    3.0121    1.8121 H   0  0  0  0  0  0  0  0  0  0  0  0
    7.5343    2.0436    2.3937 H   0  0  0  0  0  0  0  0  0  0  0  0
    7.4835    3.0173    0.8690 H   0  0  0  0  0  0  0  0  0  0  0  0
  1  2  1  0
  2  3  1  0
  3  4  2  0
  4  5  1  0
  5  6  2  0
  6  7  1  0
  7  8  2  0
  8  9  1  0
  9 10  1  0
 10 11  1  0
 11 12  2  0
 12 13  1  0
 13 14  2  0
 14 15  1  0
 15 16  1  0
 16 17  2  0
 16 18  1  0
 18 19  2  0
 19 20  1  0
 19 21  1  0
 21 22  1  0
 21 23  1  0
 23 24  1  0
 24 25  2  0
 25 26  1  0
 26 27  2  0
 27 28  1  0
 28 29  2  0
 23 30  1  0
 30 31  2  0
 14 32  1  0
 32 33  2  0
 33 34  1  0
  9 35  2  0
 35 36  1  0
 36 37  2  0
 37 38  1  0
 38 39  1  0
 37  3  1  0
 35  5  1  0
 33 11  1  0
 30 18  1  0
 29 24  1  0
  1 40  1  0
  1 41  1  0
  1 42  1  0
  4 43  1  0
  7 44  1  0
  8 45  1  0
 12 46  1  0
 13 47  1  0
 15 48  1  0
 20 49  1  0
 20 50  1  0
 20 51  1  0
 22 52  1  0
 22 53  1  0
 22 54  1  0
 25 55  1  0
 26 56  1  0
 27 57  1  0
 28 58  1  0
 29 59  1  0
 32 60  1  0
 36 61  1  0
 39 62  1  0
 39 63  1  0
 39 64  1  0
M  END
$$$$
