@<TRIPOS>MOLECULE
*****
 64 68 0 0 0
SMALL
GASTEIGER

@<TRIPOS>ATOM
      1 C          10.4361   -1.8866   -1.1672 C.3     1  UNL1        0.0790
      2 O           9.8558   -0.7946   -0.4815 O.3     1  UNL1       -0.4914
      3 C           8.4618   -0.6989   -0.4605 C.ar    1  UNL1        0.1635
      4 C           7.6622   -1.6388   -1.0883 C.ar    1  UNL1        0.0098
      5 C           6.2872   -1.5496   -1.0710 C.ar    1  UNL1        0.0782
      6 N           5.5374   -2.4778   -1.6899 N.ar    1  UNL1       -0.2546
      7 C           4.1973   -2.4407   -1.7052 C.ar    1  UNL1        0.0318
      8 C           3.5678   -1.3965   -1.0519 C.ar    1  UNL1       -0.0006
      9 C           4.2675   -0.4121   -0.3986 C.ar    1  UNL1        0.1393
     10 O           3.7144    0.6566    0.2712 O.3     1  UNL1       -0.4524
     11 C           2.3532    0.8501    0.3188 C.ar    1  UNL1        0.1636
     12 C           1.6801    0.8396    1.5172 C.ar    1  UNL1       -0.0147
     13 C           0.3016    1.0381    1.5501 C.ar    1  UNL1       -0.0368
     14 C          -0.3915    1.2449    0.3893 C.ar    1  UNL1        0.0366
     15 N          -1.8205    1.4563    0.3539 N.am    1  UNL1       -0.2812
     16 C          -2.7176    0.3816    0.2265 C.2     1  UNL1        0.2553
     17 O          -2.1619   -0.7808    0.1472 O.2     1  UNL1       -0.2696
     18 C          -4.1657    0.4395    0.1762 C.ar    1  UNL1        0.1235
     19 C          -5.0517    1.4828    0.2075 C.ar    1  UNL1        0.0504
     20 C          -4.6987    2.9276    0.3014 C.3     1  UNL1       -0.0219
     21 N          -6.3384    1.0209    0.1365 N.ar    1  UNL1       -0.2833
     22 C          -7.5307    1.8734    0.1469 C.3     1  UNL1        0.0291
     23 N          -6.2697   -0.2827    0.0619 N.ar    1  UNL1       -0.2166
     24 C          -7.4533   -1.0994   -0.0267 C.ar    1  UNL1        0.0673
     25 C          -7.6972   -2.0894    0.8966 C.ar    1  UNL1       -0.0362
     26 C          -8.8243   -2.8780    0.8244 C.ar    1  UNL1       -0.0598
     27 C          -9.7252   -2.6666   -0.1978 C.ar    1  UNL1       -0.0616
     28 C          -9.5055   -1.6883   -1.1286 C.ar    1  UNL1       -0.0598
     29 C          -8.3706   -0.9102   -1.0375 C.ar    1  UNL1       -0.0362
     30 C          -4.9966   -0.6985    0.0808 C.ar    1  UNL1        0.2843
     31 O          -4.6067   -1.8963    0.0233 O.2     1  UNL1       -0.2650
     32 C           0.2836    1.2545   -0.7999 C.ar    1  UNL1       -0.0015
     33 C           1.6641    1.0573   -0.8480 C.ar    1  UNL1        0.1672
     34 F           2.2523    1.0919   -2.0555 F       1  UNL1       -0.2016
     35 C           5.6467   -0.5158   -0.4249 C.ar    1  UNL1        0.0463
     36 C           6.4490    0.4229    0.2022 C.ar    1  UNL1       -0.0036
     37 C           7.8237    0.3414    0.1899 C.ar    1  UNL1        0.1623
     38 O           8.6364    1.2769    0.8152 O.3     1  UNL1       -0.4914
     39 C           8.1235    2.3904    1.5163 C.3     1  UNL1        0.0790
     40 H          10.1632   -2.8512   -0.6997 H       1  UNL1        0.0660
     41 H          10.0130   -1.8986   -2.1976 H       1  UNL1        0.0660
     42 H          11.5329   -1.7634   -1.2678 H       1  UNL1        0.0660
     43 H           8.1469   -2.4735   -1.6107 H       1  UNL1        0.0677
     44 H           3.6723   -3.2190   -2.2212 H       1  UNL1        0.0831
     45 H           2.4987   -1.3588   -1.0510 H       1  UNL1        0.0670
     46 H           2.2127    0.6775    2.4436 H       1  UNL1        0.0656
     47 H          -0.2497    1.0345    2.4759 H       1  UNL1        0.0637
     48 H          -2.2098    2.4141    0.4245 H       1  UNL1        0.1551
     49 H          -4.1022    3.2411   -0.5736 H       1  UNL1        0.0293
     50 H          -4.2052    3.2199    1.2235 H       1  UNL1        0.0293
     51 H          -5.6482    3.5268    0.2129 H       1  UNL1        0.0293
     52 H          -7.4850    2.5810   -0.6838 H       1  UNL1        0.0472
     53 H          -7.4319    2.4767    1.0974 H       1  UNL1        0.0472
     54 H          -8.4394    1.2809    0.2271 H       1  UNL1        0.0472
     55 H          -7.0023   -2.2687    1.7039 H       1  UNL1        0.0639
     56 H          -9.0278   -3.6678    1.5531 H       1  UNL1        0.0618
     57 H         -10.6076   -3.2733   -0.2667 H       1  UNL1        0.0618
     58 H         -10.2149   -1.5213   -1.9342 H       1  UNL1        0.0618
     59 H          -8.2284   -0.1471   -1.7888 H       1  UNL1        0.0639
     60 H          -0.2466    1.4163   -1.7293 H       1  UNL1        0.0666
     61 H           5.9662    1.2562    0.7240 H       1  UNL1        0.0663
     62 H           8.9994    3.0121    1.8121 H       1  UNL1        0.0660
     63 H           7.5343    2.0436    2.3937 H       1  UNL1        0.0660
     64 H           7.4835    3.0173    0.8690 H       1  UNL1        0.0660
@<TRIPOS>BOND
     1     1     2    1
     2     2     3    1
     3     3     4   ar
     4     4     5   ar
     5     5     6   ar
     6     6     7   ar
     7     7     8   ar
     8     8     9   ar
     9     9    10    1
    10    10    11    1
    11    11    12   ar
    12    12    13   ar
    13    13    14   ar
    14    14    15    1
    15    15    16   am
    16    16    17    2
    17    16    18    1
    18    18    19   ar
    19    19    20    1
    20    19    21   ar
    21    21    22    1
    22    21    23   ar
    23    23    24    1
    24    24    25   ar
    25    25    26   ar
    26    26    27   ar
    27    27    28   ar
    28    28    29   ar
    29    23    30   ar
    30    30    31    2
    31    14    32   ar
    32    32    33   ar
    33    33    34    1
    34     9    35   ar
    35    35    36   ar
    36    36    37   ar
    37    37    38    1
    38    38    39    1
    39    37     3   ar
    40    35     5   ar
    41    33    11   ar
    42    30    18   ar
    43    29    24   ar
    44     1    40    1
    45     1    41    1
    46     1    42    1
    47     4    43    1
    48     7    44    1
    49     8    45    1
    50    12    46    1
    51    13    47    1
    52    15    48    1
    53    20    49    1
    54    20    50    1
    55    20    51    1
    56    22    52    1
    57    22    53    1
    58    22    54    1
    59    25    55    1
    60    26    56    1
    61    27    57    1
    62    28    58    1
    63    29    59    1
    64    32    60    1
    65    36    61    1
    66    39    62    1
    67    39    63    1
    68    39    64    1
