@<TRIPOS>MOLECULE
*****
 65 67 0 0 0
SMALL
GASTEIGER

@<TRIPOS>ATOM
      1 C           4.0755   -0.3519    1.1600 C.3     1  ALA1       -0.0201
      2 C           3.8258   -1.8379    1.3381 C.3     1  ALA1       -0.0194
      3 CA          3.0268   -2.2106    0.0745 C.3     1  ALA1        0.1234
      4 N           2.4313   -0.9246   -0.3270 N.am    1  ALA1       -0.2834
      5 C           1.0207   -0.8743   -0.5623 C.2     1  ALA1        0.2333
      6 O           0.4483   -1.9799   -0.4373 O.2     1  ALA1       -0.2739
      7 CA          0.2876    0.4051   -0.9326 C.3     1  ALA1        0.0827
      8 CB          0.5290    1.4121    0.1886 C.3     1  ALA1       -0.0411
      9 N          -1.0489    0.2320   -1.2695 N.3     1  ALA1       -0.2937
     10 C          -2.1210    0.1117   -0.4171 C.3     0  UNK0        0.1067
     11 C          -2.1236   -0.7109    0.7872 C.3     0  UNK0       -0.0232
     12 C          -3.4733   -0.6295    1.4814 C.3     0  UNK0       -0.0258
     13 C          -4.5881   -1.1335    0.6429 C.ar    0  UNK0       -0.0473
     14 C          -4.7653   -2.5190    0.7799 C.ar    0  UNK0       -0.0586
     15 C          -5.7294   -3.2409    0.1245 C.ar    0  UNK0       -0.0615
     16 C          -6.5922   -2.6100   -0.7245 C.ar    0  UNK0       -0.0617
     17 C          -6.4397   -1.2530   -0.8759 C.ar    0  UNK0       -0.0615
     18 C          -5.4772   -0.5409   -0.2196 C.ar    0  UNK0       -0.0586
     19 C          -2.6561    1.4938   -0.1288 C.2     0  UNK0        0.3243
     20 O          -3.4103    2.3063    0.4655 O.2     0  UNK0       -0.2491
     21 O          -2.1572    2.5970   -0.8051 O.3     0  UNK0       -0.4638
     22 C          -2.6442    3.8887   -0.5536 C.3     0  UNK0        0.0897
     23 C          -1.9466    4.9288   -1.4163 C.3     0  UNK0       -0.0306
     24 C           3.6779   -0.2314   -0.3193 C.3     1  ALA1        0.0298
     25 C           3.7002    1.2101   -0.6401 C.3     1  ALA1       -0.0340
     26 C           5.1996    1.5559   -0.8003 C.3     1  ALA1       -0.0514
     27 C           6.0516    0.5646   -0.0686 C.3     1  ALA1       -0.0527
     28 C           5.5007    0.0609    1.2227 C.3     1  ALA1       -0.0485
     29 C           2.0833   -3.2796    0.3209 C.2     1  ALA1        0.3255
     30 O           1.1894   -4.2987    0.5562 O.3     1  ALA1       -0.4793
     31 OXT         2.7921   -4.2892    0.6577 O.2     1  ALA1       -0.2489
     32 H           3.3948    0.2507    1.8034 H       1  ALA1        0.0319
     33 H           3.1486   -1.9562    2.2027 H       1  ALA1        0.0292
     34 H           4.7592   -2.3984    1.4087 H       1  ALA1        0.0292
     35 HA          3.7765   -2.4811   -0.7225 H       1  ALA1        0.0617
     36 HA          0.8398    0.7867   -1.8071 H       1  ALA1        0.0554
     37 HB1         0.9393    2.3594   -0.1885 H       1  ALA1        0.0249
     38 HB2         1.3002    1.0060    0.9065 H       1  ALA1        0.0249
     39 HB3        -0.3355    1.6167    0.8110 H       1  ALA1        0.0249
     40 H          -1.1084   -0.3131   -2.1578 H       1  ALA1        0.1234
     41 H          -2.9864   -0.3259   -1.0643 H       0  UNK0        0.0576
     42 H          -1.3962   -0.3777    1.5817 H       0  UNK0        0.0289
     43 H          -2.0007   -1.8080    0.6152 H       0  UNK0        0.0289
     44 H          -3.6712    0.4238    1.7309 H       0  UNK0        0.0314
     45 H          -3.4416   -1.1823    2.4579 H       0  UNK0        0.0314
     46 H          -4.1428   -3.1560    1.4295 H       0  UNK0        0.0620
     47 H          -5.8622   -4.3084    0.2333 H       0  UNK0        0.0618
     48 H          -7.3971   -3.0346   -1.3084 H       0  UNK0        0.0618
     49 H          -7.0667   -0.6404   -1.5245 H       0  UNK0        0.0618
     50 H          -5.3260    0.5225   -0.3036 H       0  UNK0        0.0620
     51 H          -2.3872    4.1518    0.5094 H       0  UNK0        0.0694
     52 H          -3.7150    4.0140   -0.7444 H       0  UNK0        0.0694
     53 H          -2.3519    5.9138   -1.1178 H       0  UNK0        0.0262
     54 H          -2.1988    4.7627   -2.4721 H       0  UNK0        0.0262
     55 H          -0.8635    4.9064   -1.2220 H       0  UNK0        0.0262
     56 H           4.4539   -0.8166   -0.8716 H       1  ALA1        0.0503
     57 H           3.1756    1.4945   -1.5503 H       1  ALA1        0.0283
     58 H           3.4145    1.7969    0.2722 H       1  ALA1        0.0283
     59 H           5.4615    1.4967   -1.8778 H       1  ALA1        0.0266
     60 H           5.3900    2.5874   -0.4728 H       1  ALA1        0.0266
     61 H           6.9982    1.1217    0.1921 H       1  ALA1        0.0265
     62 H           6.4075   -0.2563   -0.7586 H       1  ALA1        0.0265
     63 H           5.5596    0.9198    1.9488 H       1  ALA1        0.0269
     64 H           6.1858   -0.7138    1.6012 H       1  ALA1        0.0269
     65 H           0.3793   -4.2141    1.1572 H       1  ALA1        0.2951
@<TRIPOS>BOND
     1     1     2    1
     2     2     3    1
     3     3     4    1
     4     4     5   am
     5     5     6    2
     6     5     7    1
     7     7     8    1
     8     7     9    1
     9     9    10    1
    10    10    11    1
    11    11    12    1
    12    12    13    1
    13    13    14   ar
    14    14    15   ar
    15    15    16   ar
    16    16    17   ar
    17    17    18   ar
    18    10    19    1
    19    19    20    2
    20    19    21    1
    21    21    22    1
    22    22    23    1
    23     4    24    1
    24    24    25    1
    25    25    26    1
    26    26    27    1
    27    27    28    1
    28     3    29    1
    29    29    30    1
    30    29    31    2
    31    24     1    1
    32    28     1    1
    33    18    13   ar
    34     1    32    1
    35     2    33    1
    36     2    34    1
    37     3    35    1
    38     7    36    1
    39     8    37    1
    40     8    38    1
    41     8    39    1
    42     9    40    1
    43    10    41    1
    44    11    42    1
    45    11    43    1
    46    12    44    1
    47    12    45    1
    48    14    46    1
    49    15    47    1
    50    16    48    1
    51    17    49    1
    52    18    50    1
    53    22    51    1
    54    22    52    1
    55    23    53    1
    56    23    54    1
    57    23    55    1
    58    24    56    1
    59    25    57    1
    60    25    58    1
    61    26    59    1
    62    26    60    1
    63    27    61    1
    64    27    62    1
    65    28    63    1
    66    28    64    1
    67    30    65    1
