
     RDKit          3D

 70 72  0  0  0  0  0  0  0  0999 V2000
    3.6501   -0.6080   -2.8888 C   0  0  0  0  0  0  0  0  0  0  0  0
    3.1492    0.0894   -1.6140 C   0  0  0  0  0  0  0  0  0  0  0  0
    4.3779    0.3407   -0.7788 C   0  0  0  0  0  0  0  0  0  0  0  0
    2.0943   -0.7330   -0.9831 C   0  0  0  0  0  0  0  0  0  0  0  0
    1.4866   -0.2948    0.1950 N   0  0  0  0  0  0  0  0  0  0  0  0
    0.9418    1.0265    0.1934 C   0  0  0  0  0  0  0  0  0  0  0  0
   -0.5603    1.0536    0.3456 C   0  0  1  0  0  0  0  0  0  0  0  0
   -1.0433    2.3582    0.3592 O   0  0  0  0  0  0  0  0  0  0  0  0
   -1.3090    0.2871   -0.6885 C   0  0  2  0  0  0  0  0  0  0  0  0
   -1.2319    0.8199   -2.0809 C   0  0  0  0  0  0  0  0  0  0  0  0
   -1.7402    2.1850   -2.2702 C   0  0  0  0  0  0  0  0  0  0  0  0
   -3.0940    2.3968   -2.5577 C   0  0  0  0  0  0  0  0  0  0  0  0
   -3.6644    3.6311   -2.7589 C   0  0  0  0  0  0  0  0  0  0  0  0
   -2.8478    4.7380   -2.6719 C   0  0  0  0  0  0  0  0  0  0  0  0
   -1.5057    4.6144   -2.3929 C   0  0  0  0  0  0  0  0  0  0  0  0
   -0.9804    3.3525   -2.1988 C   0  0  0  0  0  0  0  0  0  0  0  0
   -2.7164    0.3137   -0.3071 N   0  0  0  0  0  0  0  0  0  0  0  0
   -3.3671   -0.9187   -0.0864 C   0  0  0  0  0  0  0  0  0  0  0  0
   -2.7856   -2.0274   -0.2045 O   0  0  0  0  0  0  0  0  0  0  0  0
   -4.6889   -1.1265    0.2799 O   0  0  0  0  0  0  0  0  0  0  0  0
   -5.2477   -2.3971    0.4775 C   0  0  1  0  0  0  0  0  0  0  0  0
   -5.8310   -2.6041    1.8595 C   0  0  0  0  0  0  0  0  0  0  0  0
   -6.7764   -3.7538    1.5875 C   0  0  0  0  0  0  0  0  0  0  0  0
   -6.8527   -3.9240    0.2096 O   0  0  0  0  0  0  0  0  0  0  0  0
   -6.4361   -2.7110   -0.3734 C   0  0  0  0  0  0  0  0  0  0  0  0
    1.9042   -0.9313    1.6723 S   0  0  0  0  0  0  0  0  0  0  0  0
    1.4998   -2.4028    1.6786 O   0  0  0  0  0  0  0  0  0  0  0  0
    0.9995   -0.3076    2.7312 O   0  0  0  0  0  0  0  0  0  0  0  0
    3.5142   -0.7588    2.2295 C   0  0  0  0  0  0  0  0  0  0  0  0
    3.8788    0.3832    2.9101 C   0  0  0  0  0  0  0  0  0  0  0  0
    5.1466    0.5704    3.3859 C   0  0  0  0  0  0  0  0  0  0  0  0
    6.1405   -0.3690    3.2162 C   0  0  0  0  0  0  0  0  0  0  0  0
    7.4912   -0.3044    3.6559 N   0  0  0  0  0  0  0  0  0  0  0  0
    5.8269   -1.5450    2.5340 C   0  0  0  0  0  0  0  0  0  0  0  0
    4.5394   -1.6990    2.0688 C   0  0  0  0  0  0  0  0  0  0  0  0
    4.6373   -0.1635   -3.1309 H   0  0  0  0  0  0  0  0  0  0  0  0
    3.8178   -1.6878   -2.6934 H   0  0  0  0  0  0  0  0  0  0  0  0
    2.9064   -0.4542   -3.7155 H   0  0  0  0  0  0  0  0  0  0  0  0
    2.7921    1.0799   -1.9810 H   0  0  0  0  0  0  0  0  0  0  0  0
    4.9223   -0.5800   -0.5412 H   0  0  0  0  0  0  0  0  0  0  0  0
    4.1803    1.0153    0.0763 H   0  0  0  0  0  0  0  0  0  0  0  0
    5.0919    0.9406   -1.4274 H   0  0  0  0  0  0  0  0  0  0  0  0
    1.3187   -0.9431   -1.7705 H   0  0  0  0  0  0  0  0  0  0  0  0
    2.5492   -1.7522   -0.7654 H   0  0  0  0  0  0  0  0  0  0  0  0
    1.3578    1.7137    0.9488 H   0  0  0  0  0  0  0  0  0  0  0  0
    1.1730    1.4763   -0.7923 H   0  0  0  0  0  0  0  0  0  0  0  0
   -0.8690    0.6291    1.3480 H   0  0  0  0  0  0  0  0  0  0  0  0
   -0.3593    2.9250    0.7670 H   0  0  0  0  0  0  0  0  0  0  0  0
   -0.9898   -0.7772   -0.7409 H   0  0  0  0  0  0  0  0  0  0  0  0
   -1.9017    0.1509   -2.6988 H   0  0  0  0  0  0  0  0  0  0  0  0
   -0.2236    0.6944   -2.5268 H   0  0  0  0  0  0  0  0  0  0  0  0
   -3.7579    1.5487   -2.6321 H   0  0  0  0  0  0  0  0  0  0  0  0
   -4.7178    3.7369   -2.9784 H   0  0  0  0  0  0  0  0  0  0  0  0
   -3.2078    5.7481   -2.8150 H   0  0  0  0  0  0  0  0  0  0  0  0
   -0.8669    5.4813   -2.3248 H   0  0  0  0  0  0  0  0  0  0  0  0
    0.0698    3.2433   -1.9816 H   0  0  0  0  0  0  0  0  0  0  0  0
   -3.2967    1.1657   -0.1800 H   0  0  0  0  0  0  0  0  0  0  0  0
   -4.5079   -3.2119    0.3080 H   0  0  0  0  0  0  0  0  0  0  0  0
   -6.4309   -1.7161    2.1028 H   0  0  0  0  0  0  0  0  0  0  0  0
   -5.0534   -2.8555    2.6067 H   0  0  0  0  0  0  0  0  0  0  0  0
   -6.3005   -4.6651    2.0173 H   0  0  0  0  0  0  0  0  0  0  0  0
   -7.7509   -3.6675    2.0759 H   0  0  0  0  0  0  0  0  0  0  0  0
   -7.2861   -2.0113   -0.2168 H   0  0  0  0  0  0  0  0  0  0  0  0
   -6.2284   -2.9184   -1.4274 H   0  0  0  0  0  0  0  0  0  0  0  0
    3.2310    1.2096    3.1277 H   0  0  0  0  0  0  0  0  0  0  0  0
    5.4855    1.4463    3.9256 H   0  0  0  0  0  0  0  0  0  0  0  0
    7.5150   -0.7174    4.6050 H   0  0  0  0  0  0  0  0  0  0  0  0
    8.0158    0.1493    2.8532 H   0  0  0  0  0  0  0  0  0  0  0  0
    6.4899   -2.3760    2.3184 H   0  0  0  0  0  0  0  0  0  0  0  0
    4.2326   -2.6012    1.5254 H   0  0  0  0  0  0  0  0  0  0  0  0
  1  2  1  0
  2  3  1  0
  2  4  1  0
  4  5  1  0
  5  6  1  0
  6  7  1  0
  7  8  1  0
  7  9  1  0
  9 10  1  0
 10 11  1  0
 11 12  2  0
 12 13  1  0
 13 14  2  0
 14 15  1  0
 15 16  2  0
  9 17  1  0
 17 18  1  0
 18 19  2  0
 18 20  1  0
 20 21  1  0
 21 22  1  0
 22 23  1  0
 23 24  1  0
 24 25  1  0
  5 26  1  0
 26 27  2  0
 26 28  2  0
 26 29  1  0
 29 30  2  0
 30 31  1  0
 31 32  2  0
 32 33  1  0
 32 34  1  0
 34 35  2  0
 16 11  1  0
 25 21  1  0
 35 29  1  0
  1 36  1  0
  1 37  1  0
  1 38  1  0
  2 39  1  0
  3 40  1  0
  3 41  1  0
  3 42  1  0
  4 43  1  0
  4 44  1  0
  6 45  1  0
  6 46  1  0
  7 47  1  1
  8 48  1  0
  9 49  1  6
 10 50  1  0
 10 51  1  0
 12 52  1  0
 13 53  1  0
 14 54  1  0
 15 55  1  0
 16 56  1  0
 17 57  1  0
 21 58  1  6
 22 59  1  0
 22 60  1  0
 23 61  1  0
 23 62  1  0
 25 63  1  0
 25 64  1  0
 30 65  1  0
 31 66  1  0
 33 67  1  0
 33 68  1  0
 34 69  1  0
 35 70  1  0
M  END
$$$$
