@<TRIPOS>MOLECULE
*****
 212 212 0 0 0
SMALL
GASTEIGER

@<TRIPOS>ATOM
      1 C          -4.9342    9.7444   -3.6402 C.3     1  UNL1       -0.0468
      2 C          -4.3360    8.5016   -3.1266 C.2     1  UNL1       -0.0910
      3 C          -4.0464    8.2876   -1.8491 C.2     1  UNL1       -0.0879
      4 C          -3.4340    7.0009   -1.3603 C.3     1  UNL1       -0.0298
      5 C          -4.3848    6.4296   -0.3775 C.3     1  UNL1       -0.0122
      6 C          -5.7034    6.1721   -1.0700 C.3     1  UNL1       -0.0597
      7 C          -3.9257    5.2451    0.4201 C.3     1  UNL1        0.0850
      8 O          -4.9301    4.8690    1.2878 O.3     1  UNL1       -0.3892
      9 C          -3.1879    4.1787   -0.2957 C.3     1  UNL1        0.1279
     10 C          -2.1504    3.6124    0.5223 C.2     1  UNL1        0.2367
     11 O          -1.7444    4.4847    1.4348 O.2     1  UNL1       -0.2737
     12 N          -1.3837    2.4808    0.7303 N.am    1  UNL1       -0.3024
     13 C          -0.3759    2.3221    1.8269 C.3     1  UNL1        0.0994
     14 C          -0.3961    0.9648    2.3809 C.3     1  UNL1       -0.0288
     15 C          -1.7698    0.6099    2.9764 C.3     1  UNL1       -0.0631
     16 C           0.8894    2.8939    1.3287 C.2     1  UNL1        0.2368
     17 O           0.6776    3.3925    0.1188 O.2     1  UNL1       -0.2735
     18 N           2.2313    3.1511    1.5458 N.am    1  UNL1       -0.2830
     19 C           3.0599    2.7176    2.5903 C.3     1  UNL1        0.0047
     20 C           3.0063    3.9748    0.5512 C.3     1  UNL1        0.1489
     21 S           3.5348    5.5382    1.2767 S.3     1  UNL1       -0.1279
     22 C           4.7833    5.3221    2.5239 C.3     1  UNL1        0.0086
     23 C           5.3907    6.6627    2.9631 C.3     1  UNL1        0.0074
     24 N           6.0111    7.3670    1.8833 N.3     1  UNL1       -0.3076
     25 C           5.0532    7.8554    0.9504 C.3     1  UNL1       -0.0130
     26 C           7.0286    8.2952    2.2324 C.3     1  UNL1       -0.0130
     27 C           4.1601    3.2559   -0.0010 C.2     1  UNL1        0.2468
     28 O           4.1907    2.0182    0.4313 O.2     1  UNL1       -0.2726
     29 N           5.2589    3.3530   -0.8223 N.am    1  UNL1       -0.2906
     30 C           5.7530    4.3257   -1.7165 C.3     1  UNL1        0.0040
     31 C           6.1830    2.1329   -0.8412 C.3     1  UNL1        0.1045
     32 C           6.8614    2.0549    0.4619 C.3     1  UNL1        0.0027
     33 C           7.8096    0.9092    0.6856 C.3     1  UNL1        0.0627
     34 C           8.9185    0.8957   -0.3344 C.3     1  UNL1       -0.0363
     35 C           8.4587    1.1077    2.0860 C.3     1  UNL1       -0.0363
     36 O           7.1483   -0.3011    0.7523 O.3     1  UNL1       -0.3890
     37 C           5.5939    1.0093   -1.5124 C.2     1  UNL1        0.2343
     38 O           4.3755    1.2245   -1.9574 O.2     1  UNL1       -0.2738
     39 N           5.8624   -0.3022   -1.8863 N.am    1  UNL1       -0.3022
     40 C           4.9198   -1.1932   -2.6218 C.3     1  UNL1        0.1019
     41 C           5.4382   -1.3106   -4.0623 C.3     1  UNL1       -0.0197
     42 C           4.4972   -2.1578   -4.8523 C.3     1  UNL1       -0.0605
     43 C           6.8084   -1.9284   -4.0988 C.3     1  UNL1       -0.0605
     44 C           4.8348   -2.5524   -2.0706 C.2     1  UNL1        0.2365
     45 O           3.9687   -3.2885   -2.7957 O.2     1  UNL1       -0.2735
     46 N           5.2119   -3.4890   -1.1338 N.am    1  UNL1       -0.2914
     47 C           5.9813   -3.3224    0.0344 C.3     1  UNL1        0.0040
     48 C           4.7946   -4.9359   -1.1862 C.3     1  UNL1        0.1021
     49 C           6.0057   -5.8230   -1.1328 C.3     1  UNL1       -0.0234
     50 C           6.9739   -5.6226   -2.2667 C.3     1  UNL1       -0.0446
     51 C           6.3130   -5.9199   -3.6010 C.3     1  UNL1       -0.0626
     52 C           8.1175   -6.6226   -2.1164 C.3     1  UNL1       -0.0626
     53 C           3.8830   -5.1572   -0.0278 C.2     1  UNL1        0.2341
     54 O           4.0189   -6.4046    0.4185 O.2     1  UNL1       -0.2738
     55 N           2.9491   -4.5329    0.7356 N.am    1  UNL1       -0.3027
     56 C           2.3044   -5.1418    1.8924 C.3     1  UNL1        0.0966
     57 C           2.6693   -4.3482    3.1638 C.3     1  UNL1       -0.0381
     58 C           0.8887   -5.4425    1.8136 C.2     1  UNL1        0.2337
     59 O           0.3812   -5.7922    2.9984 O.2     1  UNL1       -0.2738
     60 N          -0.1776   -5.5118    0.9253 N.am    1  UNL1       -0.3027
     61 C          -1.5542   -5.8154    1.3029 C.3     1  UNL1        0.0968
     62 C          -1.7459   -7.3488    1.3312 C.3     1  UNL1       -0.0381
     63 C          -2.5733   -5.1829    0.4966 C.2     1  UNL1        0.2360
     64 O          -3.7697   -5.5159    1.0610 O.2     1  UNL1       -0.2736
     65 N          -3.0225   -4.4205   -0.5368 N.am    1  UNL1       -0.2914
     66 C          -2.3014   -3.7025   -1.5058 C.3     1  UNL1        0.0040
     67 C          -4.5464   -4.2988   -0.7071 C.3     1  UNL1        0.1023
     68 C          -5.0514   -5.5181   -1.3116 C.3     1  UNL1       -0.0234
     69 C          -6.4628   -5.7837   -1.6129 C.3     1  UNL1       -0.0446
     70 C          -7.1965   -4.8218   -2.4710 C.3     1  UNL1       -0.0626
     71 C          -7.3096   -6.3806   -0.5425 C.3     1  UNL1       -0.0626
     72 C          -5.1144   -3.4768    0.3117 C.2     1  UNL1        0.2365
     73 O          -4.1736   -2.6455    0.7941 O.2     1  UNL1       -0.2735
     74 N          -6.1884   -3.0866    1.0980 N.am    1  UNL1       -0.2914
     75 C          -7.4676   -3.6745    1.2987 C.3     1  UNL1        0.0040
     76 C          -6.0838   -1.8446    1.9251 C.3     1  UNL1        0.1023
     77 C          -5.1397   -1.7705    3.0089 C.3     1  UNL1       -0.0234
     78 C          -5.2531   -2.7493    4.1419 C.3     1  UNL1       -0.0446
     79 C          -6.5606   -2.6949    4.8615 C.3     1  UNL1       -0.0626
     80 C          -4.7569   -4.1094    3.7999 C.3     1  UNL1       -0.0626
     81 C          -6.0358   -0.6655    0.9988 C.2     1  UNL1        0.2365
     82 O          -5.8655   -1.0919   -0.2340 O.2     1  UNL1       -0.2735
     83 N          -6.1013    0.7012    0.8553 N.am    1  UNL1       -0.2912
     84 C          -6.4314    1.7031    1.7970 C.3     1  UNL1        0.0040
     85 C          -5.8300    1.2985   -0.5119 C.3     1  UNL1        0.1044
     86 C          -7.1336    1.9354   -0.9274 C.3     1  UNL1       -0.0195
     87 C          -7.0079    2.5658   -2.3165 C.3     1  UNL1       -0.0605
     88 C          -8.2363    0.8974   -1.0577 C.3     1  UNL1       -0.0605
     89 C          -4.8042    2.3301   -0.4390 C.2     1  UNL1        0.2368
     90 O          -4.3489    2.5114    0.7875 O.2     1  UNL1       -0.2735
     91 N          -4.0258    3.2677   -1.1228 N.am    1  UNL1       -0.2890
     92 C          -3.8174    3.4964   -2.5150 C.3     1  UNL1        0.0041
     93 H          -5.3693    9.5395   -4.6398 H       1  UNL1        0.0272
     94 H          -5.7542   10.1440   -3.0229 H       1  UNL1        0.0272
     95 H          -4.1245   10.4776   -3.8029 H       1  UNL1        0.0272
     96 H          -4.1014    7.6796   -3.8123 H       1  UNL1        0.0566
     97 H          -4.2754    9.0981   -1.1651 H       1  UNL1        0.0569
     98 H          -2.4652    7.3193   -0.9153 H       1  UNL1        0.0311
     99 H          -3.2954    6.3920   -2.2724 H       1  UNL1        0.0311
    100 H          -4.6224    7.2938    0.3294 H       1  UNL1        0.0327
    101 H          -6.4462    6.9849   -0.8990 H       1  UNL1        0.0233
    102 H          -5.5889    5.9240   -2.1307 H       1  UNL1        0.0233
    103 H          -6.1727    5.2728   -0.5755 H       1  UNL1        0.0233
    104 H          -3.1713    5.7254    1.1579 H       1  UNL1        0.0619
    105 H          -5.4129    5.6541    1.5998 H       1  UNL1        0.2099
    106 H          -2.6428    4.7796   -1.1240 H       1  UNL1        0.0623
    107 H          -1.3782    1.6422    0.1937 H       1  UNL1        0.1495
    108 H          -0.6911    3.0434    2.6561 H       1  UNL1        0.0594
    109 H          -0.0472    0.1634    1.7095 H       1  UNL1        0.0285
    110 H           0.2968    0.9397    3.2626 H       1  UNL1        0.0285
    111 H          -1.8499    1.0282    4.0181 H       1  UNL1        0.0230
    112 H          -1.8660   -0.4889    3.0799 H       1  UNL1        0.0230
    113 H          -2.5773    0.9709    2.3326 H       1  UNL1        0.0230
    114 H           2.8068    3.1198    3.5992 H       1  UNL1        0.0429
    115 H           4.1658    2.9188    2.3951 H       1  UNL1        0.0429
    116 H           3.1346    1.5945    2.7533 H       1  UNL1        0.0429
    117 H           2.2796    4.2427   -0.2883 H       1  UNL1        0.0715
    118 H           4.3363    4.9164    3.4834 H       1  UNL1        0.0389
    119 H           5.6433    4.7038    2.2522 H       1  UNL1        0.0389
    120 H           6.2141    6.4054    3.6911 H       1  UNL1        0.0434
    121 H           4.6843    7.3029    3.4855 H       1  UNL1        0.0434
    122 H           4.9858    7.2104    0.0655 H       1  UNL1        0.0391
    123 H           4.0789    7.9746    1.4649 H       1  UNL1        0.0391
    124 H           5.3887    8.8684    0.5679 H       1  UNL1        0.0391
    125 H           7.6618    7.9139    3.0698 H       1  UNL1        0.0391
    126 H           7.7125    8.4858    1.3548 H       1  UNL1        0.0391
    127 H           6.6538    9.2912    2.5431 H       1  UNL1        0.0391
    128 H           6.6441    3.9806   -2.2984 H       1  UNL1        0.0429
    129 H           6.1478    5.2461   -1.2044 H       1  UNL1        0.0429
    130 H           5.0572    4.5908   -2.5702 H       1  UNL1        0.0429
    131 H           7.0254    2.4578   -1.5704 H       1  UNL1        0.0597
    132 H           7.5379    2.9852    0.5297 H       1  UNL1        0.0315
    133 H           6.1819    2.1094    1.3619 H       1  UNL1        0.0315
    134 H           8.8722   -0.0401   -0.9130 H       1  UNL1        0.0257
    135 H           8.8159    1.7587   -1.0002 H       1  UNL1        0.0257
    136 H           9.9241    0.9426    0.1591 H       1  UNL1        0.0257
    137 H           9.3393    0.4598    2.1022 H       1  UNL1        0.0257
    138 H           8.6443    2.1737    2.2272 H       1  UNL1        0.0257
    139 H           7.6974    0.7636    2.7892 H       1  UNL1        0.0257
    140 H           7.5126   -0.8631    1.4669 H       1  UNL1        0.2101
    141 H           6.7198   -0.8184   -1.7268 H       1  UNL1        0.1495
    142 H           3.9318   -0.7141   -2.7666 H       1  UNL1        0.0597
    143 H           5.4363   -0.2906   -4.5396 H       1  UNL1        0.0318
    144 H           4.4837   -1.8182   -5.9433 H       1  UNL1        0.0233
    145 H           4.7418   -3.2273   -4.9005 H       1  UNL1        0.0233
    146 H           3.4237   -2.0567   -4.5690 H       1  UNL1        0.0233
    147 H           6.8672   -2.8124   -4.7691 H       1  UNL1        0.0233
    148 H           7.5527   -1.1959   -4.5175 H       1  UNL1        0.0233
    149 H           7.1891   -2.2321   -3.1291 H       1  UNL1        0.0233
    150 H           7.0764   -3.2001   -0.1547 H       1  UNL1        0.0429
    151 H           5.5973   -2.5543    0.7823 H       1  UNL1        0.0429
    152 H           5.9702   -4.2296    0.7302 H       1  UNL1        0.0429
    153 H           4.1996   -5.1905   -2.0504 H       1  UNL1        0.0597
    154 H           5.5836   -6.8679   -1.3109 H       1  UNL1        0.0290
    155 H           6.4938   -5.9116   -0.1636 H       1  UNL1        0.0290
    156 H           7.3902   -4.5932   -2.2876 H       1  UNL1        0.0296
    157 H           5.9887   -6.9812   -3.6654 H       1  UNL1        0.0232
    158 H           5.5264   -5.2114   -3.8654 H       1  UNL1        0.0232
    159 H           7.1082   -5.8310   -4.3952 H       1  UNL1        0.0232
    160 H           8.7142   -6.7384   -3.0332 H       1  UNL1        0.0232
    161 H           7.7049   -7.6199   -1.7978 H       1  UNL1        0.0232
    162 H           8.7378   -6.2813   -1.2368 H       1  UNL1        0.0232
    163 H           2.5504   -3.6090    0.6218 H       1  UNL1        0.1495
    164 H           2.7990   -6.1476    2.1265 H       1  UNL1        0.0592
    165 H           2.4122   -3.2943    3.0928 H       1  UNL1        0.0252
    166 H           3.7789   -4.5085    3.3115 H       1  UNL1        0.0252
    167 H           2.1762   -4.9043    3.9829 H       1  UNL1        0.0252
    168 H          -0.1375   -5.3775   -0.0714 H       1  UNL1        0.1495
    169 H          -1.6705   -5.5790    2.3978 H       1  UNL1        0.0592
    170 H          -1.0484   -7.7951    0.5953 H       1  UNL1        0.0252
    171 H          -2.7667   -7.6055    1.0055 H       1  UNL1        0.0252
    172 H          -1.5517   -7.7852    2.3048 H       1  UNL1        0.0252
    173 H          -1.7599   -4.3598   -2.2542 H       1  UNL1        0.0429
    174 H          -1.6578   -2.8721   -1.1336 H       1  UNL1        0.0429
    175 H          -2.9951   -3.1357   -2.2240 H       1  UNL1        0.0429
    176 H          -4.5422   -3.5931   -1.6941 H       1  UNL1        0.0597
    177 H          -4.4385   -5.7173   -2.2993 H       1  UNL1        0.0290
    178 H          -4.6630   -6.4258   -0.7221 H       1  UNL1        0.0290
    179 H          -6.3652   -6.7160   -2.3743 H       1  UNL1        0.0296
    180 H          -7.2250   -5.0717   -3.5513 H       1  UNL1        0.0232
    181 H          -8.2822   -4.8550   -2.1386 H       1  UNL1        0.0232
    182 H          -6.9103   -3.7554   -2.3008 H       1  UNL1        0.0232
    183 H          -8.2565   -5.8207   -0.4083 H       1  UNL1        0.0232
    184 H          -7.6226   -7.4209   -0.8397 H       1  UNL1        0.0232
    185 H          -6.7769   -6.4413    0.4409 H       1  UNL1        0.0232
    186 H          -8.1034   -3.1088    2.0369 H       1  UNL1        0.0429
    187 H          -7.4793   -4.6845    1.7816 H       1  UNL1        0.0429
    188 H          -8.1174   -3.6253    0.3762 H       1  UNL1        0.0429
    189 H          -7.1051   -1.8556    2.4365 H       1  UNL1        0.0597
    190 H          -4.0811   -1.7050    2.7321 H       1  UNL1        0.0290
    191 H          -5.3055   -0.7464    3.5340 H       1  UNL1        0.0290
    192 H          -4.4953   -2.3568    4.9156 H       1  UNL1        0.0296
    193 H          -7.2496   -3.4539    4.4869 H       1  UNL1        0.0232
    194 H          -6.4209   -2.7739    5.9792 H       1  UNL1        0.0232
    195 H          -7.0388   -1.7009    4.7153 H       1  UNL1        0.0232
    196 H          -5.3944   -4.6070    3.0523 H       1  UNL1        0.0232
    197 H          -3.7219   -4.0533    3.3526 H       1  UNL1        0.0232
    198 H          -4.7319   -4.7017    4.7396 H       1  UNL1        0.0232
    199 H          -5.6371    1.8465    2.5986 H       1  UNL1        0.0429
    200 H          -6.4921    2.7316    1.3760 H       1  UNL1        0.0429
    201 H          -7.4575    1.6117    2.2706 H       1  UNL1        0.0429
    202 H          -5.5790    0.4618   -1.2305 H       1  UNL1        0.0599
    203 H          -7.4587    2.6694   -0.2138 H       1  UNL1        0.0318
    204 H          -7.9799    2.4909   -2.8449 H       1  UNL1        0.0233
    205 H          -6.2455    1.9731   -2.8573 H       1  UNL1        0.0233
    206 H          -6.7960    3.6276   -2.1983 H       1  UNL1        0.0233
    207 H          -8.5849    0.4912   -0.1105 H       1  UNL1        0.0233
    208 H          -9.1133    1.3614   -1.5707 H       1  UNL1        0.0233
    209 H          -7.8423    0.1264   -1.7714 H       1  UNL1        0.0233
    210 H          -3.5174    2.5758   -3.1141 H       1  UNL1        0.0429
    211 H          -4.6199    3.9741   -3.0561 H       1  UNL1        0.0429
    212 H          -2.9167    4.1320   -2.7156 H       1  UNL1        0.0429
@<TRIPOS>BOND
     1     1     2    1
     2     2     3    2
     3     3     4    1
     4     4     5    1
     5     5     6    1
     6     5     7    1
     7     7     8    1
     8     7     9    1
     9     9    10    1
    10    10    11    2
    11    10    12   am
    12    12    13    1
    13    13    14    1
    14    14    15    1
    15    13    16    1
    16    16    17    2
    17    16    18   am
    18    18    19    1
    19    18    20    1
    20    20    21    1
    21    21    22    1
    22    22    23    1
    23    23    24    1
    24    24    25    1
    25    24    26    1
    26    20    27    1
    27    27    28    2
    28    27    29   am
    29    29    30    1
    30    29    31    1
    31    31    32    1
    32    32    33    1
    33    33    34    1
    34    33    35    1
    35    33    36    1
    36    31    37    1
    37    37    38    2
    38    37    39   am
    39    39    40    1
    40    40    41    1
    41    41    42    1
    42    41    43    1
    43    40    44    1
    44    44    45    2
    45    44    46   am
    46    46    47    1
    47    46    48    1
    48    48    49    1
    49    49    50    1
    50    50    51    1
    51    50    52    1
    52    48    53    1
    53    53    54    2
    54    53    55   am
    55    55    56    1
    56    56    57    1
    57    56    58    1
    58    58    59    2
    59    58    60   am
    60    60    61    1
    61    61    62    1
    62    61    63    1
    63    63    64    2
    64    63    65   am
    65    65    66    1
    66    65    67    1
    67    67    68    1
    68    68    69    1
    69    69    70    1
    70    69    71    1
    71    67    72    1
    72    72    73    2
    73    72    74   am
    74    74    75    1
    75    74    76    1
    76    76    77    1
    77    77    78    1
    78    78    79    1
    79    78    80    1
    80    76    81    1
    81    81    82    2
    82    81    83   am
    83    83    84    1
    84    83    85    1
    85    85    86    1
    86    86    87    1
    87    86    88    1
    88    85    89    1
    89    89    90    2
    90    89    91   am
    91    91    92    1
    92    91     9    1
    93     1    93    1
    94     1    94    1
    95     1    95    1
    96     2    96    1
    97     3    97    1
    98     4    98    1
    99     4    99    1
   100     5   100    1
   101     6   101    1
   102     6   102    1
   103     6   103    1
   104     7   104    1
   105     8   105    1
   106     9   106    1
   107    12   107    1
   108    13   108    1
   109    14   109    1
   110    14   110    1
   111    15   111    1
   112    15   112    1
   113    15   113    1
   114    19   114    1
   115    19   115    1
   116    19   116    1
   117    20   117    1
   118    22   118    1
   119    22   119    1
   120    23   120    1
   121    23   121    1
   122    25   122    1
   123    25   123    1
   124    25   124    1
   125    26   125    1
   126    26   126    1
   127    26   127    1
   128    30   128    1
   129    30   129    1
   130    30   130    1
   131    31   131    1
   132    32   132    1
   133    32   133    1
   134    34   134    1
   135    34   135    1
   136    34   136    1
   137    35   137    1
   138    35   138    1
   139    35   139    1
   140    36   140    1
   141    39   141    1
   142    40   142    1
   143    41   143    1
   144    42   144    1
   145    42   145    1
   146    42   146    1
   147    43   147    1
   148    43   148    1
   149    43   149    1
   150    47   150    1
   151    47   151    1
   152    47   152    1
   153    48   153    1
   154    49   154    1
   155    49   155    1
   156    50   156    1
   157    51   157    1
   158    51   158    1
   159    51   159    1
   160    52   160    1
   161    52   161    1
   162    52   162    1
   163    55   163    1
   164    56   164    1
   165    57   165    1
   166    57   166    1
   167    57   167    1
   168    60   168    1
   169    61   169    1
   170    62   170    1
   171    62   171    1
   172    62   172    1
   173    66   173    1
   174    66   174    1
   175    66   175    1
   176    67   176    1
   177    68   177    1
   178    68   178    1
   179    69   179    1
   180    70   180    1
   181    70   181    1
   182    70   182    1
   183    71   183    1
   184    71   184    1
   185    71   185    1
   186    75   186    1
   187    75   187    1
   188    75   188    1
   189    76   189    1
   190    77   190    1
   191    77   191    1
   192    78   192    1
   193    79   193    1
   194    79   194    1
   195    79   195    1
   196    80   196    1
   197    80   197    1
   198    80   198    1
   199    84   199    1
   200    84   200    1
   201    84   201    1
   202    85   202    1
   203    86   203    1
   204    87   204    1
   205    87   205    1
   206    87   206    1
   207    88   207    1
   208    88   208    1
   209    88   209    1
   210    92   210    1
   211    92   211    1
   212    92   212    1
