
     RDKit          3D

212212  0  0  0  0  0  0  0  0999 V2000
   -4.9342    9.7444   -3.6402 C   0  0  0  0  0  0  0  0  0  0  0  0
   -4.3360    8.5016   -3.1266 C   0  0  0  0  0  0  0  0  0  0  0  0
   -4.0464    8.2876   -1.8491 C   0  0  0  0  0  0  0  0  0  0  0  0
   -3.4340    7.0009   -1.3603 C   0  0  0  0  0  0  0  0  0  0  0  0
   -4.3848    6.4296   -0.3775 C   0  0  1  0  0  0  0  0  0  0  0  0
   -5.7034    6.1721   -1.0700 C   0  0  0  0  0  0  0  0  0  0  0  0
   -3.9257    5.2451    0.4201 C   0  0  1  0  0  0  0  0  0  0  0  0
   -4.9301    4.8690    1.2878 O   0  0  0  0  0  0  0  0  0  0  0  0
   -3.1879    4.1787   -0.2957 C   0  0  1  0  0  0  0  0  0  0  0  0
   -2.1504    3.6124    0.5223 C   0  0  0  0  0  0  0  0  0  0  0  0
   -1.7444    4.4847    1.4348 O   0  0  0  0  0  0  0  0  0  0  0  0
   -1.3837    2.4808    0.7303 N   0  0  0  0  0  0  0  0  0  0  0  0
   -0.3759    2.3221    1.8269 C   0  0  1  0  0  0  0  0  0  0  0  0
   -0.3961    0.9648    2.3809 C   0  0  0  0  0  0  0  0  0  0  0  0
   -1.7698    0.6099    2.9764 C   0  0  0  0  0  0  0  0  0  0  0  0
    0.8894    2.8939    1.3287 C   0  0  0  0  0  0  0  0  0  0  0  0
    0.6776    3.3925    0.1188 O   0  0  0  0  0  0  0  0  0  0  0  0
    2.2313    3.1511    1.5458 N   0  0  0  0  0  0  0  0  0  0  0  0
    3.0599    2.7176    2.5903 C   0  0  0  0  0  0  0  0  0  0  0  0
    3.0063    3.9748    0.5512 C   0  0  1  0  0  0  0  0  0  0  0  0
    3.5348    5.5382    1.2767 S   0  0  0  0  0  0  0  0  0  0  0  0
    4.7833    5.3221    2.5239 C   0  0  0  0  0  0  0  0  0  0  0  0
    5.3907    6.6627    2.9631 C   0  0  0  0  0  0  0  0  0  0  0  0
    6.0111    7.3670    1.8833 N   0  0  0  0  0  0  0  0  0  0  0  0
    5.0532    7.8554    0.9504 C   0  0  0  0  0  0  0  0  0  0  0  0
    7.0286    8.2952    2.2324 C   0  0  0  0  0  0  0  0  0  0  0  0
    4.1601    3.2559   -0.0010 C   0  0  0  0  0  0  0  0  0  0  0  0
    4.1907    2.0182    0.4313 O   0  0  0  0  0  0  0  0  0  0  0  0
    5.2589    3.3530   -0.8223 N   0  0  0  0  0  0  0  0  0  0  0  0
    5.7530    4.3257   -1.7165 C   0  0  0  0  0  0  0  0  0  0  0  0
    6.1830    2.1329   -0.8412 C   0  0  1  0  0  0  0  0  0  0  0  0
    6.8614    2.0549    0.4619 C   0  0  0  0  0  0  0  0  0  0  0  0
    7.8096    0.9092    0.6856 C   0  0  0  0  0  0  0  0  0  0  0  0
    8.9185    0.8957   -0.3344 C   0  0  0  0  0  0  0  0  0  0  0  0
    8.4587    1.1077    2.0860 C   0  0  0  0  0  0  0  0  0  0  0  0
    7.1483   -0.3011    0.7523 O   0  0  0  0  0  0  0  0  0  0  0  0
    5.5939    1.0093   -1.5124 C   0  0  0  0  0  0  0  0  0  0  0  0
    4.3755    1.2245   -1.9574 O   0  0  0  0  0  0  0  0  0  0  0  0
    5.8624   -0.3022   -1.8863 N   0  0  0  0  0  0  0  0  0  0  0  0
    4.9198   -1.1932   -2.6218 C   0  0  1  0  0  0  0  0  0  0  0  0
    5.4382   -1.3106   -4.0623 C   0  0  0  0  0  0  0  0  0  0  0  0
    4.4972   -2.1578   -4.8523 C   0  0  0  0  0  0  0  0  0  0  0  0
    6.8084   -1.9284   -4.0988 C   0  0  0  0  0  0  0  0  0  0  0  0
    4.8348   -2.5524   -2.0706 C   0  0  0  0  0  0  0  0  0  0  0  0
    3.9687   -3.2885   -2.7957 O   0  0  0  0  0  0  0  0  0  0  0  0
    5.2119   -3.4890   -1.1338 N   0  0  0  0  0  0  0  0  0  0  0  0
    5.9813   -3.3224    0.0344 C   0  0  0  0  0  0  0  0  0  0  0  0
    4.7946   -4.9359   -1.1862 C   0  0  1  0  0  0  0  0  0  0  0  0
    6.0057   -5.8230   -1.1328 C   0  0  0  0  0  0  0  0  0  0  0  0
    6.9739   -5.6226   -2.2667 C   0  0  0  0  0  0  0  0  0  0  0  0
    6.3130   -5.9199   -3.6010 C   0  0  0  0  0  0  0  0  0  0  0  0
    8.1175   -6.6226   -2.1164 C   0  0  0  0  0  0  0  0  0  0  0  0
    3.8830   -5.1572   -0.0278 C   0  0  0  0  0  0  0  0  0  0  0  0
    4.0189   -6.4046    0.4185 O   0  0  0  0  0  0  0  0  0  0  0  0
    2.9491   -4.5329    0.7356 N   0  0  0  0  0  0  0  0  0  0  0  0
    2.3044   -5.1418    1.8924 C   0  0  1  0  0  0  0  0  0  0  0  0
    2.6693   -4.3482    3.1638 C   0  0  0  0  0  0  0  0  0  0  0  0
    0.8887   -5.4425    1.8136 C   0  0  0  0  0  0  0  0  0  0  0  0
    0.3812   -5.7922    2.9984 O   0  0  0  0  0  0  0  0  0  0  0  0
   -0.1776   -5.5118    0.9253 N   0  0  0  0  0  0  0  0  0  0  0  0
   -1.5542   -5.8154    1.3029 C   0  0  2  0  0  0  0  0  0  0  0  0
   -1.7459   -7.3488    1.3312 C   0  0  0  0  0  0  0  0  0  0  0  0
   -2.5733   -5.1829    0.4966 C   0  0  0  0  0  0  0  0  0  0  0  0
   -3.7697   -5.5159    1.0610 O   0  0  0  0  0  0  0  0  0  0  0  0
   -3.0225   -4.4205   -0.5368 N   0  0  0  0  0  0  0  0  0  0  0  0
   -2.3014   -3.7025   -1.5058 C   0  0  0  0  0  0  0  0  0  0  0  0
   -4.5464   -4.2988   -0.7071 C   0  0  1  0  0  0  0  0  0  0  0  0
   -5.0514   -5.5181   -1.3116 C   0  0  0  0  0  0  0  0  0  0  0  0
   -6.4628   -5.7837   -1.6129 C   0  0  0  0  0  0  0  0  0  0  0  0
   -7.1965   -4.8218   -2.4710 C   0  0  0  0  0  0  0  0  0  0  0  0
   -7.3096   -6.3806   -0.5425 C   0  0  0  0  0  0  0  0  0  0  0  0
   -5.1144   -3.4768    0.3117 C   0  0  0  0  0  0  0  0  0  0  0  0
   -4.1736   -2.6455    0.7941 O   0  0  0  0  0  0  0  0  0  0  0  0
   -6.1884   -3.0866    1.0980 N   0  0  0  0  0  0  0  0  0  0  0  0
   -7.4676   -3.6745    1.2987 C   0  0  0  0  0  0  0  0  0  0  0  0
   -6.0838   -1.8446    1.9251 C   0  0  1  0  0  0  0  0  0  0  0  0
   -5.1397   -1.7705    3.0089 C   0  0  0  0  0  0  0  0  0  0  0  0
   -5.2531   -2.7493    4.1419 C   0  0  0  0  0  0  0  0  0  0  0  0
   -6.5606   -2.6949    4.8615 C   0  0  0  0  0  0  0  0  0  0  0  0
   -4.7569   -4.1094    3.7999 C   0  0  0  0  0  0  0  0  0  0  0  0
   -6.0358   -0.6655    0.9988 C   0  0  0  0  0  0  0  0  0  0  0  0
   -5.8655   -1.0919   -0.2340 O   0  0  0  0  0  0  0  0  0  0  0  0
   -6.1013    0.7012    0.8553 N   0  0  0  0  0  0  0  0  0  0  0  0
   -6.4314    1.7031    1.7970 C   0  0  0  0  0  0  0  0  0  0  0  0
   -5.8300    1.2985   -0.5119 C   0  0  1  0  0  0  0  0  0  0  0  0
   -7.1336    1.9354   -0.9274 C   0  0  0  0  0  0  0  0  0  0  0  0
   -7.0079    2.5658   -2.3165 C   0  0  0  0  0  0  0  0  0  0  0  0
   -8.2363    0.8974   -1.0577 C   0  0  0  0  0  0  0  0  0  0  0  0
   -4.8042    2.3301   -0.4390 C   0  0  0  0  0  0  0  0  0  0  0  0
   -4.3489    2.5114    0.7875 O   0  0  0  0  0  0  0  0  0  0  0  0
   -4.0258    3.2677   -1.1228 N   0  0  0  0  0  0  0  0  0  0  0  0
   -3.8174    3.4964   -2.5150 C   0  0  0  0  0  0  0  0  0  0  0  0
   -5.3693    9.5395   -4.6398 H   0  0  0  0  0  0  0  0  0  0  0  0
   -5.7542   10.1440   -3.0229 H   0  0  0  0  0  0  0  0  0  0  0  0
   -4.1245   10.4776   -3.8029 H   0  0  0  0  0  0  0  0  0  0  0  0
   -4.1014    7.6796   -3.8123 H   0  0  0  0  0  0  0  0  0  0  0  0
   -4.2754    9.0981   -1.1651 H   0  0  0  0  0  0  0  0  0  0  0  0
   -2.4652    7.3193   -0.9153 H   0  0  0  0  0  0  0  0  0  0  0  0
   -3.2954    6.3920   -2.2724 H   0  0  0  0  0  0  0  0  0  0  0  0
   -4.6224    7.2938    0.3294 H   0  0  0  0  0  0  0  0  0  0  0  0
   -6.4462    6.9849   -0.8990 H   0  0  0  0  0  0  0  0  0  0  0  0
   -5.5889    5.9240   -2.1307 H   0  0  0  0  0  0  0  0  0  0  0  0
   -6.1727    5.2728   -0.5755 H   0  0  0  0  0  0  0  0  0  0  0  0
   -3.1713    5.7254    1.1579 H   0  0  0  0  0  0  0  0  0  0  0  0
   -5.4129    5.6541    1.5998 H   0  0  0  0  0  0  0  0  0  0  0  0
   -2.6428    4.7796   -1.1240 H   0  0  0  0  0  0  0  0  0  0  0  0
   -1.3782    1.6422    0.1937 H   0  0  0  0  0  0  0  0  0  0  0  0
   -0.6911    3.0434    2.6561 H   0  0  0  0  0  0  0  0  0  0  0  0
   -0.0472    0.1634    1.7095 H   0  0  0  0  0  0  0  0  0  0  0  0
    0.2968    0.9397    3.2626 H   0  0  0  0  0  0  0  0  0  0  0  0
   -1.8499    1.0282    4.0181 H   0  0  0  0  0  0  0  0  0  0  0  0
   -1.8660   -0.4889    3.0799 H   0  0  0  0  0  0  0  0  0  0  0  0
   -2.5773    0.9709    2.3326 H   0  0  0  0  0  0  0  0  0  0  0  0
    2.8068    3.1198    3.5992 H   0  0  0  0  0  0  0  0  0  0  0  0
    4.1658    2.9188    2.3951 H   0  0  0  0  0  0  0  0  0  0  0  0
    3.1346    1.5945    2.7533 H   0  0  0  0  0  0  0  0  0  0  0  0
    2.2796    4.2427   -0.2883 H   0  0  0  0  0  0  0  0  0  0  0  0
    4.3363    4.9164    3.4834 H   0  0  0  0  0  0  0  0  0  0  0  0
    5.6433    4.7038    2.2522 H   0  0  0  0  0  0  0  0  0  0  0  0
    6.2141    6.4054    3.6911 H   0  0  0  0  0  0  0  0  0  0  0  0
    4.6843    7.3029    3.4855 H   0  0  0  0  0  0  0  0  0  0  0  0
    4.9858    7.2104    0.0655 H   0  0  0  0  0  0  0  0  0  0  0  0
    4.0789    7.9746    1.4649 H   0  0  0  0  0  0  0  0  0  0  0  0
    5.3887    8.8684    0.5679 H   0  0  0  0  0  0  0  0  0  0  0  0
    7.6618    7.9139    3.0698 H   0  0  0  0  0  0  0  0  0  0  0  0
    7.7125    8.4858    1.3548 H   0  0  0  0  0  0  0  0  0  0  0  0
    6.6538    9.2912    2.5431 H   0  0  0  0  0  0  0  0  0  0  0  0
    6.6441    3.9806   -2.2984 H   0  0  0  0  0  0  0  0  0  0  0  0
    6.1478    5.2461   -1.2044 H   0  0  0  0  0  0  0  0  0  0  0  0
    5.0572    4.5908   -2.5702 H   0  0  0  0  0  0  0  0  0  0  0  0
    7.0254    2.4578   -1.5704 H   0  0  0  0  0  0  0  0  0  0  0  0
    7.5379    2.9852    0.5297 H   0  0  0  0  0  0  0  0  0  0  0  0
    6.1819    2.1094    1.3619 H   0  0  0  0  0  0  0  0  0  0  0  0
    8.8722   -0.0401   -0.9130 H   0  0  0  0  0  0  0  0  0  0  0  0
    8.8159    1.7587   -1.0002 H   0  0  0  0  0  0  0  0  0  0  0  0
    9.9241    0.9426    0.1591 H   0  0  0  0  0  0  0  0  0  0  0  0
    9.3393    0.4598    2.1022 H   0  0  0  0  0  0  0  0  0  0  0  0
    8.6443    2.1737    2.2272 H   0  0  0  0  0  0  0  0  0  0  0  0
    7.6974    0.7636    2.7892 H   0  0  0  0  0  0  0  0  0  0  0  0
    7.5126   -0.8631    1.4669 H   0  0  0  0  0  0  0  0  0  0  0  0
    6.7198   -0.8184   -1.7268 H   0  0  0  0  0  0  0  0  0  0  0  0
    3.9318   -0.7141   -2.7666 H   0  0  0  0  0  0  0  0  0  0  0  0
    5.4363   -0.2906   -4.5396 H   0  0  0  0  0  0  0  0  0  0  0  0
    4.4837   -1.8182   -5.9433 H   0  0  0  0  0  0  0  0  0  0  0  0
    4.7418   -3.2273   -4.9005 H   0  0  0  0  0  0  0  0  0  0  0  0
    3.4237   -2.0567   -4.5690 H   0  0  0  0  0  0  0  0  0  0  0  0
    6.8672   -2.8124   -4.7691 H   0  0  0  0  0  0  0  0  0  0  0  0
    7.5527   -1.1959   -4.5175 H   0  0  0  0  0  0  0  0  0  0  0  0
    7.1891   -2.2321   -3.1291 H   0  0  0  0  0  0  0  0  0  0  0  0
    7.0764   -3.2001   -0.1547 H   0  0  0  0  0  0  0  0  0  0  0  0
    5.5973   -2.5543    0.7823 H   0  0  0  0  0  0  0  0  0  0  0  0
    5.9702   -4.2296    0.7302 H   0  0  0  0  0  0  0  0  0  0  0  0
    4.1996   -5.1905   -2.0504 H   0  0  0  0  0  0  0  0  0  0  0  0
    5.5836   -6.8679   -1.3109 H   0  0  0  0  0  0  0  0  0  0  0  0
    6.4938   -5.9116   -0.1636 H   0  0  0  0  0  0  0  0  0  0  0  0
    7.3902   -4.5932   -2.2876 H   0  0  0  0  0  0  0  0  0  0  0  0
    5.9887   -6.9812   -3.6654 H   0  0  0  0  0  0  0  0  0  0  0  0
    5.5264   -5.2114   -3.8654 H   0  0  0  0  0  0  0  0  0  0  0  0
    7.1082   -5.8310   -4.3952 H   0  0  0  0  0  0  0  0  0  0  0  0
    8.7142   -6.7384   -3.0332 H   0  0  0  0  0  0  0  0  0  0  0  0
    7.7049   -7.6199   -1.7978 H   0  0  0  0  0  0  0  0  0  0  0  0
    8.7378   -6.2813   -1.2368 H   0  0  0  0  0  0  0  0  0  0  0  0
    2.5504   -3.6090    0.6218 H   0  0  0  0  0  0  0  0  0  0  0  0
    2.7990   -6.1476    2.1265 H   0  0  0  0  0  0  0  0  0  0  0  0
    2.4122   -3.2943    3.0928 H   0  0  0  0  0  0  0  0  0  0  0  0
    3.7789   -4.5085    3.3115 H   0  0  0  0  0  0  0  0  0  0  0  0
    2.1762   -4.9043    3.9829 H   0  0  0  0  0  0  0  0  0  0  0  0
   -0.1375   -5.3775   -0.0714 H   0  0  0  0  0  0  0  0  0  0  0  0
   -1.6705   -5.5790    2.3978 H   0  0  0  0  0  0  0  0  0  0  0  0
   -1.0484   -7.7951    0.5953 H   0  0  0  0  0  0  0  0  0  0  0  0
   -2.7667   -7.6055    1.0055 H   0  0  0  0  0  0  0  0  0  0  0  0
   -1.5517   -7.7852    2.3048 H   0  0  0  0  0  0  0  0  0  0  0  0
   -1.7599   -4.3598   -2.2542 H   0  0  0  0  0  0  0  0  0  0  0  0
   -1.6578   -2.8721   -1.1336 H   0  0  0  0  0  0  0  0  0  0  0  0
   -2.9951   -3.1357   -2.2240 H   0  0  0  0  0  0  0  0  0  0  0  0
   -4.5422   -3.5931   -1.6941 H   0  0  0  0  0  0  0  0  0  0  0  0
   -4.4385   -5.7173   -2.2993 H   0  0  0  0  0  0  0  0  0  0  0  0
   -4.6630   -6.4258   -0.7221 H   0  0  0  0  0  0  0  0  0  0  0  0
   -6.3652   -6.7160   -2.3743 H   0  0  0  0  0  0  0  0  0  0  0  0
   -7.2250   -5.0717   -3.5513 H   0  0  0  0  0  0  0  0  0  0  0  0
   -8.2822   -4.8550   -2.1386 H   0  0  0  0  0  0  0  0  0  0  0  0
   -6.9103   -3.7554   -2.3008 H   0  0  0  0  0  0  0  0  0  0  0  0
   -8.2565   -5.8207   -0.4083 H   0  0  0  0  0  0  0  0  0  0  0  0
   -7.6226   -7.4209   -0.8397 H   0  0  0  0  0  0  0  0  0  0  0  0
   -6.7769   -6.4413    0.4409 H   0  0  0  0  0  0  0  0  0  0  0  0
   -8.1034   -3.1088    2.0369 H   0  0  0  0  0  0  0  0  0  0  0  0
   -7.4793   -4.6845    1.7816 H   0  0  0  0  0  0  0  0  0  0  0  0
   -8.1174   -3.6253    0.3762 H   0  0  0  0  0  0  0  0  0  0  0  0
   -7.1051   -1.8556    2.4365 H   0  0  0  0  0  0  0  0  0  0  0  0
   -4.0811   -1.7050    2.7321 H   0  0  0  0  0  0  0  0  0  0  0  0
   -5.3055   -0.7464    3.5340 H   0  0  0  0  0  0  0  0  0  0  0  0
   -4.4953   -2.3568    4.9156 H   0  0  0  0  0  0  0  0  0  0  0  0
   -7.2496   -3.4539    4.4869 H   0  0  0  0  0  0  0  0  0  0  0  0
   -6.4209   -2.7739    5.9792 H   0  0  0  0  0  0  0  0  0  0  0  0
   -7.0388   -1.7009    4.7153 H   0  0  0  0  0  0  0  0  0  0  0  0
   -5.3944   -4.6070    3.0523 H   0  0  0  0  0  0  0  0  0  0  0  0
   -3.7219   -4.0533    3.3526 H   0  0  0  0  0  0  0  0  0  0  0  0
   -4.7319   -4.7017    4.7396 H   0  0  0  0  0  0  0  0  0  0  0  0
   -5.6371    1.8465    2.5986 H   0  0  0  0  0  0  0  0  0  0  0  0
   -6.4921    2.7316    1.3760 H   0  0  0  0  0  0  0  0  0  0  0  0
   -7.4575    1.6117    2.2706 H   0  0  0  0  0  0  0  0  0  0  0  0
   -5.5790    0.4618   -1.2305 H   0  0  0  0  0  0  0  0  0  0  0  0
   -7.4587    2.6694   -0.2138 H   0  0  0  0  0  0  0  0  0  0  0  0
   -7.9799    2.4909   -2.8449 H   0  0  0  0  0  0  0  0  0  0  0  0
   -6.2455    1.9731   -2.8573 H   0  0  0  0  0  0  0  0  0  0  0  0
   -6.7960    3.6276   -2.1983 H   0  0  0  0  0  0  0  0  0  0  0  0
   -8.5849    0.4912   -0.1105 H   0  0  0  0  0  0  0  0  0  0  0  0
   -9.1133    1.3614   -1.5707 H   0  0  0  0  0  0  0  0  0  0  0  0
   -7.8423    0.1264   -1.7714 H   0  0  0  0  0  0  0  0  0  0  0  0
   -3.5174    2.5758   -3.1141 H   0  0  0  0  0  0  0  0  0  0  0  0
   -4.6199    3.9741   -3.0561 H   0  0  0  0  0  0  0  0  0  0  0  0
   -2.9167    4.1320   -2.7156 H   0  0  0  0  0  0  0  0  0  0  0  0
  1  2  1  0
  2  3  2  0
  3  4  1  0
  4  5  1  0
  5  6  1  0
  5  7  1  0
  7  8  1  0
  7  9  1  0
  9 10  1  0
 10 11  2  0
 10 12  1  0
 12 13  1  0
 13 14  1  0
 14 15  1  0
 13 16  1  0
 16 17  2  0
 16 18  1  0
 18 19  1  0
 18 20  1  0
 20 21  1  0
 21 22  1  0
 22 23  1  0
 23 24  1  0
 24 25  1  0
 24 26  1  0
 20 27  1  0
 27 28  2  0
 27 29  1  0
 29 30  1  0
 29 31  1  0
 31 32  1  0
 32 33  1  0
 33 34  1  0
 33 35  1  0
 33 36  1  0
 31 37  1  0
 37 38  2  0
 37 39  1  0
 39 40  1  0
 40 41  1  0
 41 42  1  0
 41 43  1  0
 40 44  1  0
 44 45  2  0
 44 46  1  0
 46 47  1  0
 46 48  1  0
 48 49  1  0
 49 50  1  0
 50 51  1  0
 50 52  1  0
 48 53  1  0
 53 54  2  0
 53 55  1  0
 55 56  1  0
 56 57  1  0
 56 58  1  0
 58 59  2  0
 58 60  1  0
 60 61  1  0
 61 62  1  0
 61 63  1  0
 63 64  2  0
 63 65  1  0
 65 66  1  0
 65 67  1  0
 67 68  1  0
 68 69  1  0
 69 70  1  0
 69 71  1  0
 67 72  1  0
 72 73  2  0
 72 74  1  0
 74 75  1  0
 74 76  1  0
 76 77  1  0
 77 78  1  0
 78 79  1  0
 78 80  1  0
 76 81  1  0
 81 82  2  0
 81 83  1  0
 83 84  1  0
 83 85  1  0
 85 86  1  0
 86 87  1  0
 86 88  1  0
 85 89  1  0
 89 90  2  0
 89 91  1  0
 91 92  1  0
 91  9  1  0
  1 93  1  0
  1 94  1  0
  1 95  1  0
  2 96  1  0
  3 97  1  0
  4 98  1  0
  4 99  1  0
  5100  1  1
  6101  1  0
  6102  1  0
  6103  1  0
  7104  1  1
  8105  1  0
  9106  1  6
 12107  1  0
 13108  1  1
 14109  1  0
 14110  1  0
 15111  1  0
 15112  1  0
 15113  1  0
 19114  1  0
 19115  1  0
 19116  1  0
 20117  1  6
 22118  1  0
 22119  1  0
 23120  1  0
 23121  1  0
 25122  1  0
 25123  1  0
 25124  1  0
 26125  1  0
 26126  1  0
 26127  1  0
 30128  1  0
 30129  1  0
 30130  1  0
 31131  1  6
 32132  1  0
 32133  1  0
 34134  1  0
 34135  1  0
 34136  1  0
 35137  1  0
 35138  1  0
 35139  1  0
 36140  1  0
 39141  1  0
 40142  1  6
 41143  1  0
 42144  1  0
 42145  1  0
 42146  1  0
 43147  1  0
 43148  1  0
 43149  1  0
 47150  1  0
 47151  1  0
 47152  1  0
 48153  1  6
 49154  1  0
 49155  1  0
 50156  1  0
 51157  1  0
 51158  1  0
 51159  1  0
 52160  1  0
 52161  1  0
 52162  1  0
 55163  1  0
 56164  1  1
 57165  1  0
 57166  1  0
 57167  1  0
 60168  1  0
 61169  1  1
 62170  1  0
 62171  1  0
 62172  1  0
 66173  1  0
 66174  1  0
 66175  1  0
 67176  1  6
 68177  1  0
 68178  1  0
 69179  1  0
 70180  1  0
 70181  1  0
 70182  1  0
 71183  1  0
 71184  1  0
 71185  1  0
 75186  1  0
 75187  1  0
 75188  1  0
 76189  1  1
 77190  1  0
 77191  1  0
 78192  1  0
 79193  1  0
 79194  1  0
 79195  1  0
 80196  1  0
 80197  1  0
 80198  1  0
 84199  1  0
 84200  1  0
 84201  1  0
 85202  1  6
 86203  1  0
 87204  1  0
 87205  1  0
 87206  1  0
 88207  1  0
 88208  1  0
 88209  1  0
 92210  1  0
 92211  1  0
 92212  1  0
M  END
$$$$
