@<TRIPOS>MOLECULE
*****
 62 66 0 0 0
SMALL
GASTEIGER

@<TRIPOS>ATOM
      1 C          -3.2496   -5.4550    1.6911 C.3     1  UNL1       -0.0206
      2 C          -2.9897   -4.0500    1.2874 C.ar    1  UNL1        0.0611
      3 C          -1.7684   -3.5787    0.9192 C.ar    1  UNL1       -0.0084
      4 C          -1.9248   -2.2262    0.6134 C.ar    1  UNL1        0.1296
      5 C          -0.8466   -1.3238    0.1573 C.2     1  UNL1        0.2667
      6 O          -1.1390   -0.1532   -0.1271 O.2     1  UNL1       -0.2682
      7 N           0.4824   -1.7564    0.0406 N.am    1  UNL1       -0.2802
      8 C           1.6036   -0.9955   -0.3822 C.ar    1  UNL1        0.0338
      9 C           1.5693    0.3227   -0.7574 C.ar    1  UNL1       -0.0399
     10 C           2.7352    1.0022   -1.1633 C.ar    1  UNL1       -0.0522
     11 C           3.9456    0.3640   -1.1958 C.ar    1  UNL1       -0.0159
     12 C           5.1430    1.0482   -1.6452 C.ar    1  UNL1        0.0084
     13 C           5.2948    1.3158   -2.9875 C.ar    1  UNL1       -0.0522
     14 C           6.4194    1.9294   -3.4597 C.ar    1  UNL1       -0.0611
     15 C           7.4357    2.2972   -2.5934 C.ar    1  UNL1       -0.0599
     16 C           7.2552    2.0169   -1.2542 C.ar    1  UNL1       -0.0348
     17 C           6.1253    1.3993   -0.7683 C.ar    1  UNL1        0.1127
     18 S           6.0269    1.1468    0.9514 S.O2    1  UNL1        0.0565
     19 N           5.9136   -0.4733    1.4380 N.3     1  UNL1       -0.2035
     20 O           7.1948    1.8328    1.6000 O.2     1  UNL1       -0.1532
     21 O           4.7665    1.8841    1.4186 O.2     1  UNL1       -0.1532
     22 C           4.0046   -0.9522   -0.8269 C.ar    1  UNL1       -0.0522
     23 C           2.8641   -1.6086   -0.4317 C.ar    1  UNL1       -0.0399
     24 N          -3.2123   -1.9062    0.7985 N.ar    1  UNL1       -0.2265
     25 C          -3.8193   -0.6532    0.6031 C.ar    1  UNL1        0.0816
     26 C          -4.6731   -0.4604   -0.4903 C.ar    1  UNL1       -0.0277
     27 C          -5.2716    0.7639   -0.7114 C.ar    1  UNL1       -0.0158
     28 C          -6.1183    1.0110   -1.7671 C.ar    1  UNL1       -0.0540
     29 C          -6.7209    2.2244   -1.9989 C.ar    1  UNL1       -0.0612
     30 C          -6.4751    3.2635   -1.1361 C.ar    1  UNL1       -0.0612
     31 C          -5.6355    3.0578   -0.0697 C.ar    1  UNL1       -0.0540
     32 C          -5.0294    1.8130    0.1513 C.ar    1  UNL1       -0.0169
     33 C          -4.2080    1.6506    1.2153 C.ar    1  UNL1       -0.0371
     34 C          -3.6070    0.3973    1.4257 C.ar    1  UNL1        0.0906
     35 C          -2.7661    0.3187    2.5863 C.2     1  UNL1        0.3102
     36 N          -2.7789   -0.6413    3.4000 N.2     1  UNL1       -0.0994
     37 N          -1.8564    1.4070    2.8270 N.pl3   1  UNL1       -0.2466
     38 N          -3.8310   -3.0342    1.2066 N.ar    1  UNL1       -0.1709
     39 H          -2.6213   -5.6929    2.5845 H       1  UNL1        0.0293
     40 H          -4.3119   -5.5945    1.9116 H       1  UNL1        0.0293
     41 H          -2.9881   -6.1562    0.8507 H       1  UNL1        0.0293
     42 H          -0.8381   -4.1209    0.8638 H       1  UNL1        0.0659
     43 H           0.6678   -2.7772    0.3008 H       1  UNL1        0.1552
     44 H           0.6375    0.8564   -0.7447 H       1  UNL1        0.0636
     45 H           2.6078    2.0393   -1.4405 H       1  UNL1        0.0624
     46 H           4.5101    1.0381   -3.7008 H       1  UNL1        0.0624
     47 H           6.5454    2.1425   -4.5118 H       1  UNL1        0.0618
     48 H           8.3192    2.7823   -2.9883 H       1  UNL1        0.0618
     49 H           8.0605    2.3112   -0.5923 H       1  UNL1        0.0637
     50 H           5.1824   -0.6452    2.1789 H       1  UNL1        0.1442
     51 H           6.8327   -0.7962    1.8313 H       1  UNL1        0.1442
     52 H           4.9730   -1.4733   -0.8746 H       1  UNL1        0.0624
     53 H           2.9237   -2.6460   -0.1424 H       1  UNL1        0.0636
     54 H          -4.8632   -1.2821   -1.1663 H       1  UNL1        0.0645
     55 H          -6.3375    0.2093   -2.4737 H       1  UNL1        0.0624
     56 H          -7.3926    2.3785   -2.8573 H       1  UNL1        0.0618
     57 H          -6.9520    4.2203   -1.3216 H       1  UNL1        0.0618
     58 H          -5.4116    3.8458    0.6368 H       1  UNL1        0.0624
     59 H          -4.0234    2.4772    1.8863 H       1  UNL1        0.0633
     60 H          -3.3606   -1.4682    3.3612 H       1  UNL1        0.3633
     61 H          -1.3644    1.5106    3.7412 H       1  UNL1        0.2884
     62 H          -1.6545    2.1297    2.1029 H       1  UNL1        0.2884
@<TRIPOS>BOND
     1     1     2    1
     2     2     3   ar
     3     3     4   ar
     4     4     5    1
     5     5     6    2
     6     5     7   am
     7     7     8    1
     8     8     9   ar
     9     9    10   ar
    10    10    11   ar
    11    11    12    1
    12    12    13   ar
    13    13    14   ar
    14    14    15   ar
    15    15    16   ar
    16    16    17   ar
    17    17    18    1
    18    18    19    1
    19    18    20    2
    20    18    21    2
    21    11    22   ar
    22    22    23   ar
    23     4    24   ar
    24    24    25    1
    25    25    26   ar
    26    26    27   ar
    27    27    28   ar
    28    28    29   ar
    29    29    30   ar
    30    30    31   ar
    31    31    32   ar
    32    32    33   ar
    33    33    34   ar
    34    34    35    1
    35    35    36    2
    36    35    37    1
    37    24    38   ar
    38    38     2   ar
    39    23     8   ar
    40    34    25   ar
    41    17    12   ar
    42    32    27   ar
    43     1    39    1
    44     1    40    1
    45     1    41    1
    46     3    42    1
    47     7    43    1
    48     9    44    1
    49    10    45    1
    50    13    46    1
    51    14    47    1
    52    15    48    1
    53    16    49    1
    54    19    50    1
    55    19    51    1
    56    22    52    1
    57    23    53    1
    58    26    54    1
    59    28    55    1
    60    29    56    1
    61    30    57    1
    62    31    58    1
    63    33    59    1
    64    36    60    1
    65    37    61    1
    66    37    62    1
