
     RDKit          3D

 62 66  0  0  0  0  0  0  0  0999 V2000
   -3.2496   -5.4550    1.6911 C   0  0  0  0  0  0  0  0  0  0  0  0
   -2.9897   -4.0500    1.2874 C   0  0  0  0  0  0  0  0  0  0  0  0
   -1.7684   -3.5787    0.9192 C   0  0  0  0  0  0  0  0  0  0  0  0
   -1.9248   -2.2262    0.6134 C   0  0  0  0  0  0  0  0  0  0  0  0
   -0.8466   -1.3238    0.1573 C   0  0  0  0  0  0  0  0  0  0  0  0
   -1.1390   -0.1532   -0.1271 O   0  0  0  0  0  0  0  0  0  0  0  0
    0.4824   -1.7564    0.0406 N   0  0  0  0  0  0  0  0  0  0  0  0
    1.6036   -0.9955   -0.3822 C   0  0  0  0  0  0  0  0  0  0  0  0
    1.5693    0.3227   -0.7574 C   0  0  0  0  0  0  0  0  0  0  0  0
    2.7352    1.0022   -1.1633 C   0  0  0  0  0  0  0  0  0  0  0  0
    3.9456    0.3640   -1.1958 C   0  0  0  0  0  0  0  0  0  0  0  0
    5.1430    1.0482   -1.6452 C   0  0  0  0  0  0  0  0  0  0  0  0
    5.2948    1.3158   -2.9875 C   0  0  0  0  0  0  0  0  0  0  0  0
    6.4194    1.9294   -3.4597 C   0  0  0  0  0  0  0  0  0  0  0  0
    7.4357    2.2972   -2.5934 C   0  0  0  0  0  0  0  0  0  0  0  0
    7.2552    2.0169   -1.2542 C   0  0  0  0  0  0  0  0  0  0  0  0
    6.1253    1.3993   -0.7683 C   0  0  0  0  0  0  0  0  0  0  0  0
    6.0269    1.1468    0.9514 S   0  0  0  0  0  6  0  0  0  0  0  0
    5.9136   -0.4733    1.4380 N   0  0  0  0  0  0  0  0  0  0  0  0
    7.1948    1.8328    1.6000 O   0  0  0  0  0  0  0  0  0  0  0  0
    4.7665    1.8841    1.4186 O   0  0  0  0  0  0  0  0  0  0  0  0
    4.0046   -0.9522   -0.8269 C   0  0  0  0  0  0  0  0  0  0  0  0
    2.8641   -1.6086   -0.4317 C   0  0  0  0  0  0  0  0  0  0  0  0
   -3.2123   -1.9062    0.7985 N   0  0  0  0  0  0  0  0  0  0  0  0
   -3.8193   -0.6532    0.6031 C   0  0  0  0  0  0  0  0  0  0  0  0
   -4.6731   -0.4604   -0.4903 C   0  0  0  0  0  0  0  0  0  0  0  0
   -5.2716    0.7639   -0.7114 C   0  0  0  0  0  0  0  0  0  0  0  0
   -6.1183    1.0110   -1.7671 C   0  0  0  0  0  0  0  0  0  0  0  0
   -6.7209    2.2244   -1.9989 C   0  0  0  0  0  0  0  0  0  0  0  0
   -6.4751    3.2635   -1.1361 C   0  0  0  0  0  0  0  0  0  0  0  0
   -5.6355    3.0578   -0.0697 C   0  0  0  0  0  0  0  0  0  0  0  0
   -5.0294    1.8130    0.1513 C   0  0  0  0  0  0  0  0  0  0  0  0
   -4.2080    1.6506    1.2153 C   0  0  0  0  0  0  0  0  0  0  0  0
   -3.6070    0.3973    1.4257 C   0  0  0  0  0  0  0  0  0  0  0  0
   -2.7661    0.3187    2.5863 C   0  0  0  0  0  0  0  0  0  0  0  0
   -2.7789   -0.6413    3.4000 N   0  0  0  0  0  0  0  0  0  0  0  0
   -1.8564    1.4070    2.8270 N   0  0  0  0  0  0  0  0  0  0  0  0
   -3.8310   -3.0342    1.2066 N   0  0  0  0  0  0  0  0  0  0  0  0
   -2.6213   -5.6929    2.5845 H   0  0  0  0  0  0  0  0  0  0  0  0
   -4.3119   -5.5945    1.9116 H   0  0  0  0  0  0  0  0  0  0  0  0
   -2.9881   -6.1562    0.8507 H   0  0  0  0  0  0  0  0  0  0  0  0
   -0.8381   -4.1209    0.8638 H   0  0  0  0  0  0  0  0  0  0  0  0
    0.6678   -2.7772    0.3008 H   0  0  0  0  0  0  0  0  0  0  0  0
    0.6375    0.8564   -0.7447 H   0  0  0  0  0  0  0  0  0  0  0  0
    2.6078    2.0393   -1.4405 H   0  0  0  0  0  0  0  0  0  0  0  0
    4.5101    1.0381   -3.7008 H   0  0  0  0  0  0  0  0  0  0  0  0
    6.5454    2.1425   -4.5118 H   0  0  0  0  0  0  0  0  0  0  0  0
    8.3192    2.7823   -2.9883 H   0  0  0  0  0  0  0  0  0  0  0  0
    8.0605    2.3112   -0.5923 H   0  0  0  0  0  0  0  0  0  0  0  0
    5.1824   -0.6452    2.1789 H   0  0  0  0  0  0  0  0  0  0  0  0
    6.8327   -0.7962    1.8313 H   0  0  0  0  0  0  0  0  0  0  0  0
    4.9730   -1.4733   -0.8746 H   0  0  0  0  0  0  0  0  0  0  0  0
    2.9237   -2.6460   -0.1424 H   0  0  0  0  0  0  0  0  0  0  0  0
   -4.8632   -1.2821   -1.1663 H   0  0  0  0  0  0  0  0  0  0  0  0
   -6.3375    0.2093   -2.4737 H   0  0  0  0  0  0  0  0  0  0  0  0
   -7.3926    2.3785   -2.8573 H   0  0  0  0  0  0  0  0  0  0  0  0
   -6.9520    4.2203   -1.3216 H   0  0  0  0  0  0  0  0  0  0  0  0
   -5.4116    3.8458    0.6368 H   0  0  0  0  0  0  0  0  0  0  0  0
   -4.0234    2.4772    1.8863 H   0  0  0  0  0  0  0  0  0  0  0  0
   -3.3606   -1.4682    3.3612 H   0  0  0  0  0  0  0  0  0  0  0  0
   -1.3644    1.5106    3.7412 H   0  0  0  0  0  0  0  0  0  0  0  0
   -1.6545    2.1297    2.1029 H   0  0  0  0  0  0  0  0  0  0  0  0
  1  2  1  0
  2  3  1  0
  3  4  2  0
  4  5  1  0
  5  6  2  0
  5  7  1  0
  7  8  1  0
  8  9  2  0
  9 10  1  0
 10 11  2  0
 11 12  1  0
 12 13  2  0
 13 14  1  0
 14 15  2  0
 15 16  1  0
 16 17  2  0
 17 18  1  0
 18 19  1  0
 18 20  2  0
 18 21  2  0
 11 22  1  0
 22 23  2  0
  4 24  1  0
 24 25  1  0
 25 26  2  0
 26 27  1  0
 27 28  2  0
 28 29  1  0
 29 30  2  0
 30 31  1  0
 31 32  2  0
 32 33  1  0
 33 34  2  0
 34 35  1  0
 35 36  2  3
 35 37  1  0
 24 38  1  0
 38  2  2  0
 23  8  1  0
 34 25  1  0
 17 12  1  0
 32 27  1  0
  1 39  1  0
  1 40  1  0
  1 41  1  0
  3 42  1  0
  7 43  1  0
  9 44  1  0
 10 45  1  0
 13 46  1  0
 14 47  1  0
 15 48  1  0
 16 49  1  0
 19 50  1  0
 19 51  1  0
 22 52  1  0
 23 53  1  0
 26 54  1  0
 28 55  1  0
 29 56  1  0
 30 57  1  0
 31 58  1  0
 33 59  1  0
 36 60  1  0
 37 61  1  0
 37 62  1  0
M  END
$$$$
