
     RDKit          3D

 28 28  0  0  0  0  0  0  0  0999 V2000
    2.1688    1.5284    1.0788 O   0  0  0  0  0  0  0  0  0  0  0  0
    2.4541    1.0359   -0.1928 C   0  0  0  0  0  0  0  0  0  0  0  0
    1.2722    0.2171   -0.6993 C   0  0  0  0  0  0  0  0  0  0  0  0
    0.1445    1.0640   -0.7468 N   0  0  0  0  0  0  0  0  0  0  0  0
   -1.1350    0.4775   -0.5557 C   0  0  0  0  0  0  0  0  0  0  0  0
   -2.1017    1.6177   -0.2017 C   0  0  0  0  0  0  0  0  0  0  0  0
   -1.6933    2.2683    0.9623 O   0  0  0  0  0  0  0  0  0  0  0  0
   -1.2168   -0.6000    0.4579 C   0  0  1  0  0  0  0  0  0  0  0  0
   -2.4658   -1.2181    0.3662 O   0  0  0  0  0  0  0  0  0  0  0  0
   -0.1840   -1.6487    0.1467 C   0  0  2  0  0  0  0  0  0  0  0  0
   -0.2144   -2.6094    1.1596 O   0  0  0  0  0  0  0  0  0  0  0  0
    1.1549   -0.9946    0.1592 C   0  0  1  0  0  0  0  0  0  0  0  0
    2.0922   -1.9524   -0.2889 O   0  0  0  0  0  0  0  0  0  0  0  0
    3.0244    1.6441    1.5530 H   0  0  0  0  0  0  0  0  0  0  0  0
    2.5825    1.9414   -0.8539 H   0  0  0  0  0  0  0  0  0  0  0  0
    3.3978    0.4860   -0.2443 H   0  0  0  0  0  0  0  0  0  0  0  0
    1.5372   -0.0985   -1.7338 H   0  0  0  0  0  0  0  0  0  0  0  0
    0.1303    1.6617   -1.5781 H   0  0  0  0  0  0  0  0  0  0  0  0
   -1.4985    0.0777   -1.5289 H   0  0  0  0  0  0  0  0  0  0  0  0
   -2.1004    2.3846   -1.0052 H   0  0  0  0  0  0  0  0  0  0  0  0
   -3.1417    1.2357   -0.1327 H   0  0  0  0  0  0  0  0  0  0  0  0
   -2.4994    2.5113    1.4596 H   0  0  0  0  0  0  0  0  0  0  0  0
   -1.1278   -0.2226    1.4937 H   0  0  0  0  0  0  0  0  0  0  0  0
   -2.4673   -1.8283   -0.4186 H   0  0  0  0  0  0  0  0  0  0  0  0
   -0.4190   -2.1154   -0.8211 H   0  0  0  0  0  0  0  0  0  0  0  0
   -0.9311   -3.2515    0.9233 H   0  0  0  0  0  0  0  0  0  0  0  0
    1.4511   -0.7587    1.2045 H   0  0  0  0  0  0  0  0  0  0  0  0
    1.7860   -2.8532    0.0370 H   0  0  0  0  0  0  0  0  0  0  0  0
  1  2  1  0
  2  3  1  0
  3  4  1  0
  4  5  1  0
  5  6  1  0
  6  7  1  0
  5  8  1  0
  8  9  1  0
  8 10  1  0
 10 11  1  0
 10 12  1  0
 12 13  1  0
 12  3  1  0
  1 14  1  0
  2 15  1  0
  2 16  1  0
  3 17  1  0
  4 18  1  0
  5 19  1  0
  6 20  1  0
  6 21  1  0
  7 22  1  0
  8 23  1  1
  9 24  1  0
 10 25  1  6
 11 26  1  0
 12 27  1  1
 13 28  1  0
M  END
$$$$
