@<TRIPOS>MOLECULE
*****
 28 28 0 0 0
SMALL
GASTEIGER

@<TRIPOS>ATOM
      1 O           2.1688    1.5284    1.0788 O.3     1  UNL1       -0.3934
      2 C           2.4541    1.0359   -0.1928 C.3     1  UNL1        0.0620
      3 CA          1.2722    0.2171   -0.6993 C.3     1  UNL1        0.0599
      4 N           0.1445    1.0640   -0.7468 N.3     1  UNL1       -0.3018
      5 CA         -1.1350    0.4775   -0.5557 C.3     1  UNL1        0.0599
      6 C          -2.1017    1.6177   -0.2017 C.3     1  UNL1        0.0620
      7 O          -1.6933    2.2683    0.9623 O.3     1  UNL1       -0.3934
      8 C          -1.2168   -0.6000    0.4579 C.3     1  UNL1        0.1009
      9 O          -2.4658   -1.2181    0.3662 O.3     1  UNL1       -0.3875
     10 CG2        -0.1840   -1.6487    0.1467 C.3     1  UNL1        0.1099
     11 O          -0.2144   -2.6094    1.1596 O.3     1  UNL1       -0.3866
     12 CB          1.1549   -0.9946    0.1592 C.3     1  UNL1        0.1009
     13 OG1         2.0922   -1.9524   -0.2889 O.3     1  UNL1       -0.3875
     14 H           3.0244    1.6441    1.5530 H       1  UNL1        0.2095
     15 H1          2.5825    1.9414   -0.8539 H       1  UNL1        0.0573
     16 H2          3.3978    0.4860   -0.2443 H       1  UNL1        0.0573
     17 HA          1.5372   -0.0985   -1.7338 H       1  UNL1        0.0509
     18 H           0.1303    1.6617   -1.5781 H       1  UNL1        0.1228
     19 HA         -1.4985    0.0777   -1.5289 H       1  UNL1        0.0509
     20 H1         -2.1004    2.3846   -1.0052 H       1  UNL1        0.0573
     21 H2         -3.1417    1.2357   -0.1327 H       1  UNL1        0.0573
     22 H          -2.4994    2.5113    1.4596 H       1  UNL1        0.2095
     23 H          -1.1278   -0.2226    1.4937 H       1  UNL1        0.0636
     24 H          -2.4673   -1.8283   -0.4186 H       1  UNL1        0.2100
     25 HG2        -0.4190   -2.1154   -0.8211 H       1  UNL1        0.0646
     26 H          -0.9311   -3.2515    0.9233 H       1  UNL1        0.2100
     27 HB          1.4511   -0.7587    1.2045 H       1  UNL1        0.0636
     28 HG1         1.7860   -2.8532    0.0370 H       1  UNL1        0.2100
@<TRIPOS>BOND
     1     1     2    1
     2     2     3    1
     3     3     4    1
     4     4     5    1
     5     5     6    1
     6     6     7    1
     7     5     8    1
     8     8     9    1
     9     8    10    1
    10    10    11    1
    11    10    12    1
    12    12    13    1
    13    12     3    1
    14     1    14    1
    15     2    15    1
    16     2    16    1
    17     3    17    1
    18     4    18    1
    19     5    19    1
    20     6    20    1
    21     6    21    1
    22     7    22    1
    23     8    23    1
    24     9    24    1
    25    10    25    1
    26    11    26    1
    27    12    27    1
    28    13    28    1
