
     RDKit          3D

 44 47  0  0  0  0  0  0  0  0999 V2000
    8.5263    1.5962   -0.9325 N   0  0  0  0  0  0  0  0  0  0  0  0
    7.3804    1.8856    0.3212 S   0  0  0  0  0  0  0  0  0  0  0  0
    8.0294    1.6473    1.6372 O   0  0  0  0  0  0  0  0  0  0  0  0
    6.8775    3.3034    0.2403 O   0  0  0  0  0  0  0  0  0  0  0  0
    6.0021    0.8224    0.1922 C   0  0  0  0  0  0  0  0  0  0  0  0
    4.9044    1.2110   -0.5456 C   0  0  0  0  0  0  0  0  0  0  0  0
    3.8467    0.3351   -0.6133 C   0  0  0  0  0  0  0  0  0  0  0  0
    3.7576   -0.8986   -0.0217 C   0  0  0  0  0  0  0  0  0  0  0  0
    2.6727   -1.7989   -0.0588 N   0  0  0  0  0  0  0  0  0  0  0  0
    1.2904   -1.5477   -0.2041 C   0  0  0  0  0  0  0  0  0  0  0  0
    0.5612   -0.3861   -0.2572 C   0  0  0  0  0  0  0  0  0  0  0  0
   -0.7432   -0.6557   -0.4174 N   0  0  0  0  0  0  0  0  0  0  0  0
   -1.8148    0.1740   -0.5179 C   0  0  0  0  0  0  0  0  0  0  0  0
   -3.0824   -0.3253   -0.6776 C   0  0  0  0  0  0  0  0  0  0  0  0
   -3.1664   -1.7020   -0.7270 C   0  0  0  0  0  0  0  0  0  0  0  0
   -2.0907   -2.5664   -0.6266 C   0  0  0  0  0  0  0  0  0  0  0  0
   -0.8486   -1.9921   -0.4665 C   0  0  0  0  0  0  0  0  0  0  0  0
    0.3754   -2.5231   -0.3379 N   0  0  0  0  0  0  0  0  0  0  0  0
   -4.2068    0.5607   -0.8124 C   0  0  0  0  0  0  0  0  0  0  0  0
   -3.8382    1.6071   -1.4543 O   0  0  0  0  0  0  0  0  0  0  0  0
   -5.5821    0.5642   -0.4233 C   0  0  0  0  0  0  0  0  0  0  0  0
   -6.4261    1.4100   -1.1282 C   0  0  0  0  0  0  0  0  0  0  0  0
   -5.8921    2.4284   -2.4643 Cl  0  0  0  0  0  0  0  0  0  0  0  0
   -7.7840    1.4939   -0.7968 C   0  0  0  0  0  0  0  0  0  0  0  0
   -8.3135    0.7451    0.2299 C   0  0  0  0  0  0  0  0  0  0  0  0
   -7.4958   -0.1019    0.9457 C   0  0  0  0  0  0  0  0  0  0  0  0
   -6.1698   -0.1573    0.5925 C   0  0  0  0  0  0  0  0  0  0  0  0
   -5.1935   -1.1990    1.5727 Cl  0  0  0  0  0  0  0  0  0  0  0  0
    4.9028   -1.2219    0.7054 C   0  0  0  0  0  0  0  0  0  0  0  0
    5.9992   -0.4030    0.8211 C   0  0  0  0  0  0  0  0  0  0  0  0
    8.1366    1.0278   -1.6928 H   0  0  0  0  0  0  0  0  0  0  0  0
    9.4183    1.2066   -0.5480 H   0  0  0  0  0  0  0  0  0  0  0  0
    4.8871    2.1687   -1.0467 H   0  0  0  0  0  0  0  0  0  0  0  0
    3.0220    0.6776   -1.2096 H   0  0  0  0  0  0  0  0  0  0  0  0
    2.9836   -2.8134    0.0379 H   0  0  0  0  0  0  0  0  0  0  0  0
    0.9456    0.6142   -0.1775 H   0  0  0  0  0  0  0  0  0  0  0  0
   -1.6847    1.2458   -0.4732 H   0  0  0  0  0  0  0  0  0  0  0  0
   -4.1046   -2.2200   -0.8764 H   0  0  0  0  0  0  0  0  0  0  0  0
   -2.1862   -3.6430   -0.6681 H   0  0  0  0  0  0  0  0  0  0  0  0
   -8.4422    2.1558   -1.3492 H   0  0  0  0  0  0  0  0  0  0  0  0
   -9.3651    0.8305    0.4620 H   0  0  0  0  0  0  0  0  0  0  0  0
   -7.9276   -0.6823    1.7481 H   0  0  0  0  0  0  0  0  0  0  0  0
    4.9689   -2.1804    1.2310 H   0  0  0  0  0  0  0  0  0  0  0  0
    6.8700   -0.6934    1.3963 H   0  0  0  0  0  0  0  0  0  0  0  0
  1  2  1  0
  2  3  2  0
  2  4  2  0
  2  5  1  0
  5  6  2  0
  6  7  1  0
  7  8  2  0
  8  9  1  0
  9 10  1  0
 10 11  2  0
 11 12  1  0
 12 13  1  0
 13 14  2  0
 14 15  1  0
 15 16  2  0
 16 17  1  0
 17 18  2  0
 14 19  1  0
 19 20  2  0
 19 21  1  0
 21 22  2  0
 22 23  1  0
 22 24  1  0
 24 25  2  0
 25 26  1  0
 26 27  2  0
 27 28  1  0
  8 29  1  0
 29 30  2  0
 30  5  1  0
 18 10  1  0
 27 21  1  0
 17 12  1  0
  1 31  1  0
  1 32  1  0
  6 33  1  0
  7 34  1  0
  9 35  1  0
 11 36  1  0
 13 37  1  0
 15 38  1  0
 16 39  1  0
 24 40  1  0
 25 41  1  0
 26 42  1  0
 29 43  1  0
 30 44  1  0
M  END
$$$$
