@<TRIPOS>MOLECULE
*****
 44 47 0 0 0
SMALL
GASTEIGER

@<TRIPOS>ATOM
      1 N           8.5263    1.5962   -0.9325 N.3     1  UNL1       -0.2035
      2 S           7.3804    1.8856    0.3212 S.O2    1  UNL1        0.0559
      3 O           8.0294    1.6473    1.6372 O.2     1  UNL1       -0.1533
      4 O           6.8775    3.3034    0.2403 O.2     1  UNL1       -0.1533
      5 C           6.0021    0.8224    0.1922 C.ar    1  UNL1        0.1051
      6 C           4.9044    1.2110   -0.5456 C.ar    1  UNL1       -0.0336
      7 C           3.8467    0.3351   -0.6133 C.ar    1  UNL1       -0.0387
      8 C           3.7576   -0.8986   -0.0217 C.ar    1  UNL1        0.0325
      9 N           2.6727   -1.7989   -0.0588 N.pl3   1  UNL1       -0.2982
     10 C           1.2904   -1.5477   -0.2041 C.ar    1  UNL1        0.1419
     11 C           0.5612   -0.3861   -0.2572 C.ar    1  UNL1        0.0512
     12 N          -0.7432   -0.6557   -0.4174 N.ar    1  UNL1       -0.3040
     13 C          -1.8148    0.1740   -0.5179 C.ar    1  UNL1        0.0221
     14 C          -3.0824   -0.3253   -0.6776 C.ar    1  UNL1        0.0390
     15 C          -3.1664   -1.7020   -0.7270 C.ar    1  UNL1       -0.0460
     16 C          -2.0907   -2.5664   -0.6266 C.ar    1  UNL1       -0.0181
     17 C          -0.8486   -1.9921   -0.4665 C.ar    1  UNL1        0.1397
     18 N           0.3754   -2.5231   -0.3379 N.ar    1  UNL1       -0.2130
     19 C          -4.2068    0.5607   -0.8124 C.2     1  UNL1        0.1973
     20 O          -3.8382    1.6071   -1.4543 O.2     1  UNL1       -0.2865
     21 C          -5.5821    0.5642   -0.4233 C.ar    1  UNL1        0.0589
     22 C          -6.4261    1.4100   -1.1282 C.ar    1  UNL1        0.0532
     23 CL         -5.8921    2.4284   -2.4643 Cl      1  UNL1       -0.0828
     24 C          -7.7840    1.4939   -0.7968 C.ar    1  UNL1       -0.0426
     25 C          -8.3135    0.7451    0.2299 C.ar    1  UNL1       -0.0590
     26 C          -7.4958   -0.1019    0.9457 C.ar    1  UNL1       -0.0426
     27 C          -6.1698   -0.1573    0.5925 C.ar    1  UNL1        0.0532
     28 CL         -5.1935   -1.1990    1.5727 Cl      1  UNL1       -0.0828
     29 C           4.9028   -1.2219    0.7054 C.ar    1  UNL1       -0.0387
     30 C           5.9992   -0.4030    0.8211 C.ar    1  UNL1       -0.0336
     31 H           8.1366    1.0278   -1.6928 H       1  UNL1        0.1442
     32 H           9.4183    1.2066   -0.5480 H       1  UNL1        0.1442
     33 H           4.8871    2.1687   -1.0467 H       1  UNL1        0.0638
     34 H           3.0220    0.6776   -1.2096 H       1  UNL1        0.0637
     35 H           2.9836   -2.8134    0.0379 H       1  UNL1        0.1536
     36 H           0.9456    0.6142   -0.1775 H       1  UNL1        0.0848
     37 H          -1.6847    1.2458   -0.4732 H       1  UNL1        0.0820
     38 H          -4.1046   -2.2200   -0.8764 H       1  UNL1        0.0626
     39 H          -2.1862   -3.6430   -0.6681 H       1  UNL1        0.0654
     40 H          -8.4422    2.1558   -1.3492 H       1  UNL1        0.0632
     41 H          -9.3651    0.8305    0.4620 H       1  UNL1        0.0618
     42 H          -7.9276   -0.6823    1.7481 H       1  UNL1        0.0632
     43 H           4.9689   -2.1804    1.2310 H       1  UNL1        0.0637
     44 H           6.8700   -0.6934    1.3963 H       1  UNL1        0.0638
@<TRIPOS>BOND
     1     1     2    1
     2     2     3    2
     3     2     4    2
     4     2     5    1
     5     5     6   ar
     6     6     7   ar
     7     7     8   ar
     8     8     9    1
     9     9    10    1
    10    10    11   ar
    11    11    12   ar
    12    12    13   ar
    13    13    14   ar
    14    14    15   ar
    15    15    16   ar
    16    16    17   ar
    17    17    18   ar
    18    14    19    1
    19    19    20    2
    20    19    21    1
    21    21    22   ar
    22    22    23    1
    23    22    24   ar
    24    24    25   ar
    25    25    26   ar
    26    26    27   ar
    27    27    28    1
    28     8    29   ar
    29    29    30   ar
    30    30     5   ar
    31    18    10   ar
    32    27    21   ar
    33    17    12   ar
    34     1    31    1
    35     1    32    1
    36     6    33    1
    37     7    34    1
    38     9    35    1
    39    11    36    1
    40    13    37    1
    41    15    38    1
    42    16    39    1
    43    24    40    1
    44    25    41    1
    45    26    42    1
    46    29    43    1
    47    30    44    1
