
     RDKit          3D

 42 43  0  0  0  0  0  0  0  0999 V2000
   -4.9375    0.5950   -0.9469 C   0  0  0  0  0  0  0  0  0  0  0  0
   -4.3907   -0.0885    0.2873 C   0  0  0  0  0  0  0  0  0  0  0  0
   -4.5130   -1.5876    0.1040 C   0  0  0  0  0  0  0  0  0  0  0  0
   -2.9187    0.2432    0.3867 C   0  0  1  0  0  0  0  0  0  0  0  0
   -2.6553    1.6555    0.4945 N   0  0  0  0  0  0  0  0  0  0  0  0
   -1.6365    2.2033   -0.7631 S   0  0  0  0  0  6  0  0  0  0  0  0
   -1.4837    3.7007   -0.7169 O   0  0  0  0  0  0  0  0  0  0  0  0
   -2.2607    1.8540   -2.0863 O   0  0  0  0  0  0  0  0  0  0  0  0
   -0.0759    1.4310   -0.7329 C   0  0  0  0  0  0  0  0  0  0  0  0
    0.1939    0.2774   -1.4211 C   0  0  0  0  0  0  0  0  0  0  0  0
    1.4696   -0.3012   -1.3584 C   0  0  0  0  0  0  0  0  0  0  0  0
    2.4748    0.2675   -0.6121 C   0  0  0  0  0  0  0  0  0  0  0  0
    3.8098   -0.3249   -0.5370 C   0  0  0  0  0  0  0  0  0  0  0  0
    4.3886   -1.0251   -1.5690 C   0  0  0  0  0  0  0  0  0  0  0  0
    5.6542   -1.5761   -1.4710 C   0  0  0  0  0  0  0  0  0  0  0  0
    6.3677   -1.4204   -0.2948 C   0  0  0  0  0  0  0  0  0  0  0  0
    8.1124   -2.1457   -0.0772 Br  0  0  0  0  0  0  0  0  0  0  0  0
    5.8165   -0.7289    0.7475 C   0  0  0  0  0  0  0  0  0  0  0  0
    4.5436   -0.1850    0.6240 C   0  0  0  0  0  0  0  0  0  0  0  0
    2.2009    1.4254    0.0773 C   0  0  0  0  0  0  0  0  0  0  0  0
    0.9330    1.9931    0.0101 C   0  0  0  0  0  0  0  0  0  0  0  0
   -2.2880   -0.4922    1.5317 C   0  0  0  0  0  0  0  0  0  0  0  0
   -1.6483    0.1489    2.4032 O   0  0  0  0  0  0  0  0  0  0  0  0
   -2.3766   -1.8665    1.6797 O   0  0  0  0  0  0  0  0  0  0  0  0
   -4.7044    1.6606   -0.8722 H   0  0  0  0  0  0  0  0  0  0  0  0
   -4.4010    0.1724   -1.8190 H   0  0  0  0  0  0  0  0  0  0  0  0
   -6.0335    0.4359   -1.0511 H   0  0  0  0  0  0  0  0  0  0  0  0
   -4.9430    0.2343    1.2037 H   0  0  0  0  0  0  0  0  0  0  0  0
   -5.3425   -1.8520   -0.5847 H   0  0  0  0  0  0  0  0  0  0  0  0
   -3.5666   -1.9496   -0.3327 H   0  0  0  0  0  0  0  0  0  0  0  0
   -4.6266   -2.0508    1.0984 H   0  0  0  0  0  0  0  0  0  0  0  0
   -2.4198   -0.1672   -0.5147 H   0  0  0  0  0  0  0  0  0  0  0  0
   -2.3307    1.9288    1.4392 H   0  0  0  0  0  0  0  0  0  0  0  0
   -0.5557   -0.1994   -2.0149 H   0  0  0  0  0  0  0  0  0  0  0  0
    1.7047   -1.2119   -1.8939 H   0  0  0  0  0  0  0  0  0  0  0  0
    3.8201   -1.1411   -2.4871 H   0  0  0  0  0  0  0  0  0  0  0  0
    6.1260   -2.1285   -2.2680 H   0  0  0  0  0  0  0  0  0  0  0  0
    6.3021   -0.5581    1.7038 H   0  0  0  0  0  0  0  0  0  0  0  0
    4.0884    0.3668    1.4392 H   0  0  0  0  0  0  0  0  0  0  0  0
    2.9723    1.8946    0.6721 H   0  0  0  0  0  0  0  0  0  0  0  0
    0.7546    2.9144    0.5726 H   0  0  0  0  0  0  0  0  0  0  0  0
   -1.6245   -2.4021    2.1011 H   0  0  0  0  0  0  0  0  0  0  0  0
  1  2  1  0
  2  3  1  0
  2  4  1  0
  4  5  1  0
  5  6  1  0
  6  7  2  0
  6  8  2  0
  6  9  1  0
  9 10  2  0
 10 11  1  0
 11 12  2  0
 12 13  1  0
 13 14  2  0
 14 15  1  0
 15 16  2  0
 16 17  1  0
 16 18  1  0
 18 19  2  0
 12 20  1  0
 20 21  2  0
  4 22  1  0
 22 23  2  0
 22 24  1  0
 21  9  1  0
 19 13  1  0
  1 25  1  0
  1 26  1  0
  1 27  1  0
  2 28  1  0
  3 29  1  0
  3 30  1  0
  3 31  1  0
  4 32  1  6
  5 33  1  0
 10 34  1  0
 11 35  1  0
 14 36  1  0
 15 37  1  0
 18 38  1  0
 19 39  1  0
 20 40  1  0
 21 41  1  0
 24 42  1  0
M  END
$$$$
