@<TRIPOS>MOLECULE
*****
 42 43 0 0 0
SMALL
GASTEIGER

@<TRIPOS>ATOM
      1 C          -4.9375    0.5950   -0.9469 C.3     1  UNL1       -0.0607
      2 C          -4.3907   -0.0885    0.2873 C.3     1  UNL1       -0.0194
      3 C          -4.5130   -1.5876    0.1040 C.3     1  UNL1       -0.0607
      4 C          -2.9187    0.2432    0.3867 C.3     1  UNL1        0.1276
      5 N          -2.6553    1.6555    0.4945 N.3     1  UNL1       -0.1759
      6 S          -1.6365    2.2033   -0.7631 S.O2    1  UNL1        0.0591
      7 O          -1.4837    3.7007   -0.7169 O.2     1  UNL1       -0.1530
      8 O          -2.2607    1.8540   -2.0863 O.2     1  UNL1       -0.1530
      9 C          -0.0759    1.4310   -0.7329 C.ar    1  UNL1        0.1053
     10 C           0.1939    0.2774   -1.4211 C.ar    1  UNL1       -0.0348
     11 C           1.4696   -0.3012   -1.3584 C.ar    1  UNL1       -0.0522
     12 C           2.4748    0.2675   -0.6121 C.ar    1  UNL1       -0.0178
     13 C           3.8098   -0.3249   -0.5370 C.ar    1  UNL1       -0.0178
     14 C           4.3886   -1.0251   -1.5690 C.ar    1  UNL1       -0.0530
     15 C           5.6542   -1.5761   -1.4710 C.ar    1  UNL1       -0.0472
     16 C           6.3677   -1.4204   -0.2948 C.ar    1  UNL1        0.0179
     17 BR          8.1124   -2.1457   -0.0772 Br      1  UNL1       -0.0503
     18 C           5.8165   -0.7289    0.7475 C.ar    1  UNL1       -0.0472
     19 C           4.5436   -0.1850    0.6240 C.ar    1  UNL1       -0.0530
     20 C           2.2009    1.4254    0.0773 C.ar    1  UNL1       -0.0522
     21 C           0.9330    1.9931    0.0101 C.ar    1  UNL1       -0.0348
     22 C          -2.2880   -0.4922    1.5317 C.2     1  UNL1        0.3238
     23 O          -1.6483    0.1489    2.4032 O.2     1  UNL1       -0.2492
     24 O          -2.3766   -1.8665    1.6797 O.3     1  UNL1       -0.4795
     25 H          -4.7044    1.6606   -0.8722 H       1  UNL1        0.0233
     26 H          -4.4010    0.1724   -1.8190 H       1  UNL1        0.0233
     27 H          -6.0335    0.4359   -1.0511 H       1  UNL1        0.0233
     28 H          -4.9430    0.2343    1.2037 H       1  UNL1        0.0316
     29 H          -5.3425   -1.8520   -0.5847 H       1  UNL1        0.0233
     30 H          -3.5666   -1.9496   -0.3327 H       1  UNL1        0.0233
     31 H          -4.6266   -2.0508    1.0984 H       1  UNL1        0.0233
     32 H          -2.4198   -0.1672   -0.5147 H       1  UNL1        0.0595
     33 H          -2.3307    1.9288    1.4392 H       1  UNL1        0.1489
     34 H          -0.5557   -0.1994   -2.0149 H       1  UNL1        0.0637
     35 H           1.7047   -1.2119   -1.8939 H       1  UNL1        0.0624
     36 H           3.8201   -1.1411   -2.4871 H       1  UNL1        0.0624
     37 H           6.1260   -2.1285   -2.2680 H       1  UNL1        0.0629
     38 H           6.3021   -0.5581    1.7038 H       1  UNL1        0.0629
     39 H           4.0884    0.3668    1.4392 H       1  UNL1        0.0624
     40 H           2.9723    1.8946    0.6721 H       1  UNL1        0.0624
     41 H           0.7546    2.9144    0.5726 H       1  UNL1        0.0637
     42 H          -1.6245   -2.4021    2.1011 H       1  UNL1        0.2951
@<TRIPOS>BOND
     1     1     2    1
     2     2     3    1
     3     2     4    1
     4     4     5    1
     5     5     6    1
     6     6     7    2
     7     6     8    2
     8     6     9    1
     9     9    10   ar
    10    10    11   ar
    11    11    12   ar
    12    12    13    1
    13    13    14   ar
    14    14    15   ar
    15    15    16   ar
    16    16    17    1
    17    16    18   ar
    18    18    19   ar
    19    12    20   ar
    20    20    21   ar
    21     4    22    1
    22    22    23    2
    23    22    24    1
    24    21     9   ar
    25    19    13   ar
    26     1    25    1
    27     1    26    1
    28     1    27    1
    29     2    28    1
    30     3    29    1
    31     3    30    1
    32     3    31    1
    33     4    32    1
    34     5    33    1
    35    10    34    1
    36    11    35    1
    37    14    36    1
    38    15    37    1
    39    18    38    1
    40    19    39    1
    41    20    40    1
    42    21    41    1
    43    24    42    1
