@<TRIPOS>MOLECULE
*****
 55 59 0 0 0
SMALL
GASTEIGER

@<TRIPOS>ATOM
      1 C          -2.9743   -3.8130   -0.7312 C.3     1  UNL1       -0.0591
      2 C          -2.8839   -2.3954   -0.2724 C.3     1  UNL1       -0.0241
      3 C          -3.1816   -2.2862    1.2048 C.3     1  UNL1       -0.0591
      4 C          -3.8497   -1.5387   -1.0614 C.3     1  UNL1       -0.0027
      5 C          -3.7280   -0.1477   -0.5618 C.2     1  UNL1        0.0692
      6 N          -4.8587    0.5119   -0.6265 N.2     1  UNL1       -0.1839
      7 N          -5.1395    1.8297   -0.2538 N.am    1  UNL1       -0.2027
      8 C          -4.2563    2.8483    0.2316 C.2     1  UNL1        0.2639
      9 O          -4.6846    3.9927    0.4181 O.2     1  UNL1       -0.2684
     10 C          -2.8284    2.7006    0.5539 C.ar    1  UNL1        0.0481
     11 C          -2.2354    3.8200    1.0530 C.ar    1  UNL1       -0.0489
     12 C          -0.8934    3.7864    1.3909 C.ar    1  UNL1       -0.0591
     13 C          -0.1642    2.6149    1.2191 C.ar    1  UNL1       -0.0375
     14 C          -0.7381    1.4670    0.7161 C.ar    1  UNL1        0.0507
     15 C          -2.0847    1.5387    0.3886 C.ar    1  UNL1        0.0212
     16 C          -2.4326    0.3004   -0.0834 C.ar    1  UNL1        0.0269
     17 C          -1.3195   -0.4876   -0.0367 C.ar    1  UNL1        0.0293
     18 N          -0.2878    0.2238    0.4501 N.ar    1  UNL1       -0.3419
     19 C           1.0673   -0.1981    0.6689 C.3     1  UNL1        0.0363
     20 C           1.9489    0.0344   -0.5336 C.3     1  UNL1        0.0169
     21 N           3.3052   -0.4071   -0.2552 N.3     1  UNL1       -0.3006
     22 C           3.8673    0.4793    0.7404 C.3     1  UNL1       -0.0010
     23 C           5.1567    1.0973    0.2592 C.3     1  UNL1       -0.0402
     24 C           6.1090   -0.0630   -0.0558 C.3     1  UNL1       -0.0507
     25 C           5.5237   -0.8122   -1.2373 C.3     1  UNL1       -0.0402
     26 C           4.0916   -0.4567   -1.4774 C.3     1  UNL1       -0.0010
     27 C          -1.4736   -1.8951   -0.5051 C.3     1  UNL1       -0.0061
     28 H          -2.4831   -3.9760   -1.7049 H       1  UNL1        0.0235
     29 H          -4.0661   -4.0946   -0.7502 H       1  UNL1        0.0235
     30 H          -2.5366   -4.4514    0.0744 H       1  UNL1        0.0235
     31 H          -2.9295   -3.2563    1.6761 H       1  UNL1        0.0235
     32 H          -2.6192   -1.5032    1.7179 H       1  UNL1        0.0235
     33 H          -4.2851   -2.1475    1.3805 H       1  UNL1        0.0235
     34 H          -3.4615   -1.5084   -2.1208 H       1  UNL1        0.0334
     35 H          -4.8726   -1.9230   -1.0158 H       1  UNL1        0.0334
     36 H          -6.1536    2.1369   -0.3375 H       1  UNL1        0.1776
     37 H          -2.8377    4.7112    1.1716 H       1  UNL1        0.0625
     38 H          -0.4026    4.6672    1.7900 H       1  UNL1        0.0618
     39 H           0.8731    2.5730    1.4753 H       1  UNL1        0.0638
     40 H           1.0419   -1.3069    0.8310 H       1  UNL1        0.0504
     41 H           1.5195    0.2248    1.5785 H       1  UNL1        0.0504
     42 H           1.5893   -0.4701   -1.4285 H       1  UNL1        0.0444
     43 H           2.0253    1.1556   -0.6528 H       1  UNL1        0.0444
     44 H           4.1453   -0.1782    1.6099 H       1  UNL1        0.0426
     45 H           3.1748    1.2819    1.0441 H       1  UNL1        0.0426
     46 H           5.5989    1.7491    1.0333 H       1  UNL1        0.0278
     47 H           4.9572    1.6364   -0.6811 H       1  UNL1        0.0278
     48 H           6.1026   -0.7138    0.8420 H       1  UNL1        0.0266
     49 H           7.1328    0.2827   -0.2315 H       1  UNL1        0.0266
     50 H           6.1008   -0.4677   -2.1356 H       1  UNL1        0.0278
     51 H           5.6676   -1.8971   -1.1734 H       1  UNL1        0.0278
     52 H           3.9906    0.4874   -2.0587 H       1  UNL1        0.0426
     53 H           3.6499   -1.2569   -2.1073 H       1  UNL1        0.0426
     54 H          -1.1637   -1.9544   -1.5630 H       1  UNL1        0.0333
     55 H          -0.8137   -2.5451    0.1335 H       1  UNL1        0.0333
@<TRIPOS>BOND
     1     1     2    1
     2     2     3    1
     3     2     4    1
     4     4     5    1
     5     5     6    2
     6     6     7    1
     7     7     8   am
     8     8     9    2
     9     8    10    1
    10    10    11   ar
    11    11    12   ar
    12    12    13   ar
    13    13    14   ar
    14    14    15   ar
    15    15    16   ar
    16    16    17   ar
    17    17    18   ar
    18    18    19    1
    19    19    20    1
    20    20    21    1
    21    21    22    1
    22    22    23    1
    23    23    24    1
    24    24    25    1
    25    25    26    1
    26    17    27    1
    27    27     2    1
    28    16     5    1
    29    26    21    1
    30    15    10   ar
    31    18    14   ar
    32     1    28    1
    33     1    29    1
    34     1    30    1
    35     3    31    1
    36     3    32    1
    37     3    33    1
    38     4    34    1
    39     4    35    1
    40     7    36    1
    41    11    37    1
    42    12    38    1
    43    13    39    1
    44    19    40    1
    45    19    41    1
    46    20    42    1
    47    20    43    1
    48    22    44    1
    49    22    45    1
    50    23    46    1
    51    23    47    1
    52    24    48    1
    53    24    49    1
    54    25    50    1
    55    25    51    1
    56    26    52    1
    57    26    53    1
    58    27    54    1
    59    27    55    1
