@<TRIPOS>MOLECULE
*****
 26 25 0 0 0
SMALL
GASTEIGER

@<TRIPOS>ATOM
      1 C           2.9539    1.0377    0.5394 C.3     1  UNL1       -0.0653
      2 C           1.4303    0.9479    0.2289 C.3     1  UNL1       -0.0552
      3 C           1.1045   -0.4031   -0.2872 C.3     1  UNL1       -0.0404
      4 C          -0.2845   -0.7076   -0.6962 C.3     1  UNL1        0.0563
      5 C          -1.3883   -0.6293    0.2625 C.3     1  UNL1       -0.0404
      6 C          -1.7375    0.6264    0.9428 C.3     1  UNL1       -0.0552
      7 C          -2.0780    1.7564   -0.0036 C.3     1  UNL1       -0.0653
      8 C          -0.2394   -2.1688   -1.1453 C.2     1  UNL1        0.3078
      9 O           0.1566   -3.1099   -0.2082 O.3     1  UNL1       -0.4804
     10 O          -0.5382   -2.5860   -2.3152 O.2     1  UNL1       -0.2507
     11 H           3.1811    0.2727    1.2972 H       1  UNL1        0.0230
     12 H           3.0669    2.0290    1.0282 H       1  UNL1        0.0230
     13 H           3.5279    0.9490   -0.3920 H       1  UNL1        0.0230
     14 H           0.9952    1.1048    1.2440 H       1  UNL1        0.0263
     15 H           1.2366    1.7377   -0.4923 H       1  UNL1        0.0263
     16 H           1.4882   -1.2184    0.3875 H       1  UNL1        0.0273
     17 H           1.7431   -0.5460   -1.2203 H       1  UNL1        0.0273
     18 H          -0.5123   -0.0969   -1.6343 H       1  UNL1        0.0413
     19 H          -1.2880   -1.4619    1.0157 H       1  UNL1        0.0273
     20 H          -2.3234   -0.9555   -0.3087 H       1  UNL1        0.0273
     21 H          -1.1553    0.9911    1.7663 H       1  UNL1        0.0263
     22 H          -2.7647    0.4054    1.4395 H       1  UNL1        0.0263
     23 H          -1.1585    2.0089   -0.5596 H       1  UNL1        0.0230
     24 H          -2.8980    1.4602   -0.6861 H       1  UNL1        0.0230
     25 H          -2.3686    2.6295    0.6306 H       1  UNL1        0.0230
     26 H          -0.1498   -4.0735   -0.2282 H       1  UNL1        0.2951
@<TRIPOS>BOND
     1     1     2    1
     2     2     3    1
     3     3     4    1
     4     4     5    1
     5     5     6    1
     6     6     7    1
     7     4     8    1
     8     8     9    1
     9     8    10    2
    10     1    11    1
    11     1    12    1
    12     1    13    1
    13     2    14    1
    14     2    15    1
    15     3    16    1
    16     3    17    1
    17     4    18    1
    18     5    19    1
    19     5    20    1
    20     6    21    1
    21     6    22    1
    22     7    23    1
    23     7    24    1
    24     7    25    1
    25     9    26    1
