@<TRIPOS>MOLECULE
*****
 38 41 0 0 0
SMALL
GASTEIGER

@<TRIPOS>ATOM
      1 N           6.6938   -0.9748   -1.9073 N.1     1  UNL1       -0.1908
      2 C           5.6256   -0.5762   -1.8968 C.1     1  UNL1        0.1005
      3 C           4.2209   -0.0637   -1.8682 C.ar    1  UNL1        0.0713
      4 C           3.7431    0.5240   -3.0133 C.ar    1  UNL1       -0.0044
      5 S           2.0427    0.9787   -2.5853 S.2     1  UNL1       -0.0799
      6 C           2.1297    0.3456   -0.9333 C.ar    1  UNL1        0.0837
      7 N           1.0389    0.3687    0.0075 N.am    1  UNL1       -0.2791
      8 C           0.0743   -0.6904   -0.0263 C.2     1  UNL1        0.2219
      9 O           0.2822   -1.5609   -0.9553 O.2     1  UNL1       -0.2751
     10 C          -1.0626   -0.8599    0.8623 C.3     1  UNL1        0.0500
     11 C          -2.3998   -0.6658    0.3206 C.ar    1  UNL1       -0.0295
     12 C          -3.1141   -1.7736   -0.1611 C.ar    1  UNL1       -0.0574
     13 C          -4.3693   -1.6449   -0.6846 C.ar    1  UNL1       -0.0594
     14 C          -4.9323   -0.3731   -0.7290 C.ar    1  UNL1       -0.0357
     15 C          -4.2389    0.6855   -0.2627 C.ar    1  UNL1        0.0712
     16 N          -4.8149    1.9176   -0.2908 N.ar    1  UNL1       -0.2550
     17 C          -4.2118    3.0112    0.1697 C.ar    1  UNL1        0.0283
     18 C          -2.9395    2.9416    0.7094 C.ar    1  UNL1       -0.0430
     19 C          -2.3261    1.7190    0.7528 C.ar    1  UNL1       -0.0509
     20 C          -2.9701    0.6089    0.2731 C.ar    1  UNL1        0.0040
     21 C           3.3774   -0.1440   -0.8110 C.ar    1  UNL1        0.0648
     22 C           3.8192   -0.7005    0.5081 C.ar    1  UNL1        0.1650
     23 N           5.0088   -1.2202    0.7621 N.ar    1  UNL1       -0.1295
     24 N           5.1012   -1.5722    2.0401 N.ar    1  UNL1       -0.1377
     25 C           3.9252   -1.2726    2.6441 C.ar    1  UNL1        0.1175
     26 N           3.1530   -0.7333    1.6595 N.ar    1  UNL1       -0.3276
     27 H           4.2135    0.7053   -3.9748 H       1  UNL1        0.0707
     28 H           0.9654    1.1511    0.6709 H       1  UNL1        0.1553
     29 H          -0.9005   -0.2590    1.8166 H       1  UNL1        0.0407
     30 H          -1.0369   -1.9227    1.2699 H       1  UNL1        0.0407
     31 H          -2.6572   -2.7409   -0.1145 H       1  UNL1        0.0621
     32 H          -4.9045   -2.5012   -1.0514 H       1  UNL1        0.0618
     33 H          -5.9330   -0.2964   -1.1440 H       1  UNL1        0.0639
     34 H          -4.6722    3.9782    0.1476 H       1  UNL1        0.0830
     35 H          -2.4301    3.8383    1.1027 H       1  UNL1        0.0633
     36 H          -1.3358    1.6020    1.1570 H       1  UNL1        0.0625
     37 H           3.6375   -1.4115    3.6741 H       1  UNL1        0.1046
     38 H           2.1976   -0.4180    1.8617 H       1  UNL1        0.1683
@<TRIPOS>BOND
     1     1     2    3
     2     2     3    1
     3     3     4   ar
     4     4     5   ar
     5     5     6   ar
     6     6     7    1
     7     7     8   am
     8     8     9    2
     9     8    10    1
    10    10    11    1
    11    11    12   ar
    12    12    13   ar
    13    13    14   ar
    14    14    15   ar
    15    15    16   ar
    16    16    17   ar
    17    17    18   ar
    18    18    19   ar
    19    19    20   ar
    20     6    21   ar
    21    21    22    1
    22    22    23   ar
    23    23    24   ar
    24    24    25   ar
    25    25    26   ar
    26    21     3   ar
    27    26    22   ar
    28    20    11   ar
    29    20    15   ar
    30     4    27    1
    31     7    28    1
    32    10    29    1
    33    10    30    1
    34    12    31    1
    35    13    32    1
    36    14    33    1
    37    17    34    1
    38    18    35    1
    39    19    36    1
    40    25    37    1
    41    26    38    1
