@<TRIPOS>MOLECULE
*****
 11 11 0 0 0
SMALL
GASTEIGER

@<TRIPOS>ATOM
      1 O          -2.3837   -1.2055   -0.0716 O.2     1  UNL1       -0.2467
      2 C          -1.2805   -0.5683   -0.0709 C.ar    1  UNL1        0.3268
      3 N          -1.1671    0.7716   -0.0065 N.ar    1  UNL1       -0.3095
      4 C           0.1400    1.0858   -0.0279 C.ar    1  UNL1        0.0660
      5 C           0.8649   -0.0816   -0.1074 C.ar    1  UNL1        0.2106
      6 O           2.2669   -0.1737   -0.1520 O.3     1  UNL1       -0.4926
      7 N          -0.0356   -1.0722   -0.1318 N.ar    1  UNL1       -0.2778
      8 H          -1.9845    1.4281    0.0499 H       1  UNL1        0.1700
      9 H           0.5473    2.0746    0.0104 H       1  UNL1        0.0862
     10 H           2.8128   -0.1734    0.6979 H       1  UNL1        0.2937
     11 H           0.2195   -2.0855   -0.1901 H       1  UNL1        0.1733
@<TRIPOS>BOND
     1     1     2    2
     2     2     3   ar
     3     3     4   ar
     4     4     5   ar
     5     5     6    1
     6     5     7   ar
     7     7     2   ar
     8     3     8    1
     9     4     9    1
    10     6    10    1
    11     7    11    1
