@<TRIPOS>MOLECULE
*****
 28 30 0 0 0
SMALL
GASTEIGER

@<TRIPOS>ATOM
      1 C          -2.5102    2.5383    0.3574 C.3     1  UNL1        0.0325
      2 N          -2.1648    1.1302    0.2903 N.ar    1  UNL1       -0.2481
      3 N          -3.0420    0.1415    0.2828 N.ar    1  UNL1       -0.1741
      4 C          -2.4207   -1.0429    0.2146 C.ar    1  UNL1        0.0730
      5 C          -2.9566   -2.4294    0.1796 C.3     1  UNL1       -0.0198
      6 C          -1.0834   -0.7169    0.1800 C.ar    1  UNL1        0.0900
      7 C          -0.9120    0.6514    0.2272 C.ar    1  UNL1        0.1785
      8 N           0.3219    1.2322    0.2061 N.ar    1  UNL1       -0.1662
      9 O           0.3253    2.6058    0.2595 O.3     1  UNL1       -0.4245
     10 C           1.4339    0.4588    0.1366 C.ar    1  UNL1        0.0933
     11 C           1.3203   -0.9314    0.0864 C.ar    1  UNL1        0.0506
     12 C           2.4785   -1.6719    0.0165 C.ar    1  UNL1       -0.0305
     13 C           3.6872   -1.0089   -0.0005 C.ar    1  UNL1        0.0418
     14 CL          5.1165   -1.9920   -0.0895 Cl      1  UNL1       -0.0835
     15 C           3.8277    0.3524    0.0476 C.ar    1  UNL1       -0.0413
     16 C           2.6552    1.1002    0.1183 C.ar    1  UNL1       -0.0328
     17 C           0.0611   -1.4942    0.1091 C.ar    1  UNL1        0.2006
     18 O           0.0198   -2.7527    0.0615 O.2     1  UNL1       -0.2864
     19 H          -2.4311    2.9508   -0.6827 H       1  UNL1        0.0473
     20 H          -1.8755    3.1264    1.0250 H       1  UNL1        0.0473
     21 H          -3.5692    2.6844    0.6450 H       1  UNL1        0.0473
     22 H          -2.2434   -3.1264    0.6366 H       1  UNL1        0.0293
     23 H          -3.9385   -2.4859    0.6726 H       1  UNL1        0.0293
     24 H          -3.0486   -2.6937   -0.9056 H       1  UNL1        0.0293
     25 H           0.9907    3.1425   -0.2615 H       1  UNL1        0.3258
     26 H           2.4122   -2.7687   -0.0239 H       1  UNL1        0.0640
     27 H           4.8039    0.8174    0.0311 H       1  UNL1        0.0633
     28 H           2.7417    2.1830    0.1574 H       1  UNL1        0.0640
@<TRIPOS>BOND
     1     1     2    1
     2     2     3   ar
     3     3     4   ar
     4     4     5    1
     5     4     6   ar
     6     6     7   ar
     7     7     8   ar
     8     8     9    1
     9     8    10   ar
    10    10    11   ar
    11    11    12   ar
    12    12    13   ar
    13    13    14    1
    14    13    15   ar
    15    15    16   ar
    16    11    17   ar
    17    17    18    2
    18     7     2   ar
    19    16    10   ar
    20    17     6   ar
    21     1    19    1
    22     1    20    1
    23     1    21    1
    24     5    22    1
    25     5    23    1
    26     5    24    1
    27     9    25    1
    28    12    26    1
    29    15    27    1
    30    16    28    1
