
     RDKit          3D

 42 42  0  0  0  0  0  0  0  0999 V2000
   -2.5874   -0.8581   -1.2549 C   0  0  2  0  0  0  0  0  0  0  0  0
   -3.6038   -1.1876   -0.2026 C   0  0  0  0  0  0  0  0  0  0  0  0
   -4.0403   -0.0252    0.6255 C   0  0  0  0  0  0  0  0  0  0  0  0
   -4.6752    1.1004   -0.1227 C   0  0  0  0  0  0  0  0  0  0  0  0
   -2.9397    0.4634    1.5590 C   0  0  0  0  0  0  0  0  0  0  0  0
   -1.3747   -0.3162   -0.6898 N   0  0  0  0  0  0  0  0  0  0  0  0
   -0.4696   -1.0145   -0.0977 C   0  0  0  0  0  0  0  0  0  0  0  0
   -0.5689   -2.3894    0.0615 O   0  0  0  0  0  0  0  0  0  0  0  0
    0.7627   -0.3085    0.4525 C   0  0  0  0  0  0  0  0  0  0  0  0
    1.9168   -0.8068   -0.1491 N   0  0  0  0  0  0  0  0  0  0  0  0
    3.1092   -0.6030   -0.0232 C   0  0  0  0  0  0  0  0  0  0  0  0
    3.3001   -1.5422   -1.0139 O   0  0  0  0  0  0  0  0  0  0  0  0
    4.2475    0.0563    0.5803 C   0  0  0  0  0  0  0  0  0  0  0  0
    4.1981    1.0107    1.5695 C   0  0  0  0  0  0  0  0  0  0  0  0
    2.6762    1.5334    2.2123 Cl  0  0  0  0  0  0  0  0  0  0  0  0
    5.2846    1.6283    2.1324 C   0  0  0  0  0  0  0  0  0  0  0  0
    6.5002    1.2210    1.6278 C   0  0  0  0  0  0  0  0  0  0  0  0
    6.6852    0.2839    0.6471 C   0  0  0  0  0  0  0  0  0  0  0  0
    8.2535   -0.1851    0.0543 Cl  0  0  0  0  0  0  0  0  0  0  0  0
    5.5283   -0.2553    0.1700 C   0  0  0  0  0  0  0  0  0  0  0  0
   -3.1460    0.1096   -2.3710 B   0  0  0  0  0  0  0  0  0  0  0  0
   -2.5032    1.4154   -2.5769 O   0  0  0  0  0  0  0  0  0  0  0  0
   -3.8423   -0.4188   -3.5642 O   0  0  0  0  0  0  0  0  0  0  0  0
   -2.3380   -1.8019   -1.7827 H   0  0  0  0  0  0  0  0  0  0  0  0
   -4.4718   -1.6889   -0.6257 H   0  0  0  0  0  0  0  0  0  0  0  0
   -3.1333   -1.9118    0.4950 H   0  0  0  0  0  0  0  0  0  0  0  0
   -4.8213   -0.4372    1.3173 H   0  0  0  0  0  0  0  0  0  0  0  0
   -5.4800    1.5662    0.5198 H   0  0  0  0  0  0  0  0  0  0  0  0
   -3.9904    1.9486   -0.3265 H   0  0  0  0  0  0  0  0  0  0  0  0
   -5.2080    0.7141   -0.9972 H   0  0  0  0  0  0  0  0  0  0  0  0
   -2.4879   -0.4136    2.0171 H   0  0  0  0  0  0  0  0  0  0  0  0
   -2.2328    1.1337    1.0481 H   0  0  0  0  0  0  0  0  0  0  0  0
   -3.4433    1.0546    2.3503 H   0  0  0  0  0  0  0  0  0  0  0  0
   -1.2204   -2.9389   -0.5209 H   0  0  0  0  0  0  0  0  0  0  0  0
    0.6369    0.7957    0.2547 H   0  0  0  0  0  0  0  0  0  0  0  0
    0.7056   -0.5140    1.5525 H   0  0  0  0  0  0  0  0  0  0  0  0
    2.9520   -1.5214   -1.9791 H   0  0  0  0  0  0  0  0  0  0  0  0
    5.2448    2.3699    2.9012 H   0  0  0  0  0  0  0  0  0  0  0  0
    7.4078    1.6681    2.0269 H   0  0  0  0  0  0  0  0  0  0  0  0
    5.6100   -1.0164   -0.6218 H   0  0  0  0  0  0  0  0  0  0  0  0
   -2.0691    1.7661   -1.7685 H   0  0  0  0  0  0  0  0  0  0  0  0
   -4.3722    0.3154   -3.9388 H   0  0  0  0  0  0  0  0  0  0  0  0
  1  2  1  0
  2  3  1  0
  3  4  1  0
  3  5  1  0
  1  6  1  0
  6  7  2  3
  7  8  1  0
  7  9  1  0
  9 10  1  0
 10 11  2  3
 11 12  1  0
 11 13  1  0
 13 14  2  0
 14 15  1  0
 14 16  1  0
 16 17  2  0
 17 18  1  0
 18 19  1  0
 18 20  2  0
  1 21  1  0
 21 22  1  0
 21 23  1  0
 20 13  1  0
  1 24  1  6
  2 25  1  0
  2 26  1  0
  3 27  1  0
  4 28  1  0
  4 29  1  0
  4 30  1  0
  5 31  1  0
  5 32  1  0
  5 33  1  0
  8 34  1  0
  9 35  1  0
  9 36  1  0
 12 37  1  0
 16 38  1  0
 17 39  1  0
 20 40  1  0
 22 41  1  0
 23 42  1  0
M  END
$$$$
