@<TRIPOS>MOLECULE
*****
 47 50 0 0 0
SMALL
GASTEIGER

@<TRIPOS>ATOM
      1 C           8.3685    3.4387    3.1565 C.1     1  UNL1       -0.1158
      2 C           7.5819    3.1024    2.6642 C.1     1  UNL1       -0.0647
      3 C           6.2046    2.4958    1.8252 C.3     1  UNL1        0.1513
      4 O           6.7268    1.1948    1.3593 O.3     1  UNL1       -0.4624
      5 C           5.6042    0.5169    0.9136 C.ar    1  UNL1        0.2344
      6 C           5.5248   -0.8609    0.4111 C.ar    1  UNL1        0.0899
      7 N           4.2959   -1.2796    0.0237 N.ar    1  UNL1       -0.2435
      8 C           3.0976   -0.5266    0.0688 C.ar    1  UNL1        0.1439
      9 C           1.8584   -0.9882   -0.3857 C.2     1  UNL1        0.2681
     10 O           0.8648   -0.5327    0.4336 O.2     1  UNL1       -0.2681
     11 N           1.2901   -1.7852   -1.4230 N.am    1  UNL1       -0.2801
     12 C          -0.1495   -2.0610   -1.2149 C.ar    1  UNL1        0.0369
     13 C          -0.4902   -3.4325   -0.7404 C.ar    1  UNL1       -0.0037
     14 C          -1.5838   -3.7309   -0.2767 C.ar    1  UNL1        0.1437
     15 F          -1.9043   -5.0132    0.2635 F       1  UNL1       -0.2039
     16 C          -2.5342   -2.6975   -0.2053 C.ar    1  UNL1        0.0817
     17 CL         -4.0868   -3.3770    0.4703 Cl      1  UNL1       -0.0802
     18 C          -2.4583   -1.5009   -0.5438 C.ar    1  UNL1        0.0057
     19 C          -3.3091   -0.3348   -0.3508 C.3     1  UNL1        0.1272
     20 C          -2.9399    0.0052    1.2043 C.3     1  UNL1        0.1199
     21 F          -3.5979    1.1096    1.5920 F       1  UNL1       -0.2462
     22 N          -2.9582    0.8796   -0.9906 N.2     1  UNL1       -0.2225
     23 C          -3.7672    1.4909   -1.8397 C.2     1  UNL1        0.2763
     24 N          -3.3745    2.7608   -2.4479 N.pl3   1  UNL1       -0.3134
     25 O          -4.9682    0.8970   -2.1215 O.2     1  UNL1       -0.4622
     26 C          -5.6941    0.1273   -1.1367 C.3     1  UNL1        0.1090
     27 C          -5.5950    0.6782    0.2711 C.3     1  UNL1       -0.0065
     28 C          -4.7660   -0.5263   -0.2386 C.3     1  UNL1        0.0314
     29 C          -1.0780   -1.0796   -1.1450 C.ar    1  UNL1       -0.0333
     30 C           3.2471    0.7342    0.5534 C.ar    1  UNL1        0.0619
     31 N           4.4578    1.0135    0.8771 N.ar    1  UNL1       -0.2177
     32 H           9.2420    3.8325    3.7028 H       1  UNL1        0.1229
     33 H           6.2335    3.1559    0.9733 H       1  UNL1        0.0837
     34 H           5.5388    2.3872    2.6200 H       1  UNL1        0.0837
     35 H           6.4192   -1.4077    0.4118 H       1  UNL1        0.0884
     36 H           1.8062   -2.1289   -2.1723 H       1  UNL1        0.1552
     37 H           0.3862   -4.1132   -0.8826 H       1  UNL1        0.0665
     38 H          -1.8556    0.2080    1.1121 H       1  UNL1        0.0643
     39 H          -3.1758   -0.8597    1.7895 H       1  UNL1        0.0643
     40 H          -3.0849    3.5322   -1.8465 H       1  UNL1        0.1466
     41 H          -3.3672    2.8770   -3.5009 H       1  UNL1        0.1466
     42 H          -6.6272   -0.2551   -1.4896 H       1  UNL1        0.0737
     43 H          -6.4766    0.4848    0.9295 H       1  UNL1        0.0306
     44 H          -5.1514    1.6837    0.3516 H       1  UNL1        0.0306
     45 H          -5.1675   -1.4536    0.2659 H       1  UNL1        0.0365
     46 H          -1.0469   -0.1195   -1.4284 H       1  UNL1        0.0640
     47 H           2.4600    1.4585    0.6425 H       1  UNL1        0.0854
@<TRIPOS>BOND
     1     1     2    3
     2     2     3    1
     3     3     4    1
     4     4     5    1
     5     5     6   ar
     6     6     7   ar
     7     7     8   ar
     8     8     9    1
     9     9    10    2
    10     9    11   am
    11    11    12    1
    12    12    13   ar
    13    13    14   ar
    14    14    15    1
    15    14    16   ar
    16    16    17    1
    17    16    18   ar
    18    18    19    1
    19    19    20    1
    20    20    21    1
    21    19    22    1
    22    22    23    2
    23    23    24    1
    24    23    25    1
    25    25    26    1
    26    26    27    1
    27    27    28    1
    28    18    29   ar
    29     8    30   ar
    30    30    31   ar
    31    31     5   ar
    32    29    12   ar
    33    28    19    1
    34    28    26    1
    35     1    32    1
    36     3    33    1
    37     3    34    1
    38     6    35    1
    39    11    36    1
    40    13    37    1
    41    20    38    1
    42    20    39    1
    43    24    40    1
    44    24    41    1
    45    26    42    1
    46    27    43    1
    47    27    44    1
    48    28    45    1
    49    29    46    1
    50    30    47    1
