
     RDKit          3D

 47 50  0  0  0  0  0  0  0  0999 V2000
    8.3685    3.4387    3.1565 C   0  0  0  0  0  0  0  0  0  0  0  0
    7.5819    3.1024    2.6642 C   0  0  0  0  0  0  0  0  0  0  0  0
    6.2046    2.4958    1.8252 C   0  0  0  0  0  0  0  0  0  0  0  0
    6.7268    1.1948    1.3593 O   0  0  0  0  0  0  0  0  0  0  0  0
    5.6042    0.5169    0.9136 C   0  0  0  0  0  0  0  0  0  0  0  0
    5.5248   -0.8609    0.4111 C   0  0  0  0  0  0  0  0  0  0  0  0
    4.2959   -1.2796    0.0237 N   0  0  0  0  0  0  0  0  0  0  0  0
    3.0976   -0.5266    0.0688 C   0  0  0  0  0  0  0  0  0  0  0  0
    1.8584   -0.9882   -0.3857 C   0  0  0  0  0  0  0  0  0  0  0  0
    0.8648   -0.5327    0.4336 O   0  0  0  0  0  0  0  0  0  0  0  0
    1.2901   -1.7852   -1.4230 N   0  0  0  0  0  0  0  0  0  0  0  0
   -0.1495   -2.0610   -1.2149 C   0  0  0  0  0  0  0  0  0  0  0  0
   -0.4902   -3.4325   -0.7404 C   0  0  0  0  0  0  0  0  0  0  0  0
   -1.5838   -3.7309   -0.2767 C   0  0  0  0  0  0  0  0  0  0  0  0
   -1.9043   -5.0132    0.2635 F   0  0  0  0  0  0  0  0  0  0  0  0
   -2.5342   -2.6975   -0.2053 C   0  0  0  0  0  0  0  0  0  0  0  0
   -4.0868   -3.3770    0.4703 Cl  0  0  0  0  0  0  0  0  0  0  0  0
   -2.4583   -1.5009   -0.5438 C   0  0  0  0  0  0  0  0  0  0  0  0
   -3.3091   -0.3348   -0.3508 C   0  0  1  0  0  0  0  0  0  0  0  0
   -2.9399    0.0052    1.2043 C   0  0  0  0  0  0  0  0  0  0  0  0
   -3.5979    1.1096    1.5920 F   0  0  0  0  0  0  0  0  0  0  0  0
   -2.9582    0.8796   -0.9906 N   0  0  0  0  0  0  0  0  0  0  0  0
   -3.7672    1.4909   -1.8397 C   0  0  0  0  0  0  0  0  0  0  0  0
   -3.3745    2.7608   -2.4479 N   0  0  0  0  0  0  0  0  0  0  0  0
   -4.9682    0.8970   -2.1215 O   0  0  0  0  0  0  0  0  0  0  0  0
   -5.6941    0.1273   -1.1367 C   0  0  2  0  0  0  0  0  0  0  0  0
   -5.5950    0.6782    0.2711 C   0  0  0  0  0  0  0  0  0  0  0  0
   -4.7660   -0.5263   -0.2386 C   0  0  2  0  0  0  0  0  0  0  0  0
   -1.0780   -1.0796   -1.1450 C   0  0  0  0  0  0  0  0  0  0  0  0
    3.2471    0.7342    0.5534 C   0  0  0  0  0  0  0  0  0  0  0  0
    4.4578    1.0135    0.8771 N   0  0  0  0  0  0  0  0  0  0  0  0
    9.2420    3.8325    3.7028 H   0  0  0  0  0  0  0  0  0  0  0  0
    6.2335    3.1559    0.9733 H   0  0  0  0  0  0  0  0  0  0  0  0
    5.5388    2.3872    2.6200 H   0  0  0  0  0  0  0  0  0  0  0  0
    6.4192   -1.4077    0.4118 H   0  0  0  0  0  0  0  0  0  0  0  0
    1.8062   -2.1289   -2.1723 H   0  0  0  0  0  0  0  0  0  0  0  0
    0.3862   -4.1132   -0.8826 H   0  0  0  0  0  0  0  0  0  0  0  0
   -1.8556    0.2080    1.1121 H   0  0  0  0  0  0  0  0  0  0  0  0
   -3.1758   -0.8597    1.7895 H   0  0  0  0  0  0  0  0  0  0  0  0
   -3.0849    3.5322   -1.8465 H   0  0  0  0  0  0  0  0  0  0  0  0
   -3.3672    2.8770   -3.5009 H   0  0  0  0  0  0  0  0  0  0  0  0
   -6.6272   -0.2551   -1.4896 H   0  0  0  0  0  0  0  0  0  0  0  0
   -6.4766    0.4848    0.9295 H   0  0  0  0  0  0  0  0  0  0  0  0
   -5.1514    1.6837    0.3516 H   0  0  0  0  0  0  0  0  0  0  0  0
   -5.1675   -1.4536    0.2659 H   0  0  0  0  0  0  0  0  0  0  0  0
   -1.0469   -0.1195   -1.4284 H   0  0  0  0  0  0  0  0  0  0  0  0
    2.4600    1.4585    0.6425 H   0  0  0  0  0  0  0  0  0  0  0  0
  1  2  3  0
  2  3  1  0
  3  4  1  0
  4  5  1  0
  5  6  2  0
  6  7  1  0
  7  8  2  0
  8  9  1  0
  9 10  2  0
  9 11  1  0
 11 12  1  0
 12 13  2  0
 13 14  1  0
 14 15  1  0
 14 16  2  0
 16 17  1  0
 16 18  1  0
 18 19  1  0
 19 20  1  1
 20 21  1  0
 19 22  1  0
 22 23  2  0
 23 24  1  0
 23 25  1  0
 25 26  1  0
 26 27  1  0
 27 28  1  0
 18 29  2  0
  8 30  1  0
 30 31  2  0
 31  5  1  0
 29 12  1  0
 28 19  1  0
 28 26  1  0
  1 32  1  0
  3 33  1  0
  3 34  1  0
  6 35  1  0
 11 36  1  0
 13 37  1  0
 20 38  1  0
 20 39  1  0
 24 40  1  0
 24 41  1  0
 26 42  1  6
 27 43  1  0
 27 44  1  0
 28 45  1  1
 29 46  1  0
 30 47  1  0
M  END
$$$$
