@<TRIPOS>MOLECULE
*****
 80 85 0 0 0
SMALL
GASTEIGER

@<TRIPOS>ATOM
      1 N          -5.9761   -2.2568   -2.8681 N.pl3   1  UNL1       -0.3425
      2 C          -4.7734   -2.1498   -2.1376 C.ar    1  UNL1        0.1308
      3 N          -3.6775   -2.8861   -2.5323 N.ar    1  UNL1       -0.2204
      4 C          -2.5426   -2.7607   -1.8451 C.ar    1  UNL1        0.1204
      5 N          -2.3857   -1.9764   -0.8145 N.ar    1  UNL1       -0.2161
      6 C          -3.4479   -1.2252   -0.3919 C.ar    1  UNL1        0.1642
      7 C          -4.6654   -1.3098   -1.0588 C.ar    1  UNL1        0.0859
      8 C          -5.5094   -0.4224   -0.4333 C.ar    1  UNL1        0.1055
      9 C          -6.9478   -0.2390   -0.7016 C.ar    1  UNL1        0.0090
     10 C          -7.7543   -1.3500   -0.7584 C.ar    1  UNL1       -0.0107
     11 C          -9.1349   -1.3398   -0.9566 C.ar    1  UNL1        0.1202
     12 O          -9.8202   -2.5579   -1.0012 O.3     1  UNL1       -0.5067
     13 C          -9.7155   -0.1235   -1.0978 C.ar    1  UNL1        0.0151
     14 C          -8.9348    1.0202   -1.0430 C.ar    1  UNL1        0.1275
     15 F          -9.5887    2.2006   -1.1829 F       1  UNL1       -0.2053
     16 C          -7.5614    0.9719   -0.8459 C.ar    1  UNL1       -0.0170
     17 N          -4.8165    0.1782    0.5572 N.ar    1  UNL1       -0.1682
     18 N          -3.5352   -0.3425    0.5675 N.ar    1  UNL1       -0.2383
     19 C          -2.6790   -0.1244    1.6853 C.3     1  UNL1        0.1017
     20 C          -1.2535   -0.1881    1.4686 C.ar    1  UNL1        0.1349
     21 N          -0.7201   -1.2732    2.1579 N.ar    1  UNL1       -0.2315
     22 C           0.5792   -1.5918    2.1630 C.ar    1  UNL1        0.0794
     23 C           1.0206   -2.6749    2.8632 C.ar    1  UNL1       -0.0354
     24 C           2.3976   -3.0069    2.8716 C.ar    1  UNL1       -0.0586
     25 C           3.1607   -2.1581    2.1402 C.ar    1  UNL1       -0.0455
     26 C           2.7641   -1.0600    1.4248 C.ar    1  UNL1        0.0394
     27 C           3.7303   -0.1973    0.8753 C.1     1  UNL1       -0.0632
     28 C           4.6004    0.5693    0.3619 C.1     1  UNL1       -0.0687
     29 C           5.5797    1.4238   -0.1941 C.3     1  UNL1        0.1087
     30 O           6.7459    1.4267    0.5811 O.3     1  UNL1       -0.3651
     31 C           7.5383    0.3298    0.5139 C.3     1  UNL1        0.0722
     32 C           6.9807   -1.0142    0.6976 C.3     1  UNL1        0.0711
     33 O           7.8287   -2.0323    0.6205 O.3     1  UNL1       -0.3752
     34 C           8.6068   -2.5120   -0.2848 C.3     1  UNL1        0.0708
     35 C           9.7847   -1.7902   -0.8444 C.3     1  UNL1        0.0676
     36 O          10.4373   -2.6093   -1.8206 O.3     1  UNL1       -0.3927
     37 C           1.3842   -0.7703    1.4311 C.ar    1  UNL1        0.0802
     38 C           0.9036    0.3000    0.7395 C.ar    1  UNL1        0.2633
     39 O           1.6987    1.0092    0.0996 O.2     1  UNL1       -0.2669
     40 N          -0.4550    0.5999    0.7525 N.ar    1  UNL1       -0.2902
     41 C          -0.9508    1.5223   -0.1787 C.3     1  UNL1        0.0534
     42 C          -0.5666    2.9139   -0.2122 C.ar    1  UNL1       -0.0160
     43 C           0.2023    3.2953   -1.3516 C.ar    1  UNL1       -0.0563
     44 C           0.6275    4.5691   -1.5590 C.ar    1  UNL1       -0.0614
     45 C           0.3154    5.5318   -0.6506 C.ar    1  UNL1       -0.0612
     46 C          -0.4191    5.1872    0.4523 C.ar    1  UNL1       -0.0498
     47 C          -0.8802    3.8781    0.6985 C.ar    1  UNL1        0.0597
     48 C          -1.6960    3.6122    1.8932 C.3     1  UNL1        0.4177
     49 F          -1.7368    4.8259    2.6174 F       1  UNL1       -0.1659
     50 F          -1.1311    2.7026    2.7572 F       1  UNL1       -0.1659
     51 F          -3.0291    3.3533    1.6259 F       1  UNL1       -0.1659
     52 H          -6.2463   -1.5255   -3.5327 H       1  UNL1        0.1437
     53 H          -6.5736   -3.0899   -2.7183 H       1  UNL1        0.1437
     54 H          -1.6711   -3.3590   -2.1927 H       1  UNL1        0.1048
     55 H          -7.3202   -2.3539   -0.5893 H       1  UNL1        0.0661
     56 H          -9.3233   -3.4468   -1.1250 H       1  UNL1        0.2921
     57 H         -10.7703   -0.0521   -1.2430 H       1  UNL1        0.0683
     58 H          -6.9659    1.8864   -0.8087 H       1  UNL1        0.0653
     59 H          -2.9801    0.8280    2.2428 H       1  UNL1        0.0590
     60 H          -2.9950   -0.8989    2.4530 H       1  UNL1        0.0590
     61 H           0.3686   -3.3246    3.4425 H       1  UNL1        0.0639
     62 H           2.7203   -3.8360    3.4008 H       1  UNL1        0.0619
     63 H           4.2673   -2.3314    2.1117 H       1  UNL1        0.0630
     64 H           5.1754    2.4791   -0.1066 H       1  UNL1        0.0697
     65 H           5.7848    1.2865   -1.2813 H       1  UNL1        0.0697
     66 H           8.3055    0.4655    1.3604 H       1  UNL1        0.0583
     67 H           8.2193    0.4560   -0.4018 H       1  UNL1        0.0583
     68 H           6.1628   -1.2348   -0.0785 H       1  UNL1        0.0583
     69 H           6.4850   -1.0480    1.7160 H       1  UNL1        0.0583
     70 H           7.9682   -2.9306   -1.1543 H       1  UNL1        0.0583
     71 H           9.0539   -3.5112    0.0820 H       1  UNL1        0.0583
     72 H           9.4850   -0.8952   -1.3944 H       1  UNL1        0.0580
     73 H          10.5659   -1.5606   -0.0931 H       1  UNL1        0.0580
     74 H          10.9416   -1.9869   -2.4029 H       1  UNL1        0.2095
     75 H          -2.1012    1.5367   -0.1502 H       1  UNL1        0.0543
     76 H          -0.8240    1.0336   -1.1930 H       1  UNL1        0.0543
     77 H           0.4582    2.5508   -2.0739 H       1  UNL1        0.0621
     78 H           1.2129    4.8351   -2.4669 H       1  UNL1        0.0618
     79 H           0.6529    6.5479   -0.8156 H       1  UNL1        0.0618
     80 H          -0.6382    6.0015    1.1697 H       1  UNL1        0.0623
@<TRIPOS>BOND
     1     1     2    1
     2     2     3   ar
     3     3     4   ar
     4     4     5   ar
     5     5     6   ar
     6     6     7   ar
     7     7     8   ar
     8     8     9    1
     9     9    10   ar
    10    10    11   ar
    11    11    12    1
    12    11    13   ar
    13    13    14   ar
    14    14    15    1
    15    14    16   ar
    16     8    17   ar
    17    17    18   ar
    18    18    19    1
    19    19    20    1
    20    20    21   ar
    21    21    22   ar
    22    22    23   ar
    23    23    24   ar
    24    24    25   ar
    25    25    26   ar
    26    26    27    1
    27    27    28    3
    28    28    29    1
    29    29    30    1
    30    30    31    1
    31    31    32    1
    32    32    33    1
    33    33    34    1
    34    34    35    1
    35    35    36    1
    36    26    37   ar
    37    37    38   ar
    38    38    39    2
    39    38    40   ar
    40    40    41    1
    41    41    42    1
    42    42    43   ar
    43    43    44   ar
    44    44    45   ar
    45    45    46   ar
    46    46    47   ar
    47    47    48    1
    48    48    49    1
    49    48    50    1
    50    48    51    1
    51     7     2   ar
    52    16     9   ar
    53    40    20   ar
    54    47    42   ar
    55    18     6   ar
    56    37    22   ar
    57     1    52    1
    58     1    53    1
    59     4    54    1
    60    10    55    1
    61    12    56    1
    62    13    57    1
    63    16    58    1
    64    19    59    1
    65    19    60    1
    66    23    61    1
    67    24    62    1
    68    25    63    1
    69    29    64    1
    70    29    65    1
    71    31    66    1
    72    31    67    1
    73    32    68    1
    74    32    69    1
    75    34    70    1
    76    34    71    1
    77    35    72    1
    78    35    73    1
    79    36    74    1
    80    41    75    1
    81    41    76    1
    82    43    77    1
    83    44    78    1
    84    45    79    1
    85    46    80    1
