@<TRIPOS>MOLECULE
*****
 92 97 0 0 0
SMALL
GASTEIGER

@<TRIPOS>ATOM
      1 C           9.1661   -2.6956    4.6432 C.3     1  UNL1        0.0789
      2 O           8.2598   -2.2273    3.6667 O.3     1  UNL1       -0.4933
      3 C           8.7899   -1.6947    2.5001 C.ar    1  UNL1        0.1412
      4 C          10.1311   -1.5987    2.2634 C.ar    1  UNL1       -0.0174
      5 C          10.6510   -1.0687    1.1041 C.ar    1  UNL1       -0.0461
      6 C           9.7978   -0.5999    0.1048 C.ar    1  UNL1        0.0387
      7 C          10.3921   -0.0228   -1.0988 C.2     1  UNL1        0.2442
      8 O          11.6233    0.2744   -1.1237 O.2     1  UNL1       -0.2702
      9 N           9.6133    0.2106   -2.2476 N.am    1  UNL1       -0.3092
     10 C          10.1066    0.7869   -3.4620 C.3     1  UNL1        0.0351
     11 C          10.5880    2.2012   -3.3586 C.3     1  UNL1        0.0597
     12 O          11.6122    2.3915   -2.4883 O.3     1  UNL1       -0.3935
     13 C           8.4487   -0.6951    0.3391 C.ar    1  UNL1       -0.0248
     14 C           7.9091   -1.2249    1.5005 C.ar    1  UNL1        0.0765
     15 N           6.5390   -1.3135    1.7803 N.pl3   1  UNL1       -0.2806
     16 C           5.4326   -0.9909    0.9501 C.ar    1  UNL1        0.2226
     17 N           5.6117   -0.6640   -0.3392 N.ar    1  UNL1       -0.2225
     18 C           4.6075   -0.3457   -1.1663 C.ar    1  UNL1        0.0362
     19 C           3.3430   -0.3686   -0.6220 C.ar    1  UNL1        0.0186
     20 C           3.0807   -0.6973    0.7045 C.ar    1  UNL1        0.2249
     21 O           1.9038   -0.7277    1.2523 O.3     1  UNL1       -0.4373
     22 C           0.6385   -0.6391    1.3716 C.ar    1  UNL1        0.1381
     23 C           0.0766    0.2932    2.2651 C.ar    1  UNL1       -0.0169
     24 C          -1.2827    0.4143    2.4303 C.ar    1  UNL1       -0.0363
     25 C          -2.1486   -0.3817    1.7190 C.ar    1  UNL1        0.0427
     26 N          -3.5282   -0.2759    1.9129 N.am    1  UNL1       -0.2686
     27 C          -4.3965    0.5304    1.1619 C.2     1  UNL1        0.3092
     28 O          -3.9789    1.2165    0.2345 O.2     1  UNL1       -0.2521
     29 N          -5.8051    0.5932    1.4412 N.am    1  UNL1       -0.2538
     30 C          -6.7214    1.3702    0.7034 C.ar    1  UNL1        0.1299
     31 C          -7.1331    2.6631    0.8769 C.ar    1  UNL1        0.0021
     32 C          -8.0612    2.9929   -0.1148 C.ar    1  UNL1        0.0706
     33 C          -8.7750    4.2767   -0.3301 C.3     1  UNL1        0.0063
     34 C         -10.0655    4.2680    0.4733 C.3     1  UNL1       -0.0546
     35 C          -9.1366    4.4317   -1.7898 C.3     1  UNL1       -0.0546
     36 C          -7.9195    5.4164    0.1521 C.3     1  UNL1       -0.0546
     37 N          -8.1692    1.8576   -0.8578 N.ar    1  UNL1       -0.1691
     38 N          -7.3903    0.9051   -0.3870 N.ar    1  UNL1       -0.2181
     39 C          -7.2514   -0.4164   -0.9099 C.ar    1  UNL1        0.0674
     40 C          -7.8321   -1.4832   -0.2183 C.ar    1  UNL1       -0.0359
     41 C          -7.7283   -2.7675   -0.6635 C.ar    1  UNL1       -0.0568
     42 C          -7.0261   -3.0286   -1.8378 C.ar    1  UNL1       -0.0503
     43 C          -6.9320   -4.4407   -2.2956 C.3     1  UNL1       -0.0397
     44 C          -6.4606   -1.9672   -2.5065 C.ar    1  UNL1       -0.0568
     45 C          -6.5542   -0.6538   -2.0711 C.ar    1  UNL1       -0.0359
     46 C          -1.6247   -1.2962    0.8408 C.ar    1  UNL1        0.0069
     47 C          -2.5089   -2.0812    0.1341 C.ar    1  UNL1       -0.0521
     48 C          -1.9867   -3.0099   -0.7616 C.ar    1  UNL1       -0.0611
     49 C          -0.6222   -3.1307   -0.9280 C.ar    1  UNL1       -0.0611
     50 C           0.2706   -2.3455   -0.2212 C.ar    1  UNL1       -0.0505
     51 C          -0.2586   -1.4228    0.6696 C.ar    1  UNL1        0.0262
     52 N           4.1913   -1.0013    1.4399 N.ar    1  UNL1       -0.1789
     53 H           9.8563   -1.9270    5.0276 H       1  UNL1        0.0660
     54 H           8.5490   -3.1754    5.4411 H       1  UNL1        0.0660
     55 H           9.8155   -3.5027    4.2203 H       1  UNL1        0.0660
     56 H          10.8127   -1.9640    3.0434 H       1  UNL1        0.0655
     57 H          11.7283   -0.9929    0.9128 H       1  UNL1        0.0626
     58 H           8.5794   -0.0714   -2.1979 H       1  UNL1        0.1491
     59 H          10.9433    0.1346   -3.8199 H       1  UNL1        0.0485
     60 H           9.2972    0.7855   -4.2317 H       1  UNL1        0.0485
     61 H           9.6876    2.8256   -3.0896 H       1  UNL1        0.0573
     62 H          10.9261    2.4812   -4.4021 H       1  UNL1        0.0573
     63 H          11.4514    2.9867   -1.7334 H       1  UNL1        0.2095
     64 H           7.7951   -0.3216   -0.4354 H       1  UNL1        0.0645
     65 H           6.2382   -1.6735    2.7438 H       1  UNL1        0.1551
     66 H           4.8357   -0.0942   -2.1859 H       1  UNL1        0.0832
     67 H           2.5153   -0.1131   -1.2795 H       1  UNL1        0.0686
     68 H           0.7076    0.9525    2.8555 H       1  UNL1        0.0655
     69 H          -1.7179    1.1434    3.1256 H       1  UNL1        0.0637
     70 H          -3.9779   -0.8460    2.6918 H       1  UNL1        0.1564
     71 H          -6.1457   -0.0011    2.2478 H       1  UNL1        0.1578
     72 H          -6.8216    3.3443    1.6344 H       1  UNL1        0.0671
     73 H         -10.7637    5.0549    0.1257 H       1  UNL1        0.0239
     74 H          -9.8734    4.4269    1.5341 H       1  UNL1        0.0239
     75 H         -10.5248    3.2564    0.2751 H       1  UNL1        0.0239
     76 H          -9.6951    3.5410   -2.1133 H       1  UNL1        0.0239
     77 H          -9.8088    5.3046   -1.8722 H       1  UNL1        0.0239
     78 H          -8.1968    4.5828   -2.3444 H       1  UNL1        0.0239
     79 H          -7.1101    5.6485   -0.5756 H       1  UNL1        0.0239
     80 H          -8.5207    6.3610    0.2102 H       1  UNL1        0.0239
     81 H          -7.5064    5.2263    1.1432 H       1  UNL1        0.0239
     82 H          -8.3664   -1.2241    0.6873 H       1  UNL1        0.0639
     83 H          -8.1983   -3.5561   -0.0849 H       1  UNL1        0.0621
     84 H          -7.0011   -4.5409   -3.3964 H       1  UNL1        0.0278
     85 H          -7.8107   -5.0222   -1.8983 H       1  UNL1        0.0278
     86 H          -6.0177   -4.9577   -1.9130 H       1  UNL1        0.0278
     87 H          -5.9136   -2.1721   -3.4202 H       1  UNL1        0.0621
     88 H          -6.1080    0.1680   -2.6018 H       1  UNL1        0.0639
     89 H          -3.5736   -1.9558    0.2944 H       1  UNL1        0.0624
     90 H          -2.6666   -3.6180   -1.3078 H       1  UNL1        0.0618
     91 H          -0.2396   -3.8723   -1.6402 H       1  UNL1        0.0618
     92 H           1.3337   -2.4391   -0.3502 H       1  UNL1        0.0625
@<TRIPOS>BOND
     1     1     2    1
     2     2     3    1
     3     3     4   ar
     4     4     5   ar
     5     5     6   ar
     6     6     7    1
     7     7     8    2
     8     7     9   am
     9     9    10    1
    10    10    11    1
    11    11    12    1
    12     6    13   ar
    13    13    14   ar
    14    14    15    1
    15    15    16    1
    16    16    17   ar
    17    17    18   ar
    18    18    19   ar
    19    19    20   ar
    20    20    21    1
    21    21    22    1
    22    22    23   ar
    23    23    24   ar
    24    24    25   ar
    25    25    26    1
    26    26    27   am
    27    27    28    2
    28    27    29   am
    29    29    30    1
    30    30    31   ar
    31    31    32   ar
    32    32    33    1
    33    33    34    1
    34    33    35    1
    35    33    36    1
    36    32    37   ar
    37    37    38   ar
    38    38    39    1
    39    39    40   ar
    40    40    41   ar
    41    41    42   ar
    42    42    43    1
    43    42    44   ar
    44    44    45   ar
    45    25    46   ar
    46    46    47   ar
    47    47    48   ar
    48    48    49   ar
    49    49    50   ar
    50    50    51   ar
    51    20    52   ar
    52    14     3   ar
    53    52    16   ar
    54    51    22   ar
    55    38    30   ar
    56    45    39   ar
    57    51    46   ar
    58     1    53    1
    59     1    54    1
    60     1    55    1
    61     4    56    1
    62     5    57    1
    63     9    58    1
    64    10    59    1
    65    10    60    1
    66    11    61    1
    67    11    62    1
    68    12    63    1
    69    13    64    1
    70    15    65    1
    71    18    66    1
    72    19    67    1
    73    23    68    1
    74    24    69    1
    75    26    70    1
    76    29    71    1
    77    31    72    1
    78    34    73    1
    79    34    74    1
    80    34    75    1
    81    35    76    1
    82    35    77    1
    83    35    78    1
    84    36    79    1
    85    36    80    1
    86    36    81    1
    87    40    82    1
    88    41    83    1
    89    43    84    1
    90    43    85    1
    91    43    86    1
    92    44    87    1
    93    45    88    1
    94    47    89    1
    95    48    90    1
    96    49    91    1
    97    50    92    1
