@<TRIPOS>MOLECULE
*****
 29 30 0 0 0
SMALL
GASTEIGER

@<TRIPOS>ATOM
      1 N          -5.5499   -0.6411   -0.0889 N.am    1  UNL1       -0.3227
      2 C          -4.3651   -0.0537    0.4281 C.2     1  UNL1        0.2805
      3 O          -4.3209    0.6346    1.4944 O.2     1  UNL1       -0.2670
      4 C          -3.0777   -0.2186   -0.2723 C.ar    1  UNL1        0.2361
      5 N          -1.9212    0.3123    0.1657 N.ar    1  UNL1       -0.1425
      6 N          -0.9476   -0.0238   -0.6961 N.ar    1  UNL1       -0.2201
      7 C          -1.4933   -0.7693   -1.6807 C.ar    1  UNL1        0.1181
      8 N          -2.8123   -0.8850   -1.4104 N.ar    1  UNL1       -0.2109
      9 C1*         0.3771    0.4306   -0.4359 C.3     1  UNL1        0.1816
     10 O4*         1.3639   -0.3232   -1.0509 O.3     1  UNL1       -0.3443
     11 C4*         2.5391    0.2262   -0.5335 C.3     1  UNL1        0.1126
     12 C5*         3.6682   -0.7785   -0.4823 C.3     1  UNL1        0.0730
     13 O5*         3.3300   -1.8643    0.3217 O.3     1  UNL1       -0.3924
     14 C3*         2.2377    0.6772    0.8619 C.3     1  UNL1        0.1136
     15 O3*         2.1892    2.0774    0.8790 O.3     1  UNL1       -0.3864
     16 C2*         0.8011    0.2118    1.0246 C.3     1  UNL1        0.1299
     17 O2*         0.0658    0.9650    1.9045 O.3     1  UNL1       -0.3846
     18 H          -6.4295   -0.2014    0.2662 H       1  UNL1        0.1453
     19 H          -5.4357   -1.4347   -0.7566 H       1  UNL1        0.1453
     20 H          -0.8912   -1.1535   -2.4907 H       1  UNL1        0.1045
     21 H1*         0.5217    1.4767   -0.7464 H       1  UNL1        0.0881
     22 H4*         2.8081    1.0657   -1.2024 H       1  UNL1        0.0647
     23 H5*1        4.5172   -0.2663    0.0144 H       1  UNL1        0.0584
     24 H5*2        4.0385   -1.0931   -1.4725 H       1  UNL1        0.0584
     25 H5*         2.4258   -2.2341    0.1247 H       1  UNL1        0.2095
     26 H3*         2.9046    0.2533    1.6256 H       1  UNL1        0.0647
     27 H3*         2.9612    2.4218    0.3899 H       1  UNL1        0.2100
     28 H2*         0.7453   -0.8809    1.2028 H       1  UNL1        0.0666
     29 H2*        -0.2503    0.3274    2.6162 H       1  UNL1        0.2101
@<TRIPOS>BOND
     1     1     2   am
     2     2     3    2
     3     2     4    1
     4     4     5   ar
     5     5     6   ar
     6     6     7   ar
     7     7     8   ar
     8     6     9    1
     9     9    10    1
    10    10    11    1
    11    11    12    1
    12    12    13    1
    13    11    14    1
    14    14    15    1
    15    14    16    1
    16    16    17    1
    17     8     4   ar
    18    16     9    1
    19     1    18    1
    20     1    19    1
    21     7    20    1
    22     9    21    1
    23    11    22    1
    24    12    23    1
    25    12    24    1
    26    13    25    1
    27    14    26    1
    28    15    27    1
    29    16    28    1
    30    17    29    1
