@<TRIPOS>MOLECULE
*****
 33 35 0 0 0
SMALL
GASTEIGER

@<TRIPOS>ATOM
      1 O          -1.3921   -1.2850    2.0254 O.2     1  UNL1       -0.2866
      2 C          -1.3140   -0.6837    0.9423 C.2     1  UNL1        0.1995
      3 C           0.0259   -0.4861    0.2945 C.2     1  UNL1        0.0376
      4 C           1.1135   -0.5210    1.0009 C.2     1  UNL1       -0.0445
      5 C           2.4288   -0.3288    0.4251 C.ar    1  UNL1       -0.0243
      6 C           3.4397   -1.2790    0.5981 C.ar    1  UNL1       -0.0511
      7 C           4.7141   -1.1134    0.1111 C.ar    1  UNL1       -0.0196
      8 C           5.0153    0.0503   -0.5858 C.ar    1  UNL1        0.1169
      9 O           6.2945    0.2718   -1.1037 O.3     1  UNL1       -0.5068
     10 C           4.0533    1.0149   -0.7815 C.ar    1  UNL1       -0.0196
     11 C           2.7954    0.7992   -0.2731 C.ar    1  UNL1       -0.0511
     12 C           0.0345   -0.2997   -1.1697 C.3     1  UNL1        0.1182
     13 O          -0.9820    0.6643   -1.5256 O.3     1  UNL1       -0.4863
     14 C          -2.2567    0.5099   -0.9644 C.ar    1  UNL1        0.1388
     15 C          -3.3229    1.0319   -1.6503 C.ar    1  UNL1        0.0225
     16 C          -4.6027    0.8955   -1.1205 C.ar    1  UNL1        0.1238
     17 O          -5.6581    1.4363   -1.8421 O.3     1  UNL1       -0.5065
     18 C          -4.7845    0.2373    0.0877 C.ar    1  UNL1        0.0223
     19 C          -3.7085   -0.2909    0.7824 C.ar    1  UNL1        0.1347
     20 O          -3.8975   -0.9472    1.9891 O.3     1  UNL1       -0.5058
     21 C          -2.4556   -0.1419    0.2364 C.ar    1  UNL1        0.1051
     22 H           1.0052   -0.7092    2.0968 H       1  UNL1        0.0628
     23 H           3.1687   -2.1901    1.1541 H       1  UNL1        0.0625
     24 H           5.4793   -1.8677    0.2598 H       1  UNL1        0.0654
     25 H           6.7031    1.1902   -1.1480 H       1  UNL1        0.2921
     26 H           4.3134    1.9303   -1.3371 H       1  UNL1        0.0654
     27 H           2.0586    1.5897   -0.4233 H       1  UNL1        0.0625
     28 H          -0.3191   -1.3109   -1.5774 H       1  UNL1        0.0749
     29 H           0.9868   -0.0675   -1.5783 H       1  UNL1        0.0749
     30 H          -3.1826    1.5495   -2.5998 H       1  UNL1        0.0691
     31 H          -6.2976    2.1048   -1.4317 H       1  UNL1        0.2921
     32 H          -5.7852    0.1400    0.4849 H       1  UNL1        0.0691
     33 H          -3.6707   -1.8939    2.1806 H       1  UNL1        0.2922
@<TRIPOS>BOND
     1     1     2    2
     2     2     3    1
     3     3     4    2
     4     4     5    1
     5     5     6   ar
     6     6     7   ar
     7     7     8   ar
     8     8     9    1
     9     8    10   ar
    10    10    11   ar
    11     3    12    1
    12    12    13    1
    13    13    14    1
    14    14    15   ar
    15    15    16   ar
    16    16    17    1
    17    16    18   ar
    18    18    19   ar
    19    19    20    1
    20    19    21   ar
    21    21     2    1
    22    11     5   ar
    23    21    14   ar
    24     4    22    1
    25     6    23    1
    26     7    24    1
    27     9    25    1
    28    10    26    1
    29    11    27    1
    30    12    28    1
    31    12    29    1
    32    15    30    1
    33    17    31    1
    34    18    32    1
    35    20    33    1
