
     RDKit          3D

 33 35  0  0  0  0  0  0  0  0999 V2000
   -1.3921   -1.2850    2.0254 O   0  0  0  0  0  0  0  0  0  0  0  0
   -1.3140   -0.6837    0.9423 C   0  0  0  0  0  0  0  0  0  0  0  0
    0.0259   -0.4861    0.2945 C   0  0  0  0  0  0  0  0  0  0  0  0
    1.1135   -0.5210    1.0009 C   0  0  0  0  0  0  0  0  0  0  0  0
    2.4288   -0.3288    0.4251 C   0  0  0  0  0  0  0  0  0  0  0  0
    3.4397   -1.2790    0.5981 C   0  0  0  0  0  0  0  0  0  0  0  0
    4.7141   -1.1134    0.1111 C   0  0  0  0  0  0  0  0  0  0  0  0
    5.0153    0.0503   -0.5858 C   0  0  0  0  0  0  0  0  0  0  0  0
    6.2945    0.2718   -1.1037 O   0  0  0  0  0  0  0  0  0  0  0  0
    4.0533    1.0149   -0.7815 C   0  0  0  0  0  0  0  0  0  0  0  0
    2.7954    0.7992   -0.2731 C   0  0  0  0  0  0  0  0  0  0  0  0
    0.0345   -0.2997   -1.1697 C   0  0  0  0  0  0  0  0  0  0  0  0
   -0.9820    0.6643   -1.5256 O   0  0  0  0  0  0  0  0  0  0  0  0
   -2.2567    0.5099   -0.9644 C   0  0  0  0  0  0  0  0  0  0  0  0
   -3.3229    1.0319   -1.6503 C   0  0  0  0  0  0  0  0  0  0  0  0
   -4.6027    0.8955   -1.1205 C   0  0  0  0  0  0  0  0  0  0  0  0
   -5.6581    1.4363   -1.8421 O   0  0  0  0  0  0  0  0  0  0  0  0
   -4.7845    0.2373    0.0877 C   0  0  0  0  0  0  0  0  0  0  0  0
   -3.7085   -0.2909    0.7824 C   0  0  0  0  0  0  0  0  0  0  0  0
   -3.8975   -0.9472    1.9891 O   0  0  0  0  0  0  0  0  0  0  0  0
   -2.4556   -0.1419    0.2364 C   0  0  0  0  0  0  0  0  0  0  0  0
    1.0052   -0.7092    2.0968 H   0  0  0  0  0  0  0  0  0  0  0  0
    3.1687   -2.1901    1.1541 H   0  0  0  0  0  0  0  0  0  0  0  0
    5.4793   -1.8677    0.2598 H   0  0  0  0  0  0  0  0  0  0  0  0
    6.7031    1.1902   -1.1480 H   0  0  0  0  0  0  0  0  0  0  0  0
    4.3134    1.9303   -1.3371 H   0  0  0  0  0  0  0  0  0  0  0  0
    2.0586    1.5897   -0.4233 H   0  0  0  0  0  0  0  0  0  0  0  0
   -0.3191   -1.3109   -1.5774 H   0  0  0  0  0  0  0  0  0  0  0  0
    0.9868   -0.0675   -1.5783 H   0  0  0  0  0  0  0  0  0  0  0  0
   -3.1826    1.5495   -2.5998 H   0  0  0  0  0  0  0  0  0  0  0  0
   -6.2976    2.1048   -1.4317 H   0  0  0  0  0  0  0  0  0  0  0  0
   -5.7852    0.1400    0.4849 H   0  0  0  0  0  0  0  0  0  0  0  0
   -3.6707   -1.8939    2.1806 H   0  0  0  0  0  0  0  0  0  0  0  0
  1  2  2  0
  2  3  1  0
  3  4  2  0
  4  5  1  0
  5  6  2  0
  6  7  1  0
  7  8  2  0
  8  9  1  0
  8 10  1  0
 10 11  2  0
  3 12  1  0
 12 13  1  0
 13 14  1  0
 14 15  2  0
 15 16  1  0
 16 17  1  0
 16 18  2  0
 18 19  1  0
 19 20  1  0
 19 21  2  0
 21  2  1  0
 11  5  1  0
 21 14  1  0
  4 22  1  0
  6 23  1  0
  7 24  1  0
  9 25  1  0
 10 26  1  0
 11 27  1  0
 12 28  1  0
 12 29  1  0
 15 30  1  0
 17 31  1  0
 18 32  1  0
 20 33  1  0
M  END
$$$$
