@<TRIPOS>MOLECULE
*****
 47 49 0 0 0
SMALL
GASTEIGER

@<TRIPOS>ATOM
      1 C          -3.8218   -0.4471    3.1785 C.3     1  UNL1        0.0038
      2 N          -2.5600   -0.7049    2.4822 N.am    1  UNL1       -0.2963
      3 C          -2.6205   -1.3096    1.1807 C.3     1  UNL1        0.0397
      4 C          -2.7538   -0.3293    0.0743 C.ar    1  UNL1       -0.0301
      5 C          -4.0038    0.1282   -0.3119 C.ar    1  UNL1       -0.0571
      6 C          -4.1565    1.0349   -1.3513 C.ar    1  UNL1       -0.0615
      7 C          -3.0593    1.5128   -2.0381 C.ar    1  UNL1       -0.0617
      8 C          -1.8196    1.0561   -1.6517 C.ar    1  UNL1       -0.0615
      9 C          -1.6542    0.1417   -0.6050 C.ar    1  UNL1       -0.0571
     10 C          -1.3680   -0.3484    3.1140 C.2     1  UNL1        0.2467
     11 O          -1.3507    0.1843    4.2528 O.2     1  UNL1       -0.2700
     12 C          -0.0843   -0.5759    2.4864 C.ar    1  UNL1        0.0370
     13 C           0.6806    0.5315    2.0923 C.ar    1  UNL1       -0.0478
     14 C           1.9073    0.3229    1.5042 C.ar    1  UNL1       -0.0344
     15 C           2.4373   -0.9297    1.2755 C.ar    1  UNL1        0.1085
     16 S           4.0077   -1.1169    0.5348 S.O2    1  UNL1        0.0723
     17 O           4.8670    0.0383    0.9858 O.2     1  UNL1       -0.1500
     18 O           4.6891   -2.3736    1.0135 O.2     1  UNL1       -0.1500
     19 N           3.8114   -1.1501   -1.1689 N.pl3   1  UNL1       -0.2163
     20 C           3.2630   -0.0213   -1.8386 C.ar    1  UNL1        0.0480
     21 C           2.3131   -0.2164   -2.8134 C.ar    1  UNL1       -0.0393
     22 C           1.7411    0.8477   -3.5121 C.ar    1  UNL1       -0.0600
     23 C           2.1184    2.1461   -3.2405 C.ar    1  UNL1       -0.0616
     24 C           3.0702    2.3453   -2.2642 C.ar    1  UNL1       -0.0600
     25 C           3.6289    1.2852   -1.5796 C.ar    1  UNL1       -0.0393
     26 C           1.6840   -2.0166    1.6632 C.ar    1  UNL1       -0.0344
     27 C           0.4530   -1.8286    2.2543 C.ar    1  UNL1       -0.0478
     28 H          -4.4438    0.2498    2.5749 H       1  UNL1        0.0429
     29 H          -4.3555   -1.3990    3.4070 H       1  UNL1        0.0429
     30 H          -3.6451    0.0688    4.1480 H       1  UNL1        0.0429
     31 H          -1.7471   -1.9868    0.9768 H       1  UNL1        0.0514
     32 H          -3.5334   -1.9818    1.1849 H       1  UNL1        0.0514
     33 H          -4.8719   -0.2590    0.2424 H       1  UNL1        0.0621
     34 H          -5.1644    1.3751   -1.6281 H       1  UNL1        0.0618
     35 H          -3.2016    2.2213   -2.8481 H       1  UNL1        0.0618
     36 H          -0.9415    1.4190   -2.1787 H       1  UNL1        0.0618
     37 H          -0.6727   -0.2081   -0.3222 H       1  UNL1        0.0621
     38 H           0.2708    1.5222    2.2688 H       1  UNL1        0.0626
     39 H           2.4888    1.2132    1.2044 H       1  UNL1        0.0637
     40 H           4.1023   -2.0109   -1.6866 H       1  UNL1        0.1737
     41 H           1.9503   -1.2056   -3.0987 H       1  UNL1        0.0636
     42 H           1.0012    0.6745   -4.2703 H       1  UNL1        0.0618
     43 H           1.6917    2.9968   -3.7686 H       1  UNL1        0.0618
     44 H           3.3671    3.3606   -2.0499 H       1  UNL1        0.0618
     45 H           4.3863    1.4429   -0.8036 H       1  UNL1        0.0636
     46 H           2.0568   -3.0172    1.5044 H       1  UNL1        0.0637
     47 H          -0.1579   -2.6827    2.5769 H       1  UNL1        0.0626
@<TRIPOS>BOND
     1     1     2    1
     2     2     3    1
     3     3     4    1
     4     4     5   ar
     5     5     6   ar
     6     6     7   ar
     7     7     8   ar
     8     8     9   ar
     9     2    10   am
    10    10    11    2
    11    10    12    1
    12    12    13   ar
    13    13    14   ar
    14    14    15   ar
    15    15    16    1
    16    16    17    2
    17    16    18    2
    18    16    19    1
    19    19    20    1
    20    20    21   ar
    21    21    22   ar
    22    22    23   ar
    23    23    24   ar
    24    24    25   ar
    25    15    26   ar
    26    26    27   ar
    27     9     4   ar
    28    27    12   ar
    29    25    20   ar
    30     1    28    1
    31     1    29    1
    32     1    30    1
    33     3    31    1
    34     3    32    1
    35     5    33    1
    36     6    34    1
    37     7    35    1
    38     8    36    1
    39     9    37    1
    40    13    38    1
    41    14    39    1
    42    19    40    1
    43    21    41    1
    44    22    42    1
    45    23    43    1
    46    24    44    1
    47    25    45    1
    48    26    46    1
    49    27    47    1
