
     RDKit          3D

 47 49  0  0  0  0  0  0  0  0999 V2000
   -3.8218   -0.4471    3.1785 C   0  0  0  0  0  0  0  0  0  0  0  0
   -2.5600   -0.7049    2.4822 N   0  0  0  0  0  0  0  0  0  0  0  0
   -2.6205   -1.3096    1.1807 C   0  0  0  0  0  0  0  0  0  0  0  0
   -2.7538   -0.3293    0.0743 C   0  0  0  0  0  0  0  0  0  0  0  0
   -4.0038    0.1282   -0.3119 C   0  0  0  0  0  0  0  0  0  0  0  0
   -4.1565    1.0349   -1.3513 C   0  0  0  0  0  0  0  0  0  0  0  0
   -3.0593    1.5128   -2.0381 C   0  0  0  0  0  0  0  0  0  0  0  0
   -1.8196    1.0561   -1.6517 C   0  0  0  0  0  0  0  0  0  0  0  0
   -1.6542    0.1417   -0.6050 C   0  0  0  0  0  0  0  0  0  0  0  0
   -1.3680   -0.3484    3.1140 C   0  0  0  0  0  0  0  0  0  0  0  0
   -1.3507    0.1843    4.2528 O   0  0  0  0  0  0  0  0  0  0  0  0
   -0.0843   -0.5759    2.4864 C   0  0  0  0  0  0  0  0  0  0  0  0
    0.6806    0.5315    2.0923 C   0  0  0  0  0  0  0  0  0  0  0  0
    1.9073    0.3229    1.5042 C   0  0  0  0  0  0  0  0  0  0  0  0
    2.4373   -0.9297    1.2755 C   0  0  0  0  0  0  0  0  0  0  0  0
    4.0077   -1.1169    0.5348 S   0  0  0  0  0  6  0  0  0  0  0  0
    4.8670    0.0383    0.9858 O   0  0  0  0  0  0  0  0  0  0  0  0
    4.6891   -2.3736    1.0135 O   0  0  0  0  0  0  0  0  0  0  0  0
    3.8114   -1.1501   -1.1689 N   0  0  0  0  0  0  0  0  0  0  0  0
    3.2630   -0.0213   -1.8386 C   0  0  0  0  0  0  0  0  0  0  0  0
    2.3131   -0.2164   -2.8134 C   0  0  0  0  0  0  0  0  0  0  0  0
    1.7411    0.8477   -3.5121 C   0  0  0  0  0  0  0  0  0  0  0  0
    2.1184    2.1461   -3.2405 C   0  0  0  0  0  0  0  0  0  0  0  0
    3.0702    2.3453   -2.2642 C   0  0  0  0  0  0  0  0  0  0  0  0
    3.6289    1.2852   -1.5796 C   0  0  0  0  0  0  0  0  0  0  0  0
    1.6840   -2.0166    1.6632 C   0  0  0  0  0  0  0  0  0  0  0  0
    0.4530   -1.8286    2.2543 C   0  0  0  0  0  0  0  0  0  0  0  0
   -4.4438    0.2498    2.5749 H   0  0  0  0  0  0  0  0  0  0  0  0
   -4.3555   -1.3990    3.4070 H   0  0  0  0  0  0  0  0  0  0  0  0
   -3.6451    0.0688    4.1480 H   0  0  0  0  0  0  0  0  0  0  0  0
   -1.7471   -1.9868    0.9768 H   0  0  0  0  0  0  0  0  0  0  0  0
   -3.5334   -1.9818    1.1849 H   0  0  0  0  0  0  0  0  0  0  0  0
   -4.8719   -0.2590    0.2424 H   0  0  0  0  0  0  0  0  0  0  0  0
   -5.1644    1.3751   -1.6281 H   0  0  0  0  0  0  0  0  0  0  0  0
   -3.2016    2.2213   -2.8481 H   0  0  0  0  0  0  0  0  0  0  0  0
   -0.9415    1.4190   -2.1787 H   0  0  0  0  0  0  0  0  0  0  0  0
   -0.6727   -0.2081   -0.3222 H   0  0  0  0  0  0  0  0  0  0  0  0
    0.2708    1.5222    2.2688 H   0  0  0  0  0  0  0  0  0  0  0  0
    2.4888    1.2132    1.2044 H   0  0  0  0  0  0  0  0  0  0  0  0
    4.1023   -2.0109   -1.6866 H   0  0  0  0  0  0  0  0  0  0  0  0
    1.9503   -1.2056   -3.0987 H   0  0  0  0  0  0  0  0  0  0  0  0
    1.0012    0.6745   -4.2703 H   0  0  0  0  0  0  0  0  0  0  0  0
    1.6917    2.9968   -3.7686 H   0  0  0  0  0  0  0  0  0  0  0  0
    3.3671    3.3606   -2.0499 H   0  0  0  0  0  0  0  0  0  0  0  0
    4.3863    1.4429   -0.8036 H   0  0  0  0  0  0  0  0  0  0  0  0
    2.0568   -3.0172    1.5044 H   0  0  0  0  0  0  0  0  0  0  0  0
   -0.1579   -2.6827    2.5769 H   0  0  0  0  0  0  0  0  0  0  0  0
  1  2  1  0
  2  3  1  0
  3  4  1  0
  4  5  2  0
  5  6  1  0
  6  7  2  0
  7  8  1  0
  8  9  2  0
  2 10  1  0
 10 11  2  0
 10 12  1  0
 12 13  2  0
 13 14  1  0
 14 15  2  0
 15 16  1  0
 16 17  2  0
 16 18  2  0
 16 19  1  0
 19 20  1  0
 20 21  2  0
 21 22  1  0
 22 23  2  0
 23 24  1  0
 24 25  2  0
 15 26  1  0
 26 27  2  0
  9  4  1  0
 27 12  1  0
 25 20  1  0
  1 28  1  0
  1 29  1  0
  1 30  1  0
  3 31  1  0
  3 32  1  0
  5 33  1  0
  6 34  1  0
  7 35  1  0
  8 36  1  0
  9 37  1  0
 13 38  1  0
 14 39  1  0
 19 40  1  0
 21 41  1  0
 22 42  1  0
 23 43  1  0
 24 44  1  0
 25 45  1  0
 26 46  1  0
 27 47  1  0
M  END
$$$$
