@<TRIPOS>MOLECULE
*****
 51 54 0 0 0
SMALL
GASTEIGER

@<TRIPOS>ATOM
      1 O           2.1662   -1.3714    1.3548 O.2     1  UNL1       -0.2449
      2 C           2.1264   -0.3026    0.6861 C.2     1  UNL1        0.3398
      3 O           0.8896    0.0118    0.1283 O.3     1  UNL1       -0.4534
      4 C          -0.2247   -0.7977    0.2974 C.3     1  UNL1        0.1483
      5 C          -0.6971   -1.4279   -1.0056 C.3     1  UNL1        0.0204
      6 C          -1.5359   -2.5732   -0.6004 C.ar    1  UNL1        0.0395
      7 C          -1.4864   -3.7362   -1.3091 C.ar    1  UNL1        0.1271
      8 O          -0.6774   -3.9274   -2.4224 O.3     1  UNL1       -0.5063
      9 C          -2.2804   -4.8235   -0.9260 C.ar    1  UNL1        0.0218
     10 C          -3.0997   -4.6869    0.1697 C.ar    1  UNL1        0.1238
     11 O          -3.8793   -5.7744    0.5349 O.3     1  UNL1       -0.5065
     12 C          -3.1204   -3.4921    0.8602 C.ar    1  UNL1        0.0221
     13 C          -2.3440   -2.4089    0.4968 C.ar    1  UNL1        0.1318
     14 O          -2.3658   -1.1889    1.2026 O.3     1  UNL1       -0.4800
     15 C          -1.3727   -0.1801    1.0001 C.3     1  UNL1        0.1624
     16 C          -2.0231    0.9453    0.3361 C.ar    1  UNL1        0.0034
     17 C          -3.2911    1.3066    0.7905 C.ar    1  UNL1       -0.0095
     18 C          -3.9789    2.3604    0.2269 C.ar    1  UNL1        0.1623
     19 O          -5.2464    2.7403    0.6635 O.3     1  UNL1       -0.5032
     20 C          -3.4272    3.0824   -0.8009 C.ar    1  UNL1        0.2006
     21 O          -4.1216    4.1394   -1.3634 O.3     1  UNL1       -0.5009
     22 C          -2.1764    2.7478   -1.2695 C.ar    1  UNL1        0.1623
     23 O          -1.5988    3.4698   -2.3136 O.3     1  UNL1       -0.5032
     24 C          -1.4985    1.6890   -0.6950 C.ar    1  UNL1       -0.0095
     25 C           3.3014    0.5321    0.5193 C.ar    1  UNL1        0.0661
     26 C           3.3015    1.7040   -0.2011 C.ar    1  UNL1       -0.0023
     27 C           4.4450    2.4634   -0.3308 C.ar    1  UNL1        0.1628
     28 O           4.3888    3.6293   -1.0641 O.3     1  UNL1       -0.5032
     29 C           5.6028    2.0375    0.2723 C.ar    1  UNL1        0.2006
     30 O           6.7830    2.7846    0.1609 O.3     1  UNL1       -0.5009
     31 C           5.6305    0.8694    0.9985 C.ar    1  UNL1        0.1628
     32 O           6.8290    0.4609    1.6029 O.3     1  UNL1       -0.5032
     33 C           4.4799    0.1361    1.1101 C.ar    1  UNL1       -0.0023
     34 H           0.0850   -1.6822    0.9323 H       1  UNL1        0.0778
     35 H           0.1631   -1.7334   -1.6391 H       1  UNL1        0.0353
     36 H          -1.3488   -0.7386   -1.5546 H       1  UNL1        0.0353
     37 H           0.3295   -3.9402   -2.2483 H       1  UNL1        0.2921
     38 H          -2.2225   -5.7283   -1.5016 H       1  UNL1        0.0691
     39 H          -3.4761   -6.5141    1.1059 H       1  UNL1        0.2921
     40 H          -3.7665   -3.4176    1.7059 H       1  UNL1        0.0691
     41 H          -1.0184    0.1786    2.0041 H       1  UNL1        0.0822
     42 H          -3.7802    0.7780    1.5964 H       1  UNL1        0.0659
     43 H          -5.3911    3.0401    1.6203 H       1  UNL1        0.2923
     44 H          -3.6514    4.9649   -1.7072 H       1  UNL1        0.2924
     45 H          -0.9920    4.2696   -2.1154 H       1  UNL1        0.2923
     46 H          -0.5264    1.4324   -1.0562 H       1  UNL1        0.0659
     47 H           2.3633    2.0215   -0.6728 H       1  UNL1        0.0663
     48 H           4.7547    3.6781   -2.0126 H       1  UNL1        0.2923
     49 H           7.3403    2.7473   -0.6873 H       1  UNL1        0.2924
     50 H           7.0801    1.0140    2.4366 H       1  UNL1        0.2923
     51 H           4.5592   -0.7894    1.7024 H       1  UNL1        0.0663
@<TRIPOS>BOND
     1     1     2    2
     2     2     3    1
     3     3     4    1
     4     4     5    1
     5     5     6    1
     6     6     7   ar
     7     7     8    1
     8     7     9   ar
     9     9    10   ar
    10    10    11    1
    11    10    12   ar
    12    12    13   ar
    13    13    14    1
    14    14    15    1
    15    15    16    1
    16    16    17   ar
    17    17    18   ar
    18    18    19    1
    19    18    20   ar
    20    20    21    1
    21    20    22   ar
    22    22    23    1
    23    22    24   ar
    24     2    25    1
    25    25    26   ar
    26    26    27   ar
    27    27    28    1
    28    27    29   ar
    29    29    30    1
    30    29    31   ar
    31    31    32    1
    32    31    33   ar
    33    15     4    1
    34    24    16   ar
    35    33    25   ar
    36    13     6   ar
    37     4    34    1
    38     5    35    1
    39     5    36    1
    40     8    37    1
    41     9    38    1
    42    11    39    1
    43    12    40    1
    44    15    41    1
    45    17    42    1
    46    19    43    1
    47    21    44    1
    48    23    45    1
    49    24    46    1
    50    26    47    1
    51    28    48    1
    52    30    49    1
    53    32    50    1
    54    33    51    1
