@<TRIPOS>MOLECULE
*****
 58 62 0 0 0
SMALL
GASTEIGER

@<TRIPOS>ATOM
      1 C           6.2981   -3.0878   -0.4934 C.3     1  UNL1       -0.0203
      2 C           5.1036   -2.2146   -0.7206 C.ar    1  UNL1        0.0648
      3 N           3.8371   -2.6159   -0.9204 N.ar    1  UNL1       -0.1700
      4 N           3.0205   -1.5726   -1.0889 N.ar    1  UNL1       -0.2211
      5 C           1.6120   -1.6326   -1.3214 C.ar    1  UNL1        0.1589
      6 C           1.1002   -2.4217   -2.3311 C.ar    1  UNL1        0.0008
      7 C          -0.2832   -2.4763   -2.5527 C.ar    1  UNL1        0.0347
      8 N          -1.1165   -1.7637   -1.7869 N.ar    1  UNL1       -0.2225
      9 C          -0.6282   -1.0008   -0.8115 C.ar    1  UNL1        0.2214
     10 N          -1.4701   -0.2260    0.0288 N.pl3   1  UNL1       -0.2836
     11 C          -2.8732   -0.2272    0.0056 C.ar    1  UNL1        0.0343
     12 C          -3.6460   -1.1956   -0.5742 C.ar    1  UNL1       -0.0385
     13 C          -5.0512   -1.1363   -0.5894 C.ar    1  UNL1       -0.0358
     14 C          -5.6989   -0.0813   -0.0092 C.ar    1  UNL1        0.0494
     15 C          -4.9372    0.9051    0.5813 C.ar    1  UNL1        0.0048
     16 C          -3.5640    0.8506    0.5979 C.ar    1  UNL1       -0.0310
     17 C          -5.8583    1.8279    1.0758 C.ar    1  UNL1       -0.0222
     18 C          -5.5238    3.0660    1.7943 C.3     1  UNL1       -0.0375
     19 C          -7.1148    1.3712    0.7704 C.ar    1  UNL1        0.0193
     20 C          -8.4371    1.9941    1.0795 C.3     1  UNL1       -0.0240
     21 N          -7.0026    0.1940    0.1018 N.ar    1  UNL1       -0.3468
     22 C          -8.1148   -0.6170   -0.4000 C.3     1  UNL1        0.0121
     23 N           0.7312   -0.9424   -0.5879 N.ar    1  UNL1       -0.1951
     24 C           3.7996   -0.4808   -0.9919 C.ar    1  UNL1        0.0376
     25 C           5.1087   -0.8362   -0.7618 C.ar    1  UNL1        0.0074
     26 C           6.3086    0.0504   -0.5871 C.3     1  UNL1        0.0274
     27 N           6.6864    0.1275    0.7966 N.3     1  UNL1       -0.2931
     28 C           7.8484    0.9840    0.9494 C.3     1  UNL1        0.0266
     29 C           6.9061    2.1433    1.1863 C.3     1  UNL1        0.0806
     30 O           7.3382    2.9912    2.2036 O.3     1  UNL1       -0.3893
     31 C           5.9393    1.0814    1.6003 C.3     1  UNL1        0.0266
     32 H           6.9330   -2.6573    0.2890 H       1  UNL1        0.0293
     33 H           5.9312   -4.0736   -0.1062 H       1  UNL1        0.0293
     34 H           6.8009   -3.2203   -1.4681 H       1  UNL1        0.0293
     35 H           1.7217   -3.0129   -2.9741 H       1  UNL1        0.0670
     36 H          -0.7037   -3.0902   -3.3415 H       1  UNL1        0.0832
     37 H          -1.0298    0.4227    0.7553 H       1  UNL1        0.1550
     38 H          -3.1740   -2.0505   -1.0299 H       1  UNL1        0.0637
     39 H          -5.5901   -1.9327   -1.0633 H       1  UNL1        0.0639
     40 H          -2.9862    1.6423    1.0704 H       1  UNL1        0.0643
     41 H          -4.5381    3.4458    1.3974 H       1  UNL1        0.0278
     42 H          -6.2966    3.8453    1.6586 H       1  UNL1        0.0278
     43 H          -5.3641    2.8560    2.8711 H       1  UNL1        0.0278
     44 H          -9.0163    2.1457    0.1422 H       1  UNL1        0.0292
     45 H          -9.0174    1.2212    1.6552 H       1  UNL1        0.0292
     46 H          -8.3182    2.9325    1.6341 H       1  UNL1        0.0292
     47 H          -8.0614   -0.7288   -1.4881 H       1  UNL1        0.0456
     48 H          -7.9528   -1.6405    0.0282 H       1  UNL1        0.0456
     49 H          -9.0694   -0.2365   -0.0246 H       1  UNL1        0.0456
     50 H           3.4340    0.5418   -1.0839 H       1  UNL1        0.0834
     51 H           6.0730    1.0098   -1.0496 H       1  UNL1        0.0477
     52 H           7.1339   -0.4067   -1.1690 H       1  UNL1        0.0477
     53 H           8.4448    0.7998    1.8708 H       1  UNL1        0.0452
     54 H           8.4472    1.0629    0.0195 H       1  UNL1        0.0452
     55 H           6.6351    2.7299    0.2918 H       1  UNL1        0.0619
     56 H           8.2814    3.2486    1.9605 H       1  UNL1        0.2099
     57 H           4.8894    1.2237    1.2887 H       1  UNL1        0.0452
     58 H           6.0742    0.8644    2.6915 H       1  UNL1        0.0452
@<TRIPOS>BOND
     1     1     2    1
     2     2     3   ar
     3     3     4   ar
     4     4     5    1
     5     5     6   ar
     6     6     7   ar
     7     7     8   ar
     8     8     9   ar
     9     9    10    1
    10    10    11    1
    11    11    12   ar
    12    12    13   ar
    13    13    14   ar
    14    14    15   ar
    15    15    16   ar
    16    15    17   ar
    17    17    18    1
    18    17    19   ar
    19    19    20    1
    20    19    21   ar
    21    21    22    1
    22     9    23   ar
    23     4    24   ar
    24    24    25   ar
    25    25    26    1
    26    26    27    1
    27    27    28    1
    28    28    29    1
    29    29    30    1
    30    29    31    1
    31    25     2   ar
    32    31    27    1
    33    23     5   ar
    34    16    11   ar
    35    21    14   ar
    36     1    32    1
    37     1    33    1
    38     1    34    1
    39     6    35    1
    40     7    36    1
    41    10    37    1
    42    12    38    1
    43    13    39    1
    44    16    40    1
    45    18    41    1
    46    18    42    1
    47    18    43    1
    48    20    44    1
    49    20    45    1
    50    20    46    1
    51    22    47    1
    52    22    48    1
    53    22    49    1
    54    24    50    1
    55    26    51    1
    56    26    52    1
    57    28    53    1
    58    28    54    1
    59    29    55    1
    60    30    56    1
    61    31    57    1
    62    31    58    1
