
     RDKit          3D

 58 62  0  0  0  0  0  0  0  0999 V2000
    6.2981   -3.0878   -0.4934 C   0  0  0  0  0  0  0  0  0  0  0  0
    5.1036   -2.2146   -0.7206 C   0  0  0  0  0  0  0  0  0  0  0  0
    3.8371   -2.6159   -0.9204 N   0  0  0  0  0  0  0  0  0  0  0  0
    3.0205   -1.5726   -1.0889 N   0  0  0  0  0  0  0  0  0  0  0  0
    1.6120   -1.6326   -1.3214 C   0  0  0  0  0  0  0  0  0  0  0  0
    1.1002   -2.4217   -2.3311 C   0  0  0  0  0  0  0  0  0  0  0  0
   -0.2832   -2.4763   -2.5527 C   0  0  0  0  0  0  0  0  0  0  0  0
   -1.1165   -1.7637   -1.7869 N   0  0  0  0  0  0  0  0  0  0  0  0
   -0.6282   -1.0008   -0.8115 C   0  0  0  0  0  0  0  0  0  0  0  0
   -1.4701   -0.2260    0.0288 N   0  0  0  0  0  0  0  0  0  0  0  0
   -2.8732   -0.2272    0.0056 C   0  0  0  0  0  0  0  0  0  0  0  0
   -3.6460   -1.1956   -0.5742 C   0  0  0  0  0  0  0  0  0  0  0  0
   -5.0512   -1.1363   -0.5894 C   0  0  0  0  0  0  0  0  0  0  0  0
   -5.6989   -0.0813   -0.0092 C   0  0  0  0  0  0  0  0  0  0  0  0
   -4.9372    0.9051    0.5813 C   0  0  0  0  0  0  0  0  0  0  0  0
   -3.5640    0.8506    0.5979 C   0  0  0  0  0  0  0  0  0  0  0  0
   -5.8583    1.8279    1.0758 C   0  0  0  0  0  0  0  0  0  0  0  0
   -5.5238    3.0660    1.7943 C   0  0  0  0  0  0  0  0  0  0  0  0
   -7.1148    1.3712    0.7704 C   0  0  0  0  0  0  0  0  0  0  0  0
   -8.4371    1.9941    1.0795 C   0  0  0  0  0  0  0  0  0  0  0  0
   -7.0026    0.1940    0.1018 N   0  0  0  0  0  0  0  0  0  0  0  0
   -8.1148   -0.6170   -0.4000 C   0  0  0  0  0  0  0  0  0  0  0  0
    0.7312   -0.9424   -0.5879 N   0  0  0  0  0  0  0  0  0  0  0  0
    3.7996   -0.4808   -0.9919 C   0  0  0  0  0  0  0  0  0  0  0  0
    5.1087   -0.8362   -0.7618 C   0  0  0  0  0  0  0  0  0  0  0  0
    6.3086    0.0504   -0.5871 C   0  0  0  0  0  0  0  0  0  0  0  0
    6.6864    0.1275    0.7966 N   0  0  0  0  0  0  0  0  0  0  0  0
    7.8484    0.9840    0.9494 C   0  0  0  0  0  0  0  0  0  0  0  0
    6.9061    2.1433    1.1863 C   0  0  0  0  0  0  0  0  0  0  0  0
    7.3382    2.9912    2.2036 O   0  0  0  0  0  0  0  0  0  0  0  0
    5.9393    1.0814    1.6003 C   0  0  0  0  0  0  0  0  0  0  0  0
    6.9330   -2.6573    0.2890 H   0  0  0  0  0  0  0  0  0  0  0  0
    5.9312   -4.0736   -0.1062 H   0  0  0  0  0  0  0  0  0  0  0  0
    6.8009   -3.2203   -1.4681 H   0  0  0  0  0  0  0  0  0  0  0  0
    1.7217   -3.0129   -2.9741 H   0  0  0  0  0  0  0  0  0  0  0  0
   -0.7037   -3.0902   -3.3415 H   0  0  0  0  0  0  0  0  0  0  0  0
   -1.0298    0.4227    0.7553 H   0  0  0  0  0  0  0  0  0  0  0  0
   -3.1740   -2.0505   -1.0299 H   0  0  0  0  0  0  0  0  0  0  0  0
   -5.5901   -1.9327   -1.0633 H   0  0  0  0  0  0  0  0  0  0  0  0
   -2.9862    1.6423    1.0704 H   0  0  0  0  0  0  0  0  0  0  0  0
   -4.5381    3.4458    1.3974 H   0  0  0  0  0  0  0  0  0  0  0  0
   -6.2966    3.8453    1.6586 H   0  0  0  0  0  0  0  0  0  0  0  0
   -5.3641    2.8560    2.8711 H   0  0  0  0  0  0  0  0  0  0  0  0
   -9.0163    2.1457    0.1422 H   0  0  0  0  0  0  0  0  0  0  0  0
   -9.0174    1.2212    1.6552 H   0  0  0  0  0  0  0  0  0  0  0  0
   -8.3182    2.9325    1.6341 H   0  0  0  0  0  0  0  0  0  0  0  0
   -8.0614   -0.7288   -1.4881 H   0  0  0  0  0  0  0  0  0  0  0  0
   -7.9528   -1.6405    0.0282 H   0  0  0  0  0  0  0  0  0  0  0  0
   -9.0694   -0.2365   -0.0246 H   0  0  0  0  0  0  0  0  0  0  0  0
    3.4340    0.5418   -1.0839 H   0  0  0  0  0  0  0  0  0  0  0  0
    6.0730    1.0098   -1.0496 H   0  0  0  0  0  0  0  0  0  0  0  0
    7.1339   -0.4067   -1.1690 H   0  0  0  0  0  0  0  0  0  0  0  0
    8.4448    0.7998    1.8708 H   0  0  0  0  0  0  0  0  0  0  0  0
    8.4472    1.0629    0.0195 H   0  0  0  0  0  0  0  0  0  0  0  0
    6.6351    2.7299    0.2918 H   0  0  0  0  0  0  0  0  0  0  0  0
    8.2814    3.2486    1.9605 H   0  0  0  0  0  0  0  0  0  0  0  0
    4.8894    1.2237    1.2887 H   0  0  0  0  0  0  0  0  0  0  0  0
    6.0742    0.8644    2.6915 H   0  0  0  0  0  0  0  0  0  0  0  0
  1  2  1  0
  2  3  2  0
  3  4  1  0
  4  5  1  0
  5  6  2  0
  6  7  1  0
  7  8  2  0
  8  9  1  0
  9 10  1  0
 10 11  1  0
 11 12  2  0
 12 13  1  0
 13 14  2  0
 14 15  1  0
 15 16  2  0
 15 17  1  0
 17 18  1  0
 17 19  2  0
 19 20  1  0
 19 21  1  0
 21 22  1  0
  9 23  2  0
  4 24  1  0
 24 25  2  0
 25 26  1  0
 26 27  1  0
 27 28  1  0
 28 29  1  0
 29 30  1  0
 29 31  1  0
 25  2  1  0
 31 27  1  0
 23  5  1  0
 16 11  1  0
 21 14  1  0
  1 32  1  0
  1 33  1  0
  1 34  1  0
  6 35  1  0
  7 36  1  0
 10 37  1  0
 12 38  1  0
 13 39  1  0
 16 40  1  0
 18 41  1  0
 18 42  1  0
 18 43  1  0
 20 44  1  0
 20 45  1  0
 20 46  1  0
 22 47  1  0
 22 48  1  0
 22 49  1  0
 24 50  1  0
 26 51  1  0
 26 52  1  0
 28 53  1  0
 28 54  1  0
 29 55  1  0
 30 56  1  0
 31 57  1  0
 31 58  1  0
M  END
$$$$
