@<TRIPOS>MOLECULE
*****
 62 64 0 0 0
SMALL
GASTEIGER

@<TRIPOS>ATOM
      1 C          -9.6504    1.0457   -0.0716 C.3     1  UNL1       -0.0306
      2 C          -8.9630    2.0679   -0.9598 C.3     1  UNL1        0.0900
      3 O          -7.5775    1.7842   -1.0841 O.3     1  UNL1       -0.4614
      4 C          -6.7103    1.7384   -0.0162 C.2     1  UNL1        0.3410
      5 O          -7.1746    1.9616    1.1290 O.2     1  UNL1       -0.2449
      6 C          -5.2954    1.4364   -0.2412 C.ar    1  UNL1        0.0813
      7 C          -4.7952    1.1898   -1.5065 C.ar    1  UNL1       -0.0253
      8 C          -3.4565    0.9049   -1.6848 C.ar    1  UNL1        0.0924
      9 C          -2.9537    0.6519   -3.0050 C.1     1  UNL1        0.1026
     10 N          -2.5724    0.4600   -4.0564 N.1     1  UNL1       -0.1908
     11 C          -2.5685    0.8529   -0.6313 C.ar    1  UNL1        0.1391
     12 N          -1.1842    0.5565   -0.8083 N.pl3   1  UNL1       -0.3141
     13 C          -0.2674    1.3112   -1.5994 C.3     1  UNL1        0.0142
     14 C           0.8902    1.7328   -0.7334 C.3     1  UNL1       -0.0260
     15 C           1.5315    0.6047    0.0015 C.3     1  UNL1        0.0399
     16 C           2.4068   -0.1681   -0.9389 C.2     1  UNL1        0.2349
     17 O           2.5468    0.1487   -2.1486 O.2     1  UNL1       -0.2739
     18 N           3.1270   -1.3150   -0.4828 N.am    1  UNL1       -0.1894
     19 S           4.1519   -2.2469   -1.5079 S.O2    1  UNL1        0.0493
     20 O           4.1769   -3.6637   -1.0137 O.2     1  UNL1       -0.1548
     21 O           3.6814   -2.2091   -2.9321 O.2     1  UNL1       -0.1548
     22 C           5.8065   -1.5509   -1.4114 C.3     1  UNL1        0.1098
     23 C           6.2437   -1.6316    0.0120 C.ar    1  UNL1       -0.0247
     24 C           6.0124   -0.6342    0.9300 C.ar    1  UNL1       -0.0567
     25 C           6.4329   -0.7448    2.2374 C.ar    1  UNL1       -0.0585
     26 C           7.1050   -1.8587    2.6887 C.ar    1  UNL1       -0.0504
     27 C           7.5549   -1.9665    4.1108 C.3     1  UNL1       -0.0397
     28 C           7.3475   -2.8740    1.7791 C.ar    1  UNL1       -0.0585
     29 C           6.9240   -2.7576    0.4719 C.ar    1  UNL1       -0.0567
     30 C           0.5443   -0.2525    0.7154 C.3     1  UNL1       -0.0260
     31 C          -0.6620   -0.6296   -0.1109 C.3     1  UNL1        0.0142
     32 N          -3.0823    1.0989    0.6021 N.ar    1  UNL1       -0.2351
     33 C          -4.3837    1.3779    0.7926 C.ar    1  UNL1        0.0544
     34 C          -4.8867    1.6384    2.1650 C.3     1  UNL1       -0.0215
     35 H          -9.3002    0.0269   -0.3960 H       1  UNL1        0.0262
     36 H         -10.7244    1.0902   -0.3072 H       1  UNL1        0.0262
     37 H          -9.4147    1.1794    0.9932 H       1  UNL1        0.0262
     38 H          -9.3943    1.9039   -1.9895 H       1  UNL1        0.0695
     39 H          -9.1768    3.0744   -0.5924 H       1  UNL1        0.0695
     40 H          -5.5133    1.2374   -2.3149 H       1  UNL1        0.0640
     41 H           0.1075    0.7801   -2.4950 H       1  UNL1        0.0464
     42 H          -0.7636    2.2570   -1.9504 H       1  UNL1        0.0464
     43 H           1.6962    2.2268   -1.3467 H       1  UNL1        0.0288
     44 H           0.4791    2.4888   -0.0044 H       1  UNL1        0.0288
     45 H           2.2095    1.0415    0.7670 H       1  UNL1        0.0396
     46 H           3.0385   -1.6129    0.5126 H       1  UNL1        0.1761
     47 H           5.8273   -0.5258   -1.7733 H       1  UNL1        0.0568
     48 H           6.4739   -2.1565   -2.0695 H       1  UNL1        0.0568
     49 H           5.4779    0.2652    0.5944 H       1  UNL1        0.0621
     50 H           6.2483    0.0430    2.9555 H       1  UNL1        0.0620
     51 H           7.7000   -3.0116    4.3953 H       1  UNL1        0.0278
     52 H           8.4996   -1.4078    4.2304 H       1  UNL1        0.0278
     53 H           6.8081   -1.4399    4.7736 H       1  UNL1        0.0278
     54 H           7.8803   -3.7587    2.1335 H       1  UNL1        0.0620
     55 H           7.1196   -3.5600   -0.2301 H       1  UNL1        0.0621
     56 H           0.9964   -1.1862    1.0782 H       1  UNL1        0.0288
     57 H           0.1776    0.3014    1.6033 H       1  UNL1        0.0288
     58 H          -1.4160   -1.0448    0.5870 H       1  UNL1        0.0464
     59 H          -0.4311   -1.4353   -0.8429 H       1  UNL1        0.0464
     60 H          -5.2589    2.6825    2.2502 H       1  UNL1        0.0293
     61 H          -4.0233    1.5919    2.8838 H       1  UNL1        0.0293
     62 H          -5.6234    0.8892    2.5103 H       1  UNL1        0.0293
@<TRIPOS>BOND
     1     1     2    1
     2     2     3    1
     3     3     4    1
     4     4     5    2
     5     4     6    1
     6     6     7   ar
     7     7     8   ar
     8     8     9    1
     9     9    10    3
    10     8    11   ar
    11    11    12    1
    12    12    13    1
    13    13    14    1
    14    14    15    1
    15    15    16    1
    16    16    17    2
    17    16    18   am
    18    18    19    1
    19    19    20    2
    20    19    21    2
    21    19    22    1
    22    22    23    1
    23    23    24   ar
    24    24    25   ar
    25    25    26   ar
    26    26    27    1
    27    26    28   ar
    28    28    29   ar
    29    15    30    1
    30    30    31    1
    31    11    32   ar
    32    32    33   ar
    33    33    34    1
    34    33     6   ar
    35    31    12    1
    36    29    23   ar
    37     1    35    1
    38     1    36    1
    39     1    37    1
    40     2    38    1
    41     2    39    1
    42     7    40    1
    43    13    41    1
    44    13    42    1
    45    14    43    1
    46    14    44    1
    47    15    45    1
    48    18    46    1
    49    22    47    1
    50    22    48    1
    51    24    49    1
    52    25    50    1
    53    27    51    1
    54    27    52    1
    55    27    53    1
    56    28    54    1
    57    29    55    1
    58    30    56    1
    59    30    57    1
    60    31    58    1
    61    31    59    1
    62    34    60    1
    63    34    61    1
    64    34    62    1
