
     RDKit          3D

 62 64  0  0  0  0  0  0  0  0999 V2000
   -9.6504    1.0457   -0.0716 C   0  0  0  0  0  0  0  0  0  0  0  0
   -8.9630    2.0679   -0.9598 C   0  0  0  0  0  0  0  0  0  0  0  0
   -7.5775    1.7842   -1.0841 O   0  0  0  0  0  0  0  0  0  0  0  0
   -6.7103    1.7384   -0.0162 C   0  0  0  0  0  0  0  0  0  0  0  0
   -7.1746    1.9616    1.1290 O   0  0  0  0  0  0  0  0  0  0  0  0
   -5.2954    1.4364   -0.2412 C   0  0  0  0  0  0  0  0  0  0  0  0
   -4.7952    1.1898   -1.5065 C   0  0  0  0  0  0  0  0  0  0  0  0
   -3.4565    0.9049   -1.6848 C   0  0  0  0  0  0  0  0  0  0  0  0
   -2.9537    0.6519   -3.0050 C   0  0  0  0  0  0  0  0  0  0  0  0
   -2.5724    0.4600   -4.0564 N   0  0  0  0  0  0  0  0  0  0  0  0
   -2.5685    0.8529   -0.6313 C   0  0  0  0  0  0  0  0  0  0  0  0
   -1.1842    0.5565   -0.8083 N   0  0  0  0  0  0  0  0  0  0  0  0
   -0.2674    1.3112   -1.5994 C   0  0  0  0  0  0  0  0  0  0  0  0
    0.8902    1.7328   -0.7334 C   0  0  0  0  0  0  0  0  0  0  0  0
    1.5315    0.6047    0.0015 C   0  0  0  0  0  0  0  0  0  0  0  0
    2.4068   -0.1681   -0.9389 C   0  0  0  0  0  0  0  0  0  0  0  0
    2.5468    0.1487   -2.1486 O   0  0  0  0  0  0  0  0  0  0  0  0
    3.1270   -1.3150   -0.4828 N   0  0  0  0  0  0  0  0  0  0  0  0
    4.1519   -2.2469   -1.5079 S   0  0  0  0  0  6  0  0  0  0  0  0
    4.1769   -3.6637   -1.0137 O   0  0  0  0  0  0  0  0  0  0  0  0
    3.6814   -2.2091   -2.9321 O   0  0  0  0  0  0  0  0  0  0  0  0
    5.8065   -1.5509   -1.4114 C   0  0  0  0  0  0  0  0  0  0  0  0
    6.2437   -1.6316    0.0120 C   0  0  0  0  0  0  0  0  0  0  0  0
    6.0124   -0.6342    0.9300 C   0  0  0  0  0  0  0  0  0  0  0  0
    6.4329   -0.7448    2.2374 C   0  0  0  0  0  0  0  0  0  0  0  0
    7.1050   -1.8587    2.6887 C   0  0  0  0  0  0  0  0  0  0  0  0
    7.5549   -1.9665    4.1108 C   0  0  0  0  0  0  0  0  0  0  0  0
    7.3475   -2.8740    1.7791 C   0  0  0  0  0  0  0  0  0  0  0  0
    6.9240   -2.7576    0.4719 C   0  0  0  0  0  0  0  0  0  0  0  0
    0.5443   -0.2525    0.7154 C   0  0  0  0  0  0  0  0  0  0  0  0
   -0.6620   -0.6296   -0.1109 C   0  0  0  0  0  0  0  0  0  0  0  0
   -3.0823    1.0989    0.6021 N   0  0  0  0  0  0  0  0  0  0  0  0
   -4.3837    1.3779    0.7926 C   0  0  0  0  0  0  0  0  0  0  0  0
   -4.8867    1.6384    2.1650 C   0  0  0  0  0  0  0  0  0  0  0  0
   -9.3002    0.0269   -0.3960 H   0  0  0  0  0  0  0  0  0  0  0  0
  -10.7244    1.0902   -0.3072 H   0  0  0  0  0  0  0  0  0  0  0  0
   -9.4147    1.1794    0.9932 H   0  0  0  0  0  0  0  0  0  0  0  0
   -9.3943    1.9039   -1.9895 H   0  0  0  0  0  0  0  0  0  0  0  0
   -9.1768    3.0744   -0.5924 H   0  0  0  0  0  0  0  0  0  0  0  0
   -5.5133    1.2374   -2.3149 H   0  0  0  0  0  0  0  0  0  0  0  0
    0.1075    0.7801   -2.4950 H   0  0  0  0  0  0  0  0  0  0  0  0
   -0.7636    2.2570   -1.9504 H   0  0  0  0  0  0  0  0  0  0  0  0
    1.6962    2.2268   -1.3467 H   0  0  0  0  0  0  0  0  0  0  0  0
    0.4791    2.4888   -0.0044 H   0  0  0  0  0  0  0  0  0  0  0  0
    2.2095    1.0415    0.7670 H   0  0  0  0  0  0  0  0  0  0  0  0
    3.0385   -1.6129    0.5126 H   0  0  0  0  0  0  0  0  0  0  0  0
    5.8273   -0.5258   -1.7733 H   0  0  0  0  0  0  0  0  0  0  0  0
    6.4739   -2.1565   -2.0695 H   0  0  0  0  0  0  0  0  0  0  0  0
    5.4779    0.2652    0.5944 H   0  0  0  0  0  0  0  0  0  0  0  0
    6.2483    0.0430    2.9555 H   0  0  0  0  0  0  0  0  0  0  0  0
    7.7000   -3.0116    4.3953 H   0  0  0  0  0  0  0  0  0  0  0  0
    8.4996   -1.4078    4.2304 H   0  0  0  0  0  0  0  0  0  0  0  0
    6.8081   -1.4399    4.7736 H   0  0  0  0  0  0  0  0  0  0  0  0
    7.8803   -3.7587    2.1335 H   0  0  0  0  0  0  0  0  0  0  0  0
    7.1196   -3.5600   -0.2301 H   0  0  0  0  0  0  0  0  0  0  0  0
    0.9964   -1.1862    1.0782 H   0  0  0  0  0  0  0  0  0  0  0  0
    0.1776    0.3014    1.6033 H   0  0  0  0  0  0  0  0  0  0  0  0
   -1.4160   -1.0448    0.5870 H   0  0  0  0  0  0  0  0  0  0  0  0
   -0.4311   -1.4353   -0.8429 H   0  0  0  0  0  0  0  0  0  0  0  0
   -5.2589    2.6825    2.2502 H   0  0  0  0  0  0  0  0  0  0  0  0
   -4.0233    1.5919    2.8838 H   0  0  0  0  0  0  0  0  0  0  0  0
   -5.6234    0.8892    2.5103 H   0  0  0  0  0  0  0  0  0  0  0  0
  1  2  1  0
  2  3  1  0
  3  4  1  0
  4  5  2  0
  4  6  1  0
  6  7  2  0
  7  8  1  0
  8  9  1  0
  9 10  3  0
  8 11  2  0
 11 12  1  0
 12 13  1  0
 13 14  1  0
 14 15  1  0
 15 16  1  0
 16 17  2  0
 16 18  1  0
 18 19  1  0
 19 20  2  0
 19 21  2  0
 19 22  1  0
 22 23  1  0
 23 24  2  0
 24 25  1  0
 25 26  2  0
 26 27  1  0
 26 28  1  0
 28 29  2  0
 15 30  1  0
 30 31  1  0
 11 32  1  0
 32 33  2  0
 33 34  1  0
 33  6  1  0
 31 12  1  0
 29 23  1  0
  1 35  1  0
  1 36  1  0
  1 37  1  0
  2 38  1  0
  2 39  1  0
  7 40  1  0
 13 41  1  0
 13 42  1  0
 14 43  1  0
 14 44  1  0
 15 45  1  0
 18 46  1  0
 22 47  1  0
 22 48  1  0
 24 49  1  0
 25 50  1  0
 27 51  1  0
 27 52  1  0
 27 53  1  0
 28 54  1  0
 29 55  1  0
 30 56  1  0
 30 57  1  0
 31 58  1  0
 31 59  1  0
 34 60  1  0
 34 61  1  0
 34 62  1  0
M  END
$$$$
