@<TRIPOS>MOLECULE
*****
 21 22 0 0 0
SMALL
GASTEIGER

@<TRIPOS>ATOM
      1 C          -3.1033   -0.0777   -0.2265 C.3     1  UNL1        0.0135
      2 N          -1.7240   -0.5810   -0.1656 N.ar    1  UNL1       -0.3277
      3 C          -1.3031   -1.8550   -0.2199 C.ar    1  UNL1        0.0986
      4 N           0.0552   -1.8882   -0.1298 N.ar    1  UNL1       -0.2177
      5 C           0.5203   -0.6384   -0.0169 C.ar    1  UNL1        0.1678
      6 C          -0.6147    0.1674   -0.0416 C.ar    1  UNL1        0.1510
      7 C          -0.4665    1.5446    0.0580 C.ar    1  UNL1        0.2798
      8 O          -1.4264    2.3474    0.0450 O.2     1  UNL1       -0.2654
      9 N           0.7698    2.1108    0.1788 N.ar    1  UNL1       -0.2731
     10 C           1.8398    1.3069    0.1992 C.ar    1  UNL1        0.3307
     11 O           3.0244    1.7338    0.3074 O.2     1  UNL1       -0.2464
     12 N           1.7183   -0.0347    0.1037 N.ar    1  UNL1       -0.2797
     13 C           2.8293   -0.9704    0.1183 C.3     1  UNL1        0.0181
     14 H          -3.4800    0.0147   -1.2462 H       1  UNL1        0.0456
     15 H          -3.7680   -0.8059    0.3266 H       1  UNL1        0.0456
     16 H          -3.2035    0.8645    0.3829 H       1  UNL1        0.0456
     17 H          -1.9566   -2.7200   -0.3205 H       1  UNL1        0.1029
     18 H           0.9498    3.1334    0.2575 H       1  UNL1        0.1735
     19 H           3.7023   -0.4784    0.6092 H       1  UNL1        0.0458
     20 H           2.5934   -1.8863    0.7000 H       1  UNL1        0.0458
     21 H           3.0436   -1.2875   -0.9196 H       1  UNL1        0.0458
@<TRIPOS>BOND
     1     1     2    1
     2     2     3   ar
     3     3     4   ar
     4     4     5   ar
     5     5     6   ar
     6     6     7   ar
     7     7     8    2
     8     7     9   ar
     9     9    10   ar
    10    10    11    2
    11    10    12   ar
    12    12    13    1
    13     6     2   ar
    14    12     5   ar
    15     1    14    1
    16     1    15    1
    17     1    16    1
    18     3    17    1
    19     9    18    1
    20    13    19    1
    21    13    20    1
    22    13    21    1
