
     RDKit          3D

 55 58  0  0  0  0  0  0  0  0999 V2000
   -5.4862   -2.3342   -0.3607 C   0  0  0  0  0  0  0  0  0  0  0  0
   -4.0298   -2.6206   -0.1889 C   0  0  0  0  0  0  0  0  0  0  0  0
   -3.7270   -3.3171    1.1318 C   0  0  0  0  0  0  0  0  0  0  0  0
   -3.5805   -3.5927   -1.2879 C   0  0  0  0  0  0  0  0  0  0  0  0
   -3.2047   -1.4020   -0.2352 C   0  0  0  0  0  0  0  0  0  0  0  0
   -1.8087   -1.4281   -0.0965 C   0  0  0  0  0  0  0  0  0  0  0  0
   -1.3254   -0.1735   -0.1801 C   0  0  0  0  0  0  0  0  0  0  0  0
   -0.0034    0.3191   -0.1022 N   0  0  0  0  0  0  0  0  0  0  0  0
    1.1615   -0.5145    0.1014 C   0  0  0  0  0  0  0  0  0  0  0  0
    0.9182   -1.7172    0.2064 O   0  0  0  0  0  0  0  0  0  0  0  0
    2.4573    0.0419    0.1687 N   0  0  0  0  0  0  0  0  0  0  0  0
    3.6288   -0.7164    0.3563 C   0  0  0  0  0  0  0  0  0  0  0  0
    3.6021   -2.0889    0.3838 C   0  0  0  0  0  0  0  0  0  0  0  0
    4.7977   -2.7696    0.5868 C   0  0  0  0  0  0  0  0  0  0  0  0
    5.9801   -2.1023    0.7563 C   0  0  0  0  0  0  0  0  0  0  0  0
    6.0026   -0.7277    0.7279 C   0  0  0  0  0  0  0  0  0  0  0  0
    7.1846   -0.0259    0.8982 C   0  0  0  0  0  0  0  0  0  0  0  0
    7.2321    1.3462    0.8756 C   0  0  0  0  0  0  0  0  0  0  0  0
    6.0652    2.0475    0.6771 C   0  0  0  0  0  0  0  0  0  0  0  0
    4.8829    1.3680    0.5063 C   0  0  0  0  0  0  0  0  0  0  0  0
    4.8418   -0.0033    0.5296 C   0  0  0  0  0  0  0  0  0  0  0  0
   -2.4108    0.6283   -0.3694 N   0  0  0  0  0  0  0  0  0  0  0  0
   -2.3329    2.0425   -0.5086 C   0  0  0  0  0  0  0  0  0  0  0  0
   -1.5794    2.6600   -1.5066 C   0  0  0  0  0  0  0  0  0  0  0  0
   -1.5066    4.0161   -1.6371 C   0  0  0  0  0  0  0  0  0  0  0  0
   -2.1861    4.8457   -0.7735 C   0  0  0  0  0  0  0  0  0  0  0  0
   -2.9466    4.2686    0.2325 C   0  0  0  0  0  0  0  0  0  0  0  0
   -3.6489    5.1146    1.1246 N   0  0  0  0  0  0  0  0  0  0  0  0
   -3.0059    2.8880    0.3461 C   0  0  0  0  0  0  0  0  0  0  0  0
   -3.5058   -0.1280   -0.3973 N   0  0  0  0  0  0  0  0  0  0  0  0
   -5.8408   -2.6758   -1.3617 H   0  0  0  0  0  0  0  0  0  0  0  0
   -5.7494   -1.2570   -0.2409 H   0  0  0  0  0  0  0  0  0  0  0  0
   -6.0964   -2.9356    0.3726 H   0  0  0  0  0  0  0  0  0  0  0  0
   -3.8565   -4.4207    0.9735 H   0  0  0  0  0  0  0  0  0  0  0  0
   -4.4030   -2.9567    1.9295 H   0  0  0  0  0  0  0  0  0  0  0  0
   -2.6699   -3.1152    1.3761 H   0  0  0  0  0  0  0  0  0  0  0  0
   -4.4249   -4.2630   -1.5885 H   0  0  0  0  0  0  0  0  0  0  0  0
   -2.7966   -4.2929   -0.8812 H   0  0  0  0  0  0  0  0  0  0  0  0
   -3.2235   -3.0689   -2.1825 H   0  0  0  0  0  0  0  0  0  0  0  0
   -1.2213   -2.3375    0.0555 H   0  0  0  0  0  0  0  0  0  0  0  0
    0.2035    1.3595   -0.1931 H   0  0  0  0  0  0  0  0  0  0  0  0
    2.4737    1.0772    0.0592 H   0  0  0  0  0  0  0  0  0  0  0  0
    2.7110   -2.6770    0.2506 H   0  0  0  0  0  0  0  0  0  0  0  0
    4.7692   -3.8561    0.6078 H   0  0  0  0  0  0  0  0  0  0  0  0
    6.9263   -2.6308    0.9169 H   0  0  0  0  0  0  0  0  0  0  0  0
    8.0767   -0.6094    1.0510 H   0  0  0  0  0  0  0  0  0  0  0  0
    8.1592    1.8822    1.0093 H   0  0  0  0  0  0  0  0  0  0  0  0
    6.0348    3.1350    0.6487 H   0  0  0  0  0  0  0  0  0  0  0  0
    4.0028    1.9395    0.3580 H   0  0  0  0  0  0  0  0  0  0  0  0
   -1.0442    2.0402   -2.1876 H   0  0  0  0  0  0  0  0  0  0  0  0
   -0.9186    4.4772   -2.4151 H   0  0  0  0  0  0  0  0  0  0  0  0
   -2.1314    5.9201   -0.8730 H   0  0  0  0  0  0  0  0  0  0  0  0
   -3.1991    5.4876    1.9694 H   0  0  0  0  0  0  0  0  0  0  0  0
   -4.6307    5.3535    0.9104 H   0  0  0  0  0  0  0  0  0  0  0  0
   -3.6173    2.5006    1.1531 H   0  0  0  0  0  0  0  0  0  0  0  0
  1  2  1  0
  2  3  1  0
  2  4  1  0
  2  5  1  0
  5  6  1  0
  6  7  2  0
  7  8  1  0
  8  9  1  0
  9 10  2  0
  9 11  1  0
 11 12  1  0
 12 13  2  0
 13 14  1  0
 14 15  2  0
 15 16  1  0
 16 17  2  0
 17 18  1  0
 18 19  2  0
 19 20  1  0
 20 21  2  0
  7 22  1  0
 22 23  1  0
 23 24  2  0
 24 25  1  0
 25 26  2  0
 26 27  1  0
 27 28  1  0
 27 29  2  0
 22 30  1  0
 30  5  2  0
 21 12  1  0
 29 23  1  0
 21 16  1  0
  1 31  1  0
  1 32  1  0
  1 33  1  0
  3 34  1  0
  3 35  1  0
  3 36  1  0
  4 37  1  0
  4 38  1  0
  4 39  1  0
  6 40  1  0
  8 41  1  0
 11 42  1  0
 13 43  1  0
 14 44  1  0
 15 45  1  0
 17 46  1  0
 18 47  1  0
 19 48  1  0
 20 49  1  0
 24 50  1  0
 25 51  1  0
 26 52  1  0
 28 53  1  0
 28 54  1  0
 29 55  1  0
M  END
$$$$
