@<TRIPOS>MOLECULE
*****
 55 58 0 0 0
SMALL
GASTEIGER

@<TRIPOS>ATOM
      1 C          -5.4862   -2.3342   -0.3607 C.3     1  UNL1       -0.0546
      2 C          -4.0298   -2.6206   -0.1889 C.3     1  UNL1        0.0063
      3 C          -3.7270   -3.3171    1.1318 C.3     1  UNL1       -0.0546
      4 C          -3.5805   -3.5927   -1.2879 C.3     1  UNL1       -0.0546
      5 C          -3.2047   -1.4020   -0.2352 C.ar    1  UNL1        0.0706
      6 C          -1.8087   -1.4281   -0.0965 C.ar    1  UNL1        0.0021
      7 C          -1.3254   -0.1735   -0.1801 C.ar    1  UNL1        0.1299
      8 N          -0.0034    0.3191   -0.1022 N.am    1  UNL1       -0.2538
      9 C           1.1615   -0.5145    0.1014 C.2     1  UNL1        0.3092
     10 O           0.9182   -1.7172    0.2064 O.2     1  UNL1       -0.2521
     11 N           2.4573    0.0419    0.1687 N.am    1  UNL1       -0.2686
     12 C           3.6288   -0.7164    0.3563 C.ar    1  UNL1        0.0425
     13 C           3.6021   -2.0889    0.3838 C.ar    1  UNL1       -0.0398
     14 C           4.7977   -2.7696    0.5868 C.ar    1  UNL1       -0.0594
     15 C           5.9801   -2.1023    0.7563 C.ar    1  UNL1       -0.0539
     16 C           6.0026   -0.7277    0.7279 C.ar    1  UNL1       -0.0161
     17 C           7.1846   -0.0259    0.8982 C.ar    1  UNL1       -0.0540
     18 C           7.2321    1.3462    0.8756 C.ar    1  UNL1       -0.0612
     19 C           6.0652    2.0475    0.6771 C.ar    1  UNL1       -0.0611
     20 C           4.8829    1.3680    0.5063 C.ar    1  UNL1       -0.0523
     21 C           4.8418   -0.0033    0.5296 C.ar    1  UNL1        0.0034
     22 N          -2.4108    0.6283   -0.3694 N.ar    1  UNL1       -0.2180
     23 C          -2.3329    2.0425   -0.5086 C.ar    1  UNL1        0.0692
     24 C          -1.5794    2.6600   -1.5066 C.ar    1  UNL1       -0.0361
     25 C          -1.5066    4.0161   -1.6371 C.ar    1  UNL1       -0.0580
     26 C          -2.1861    4.8457   -0.7735 C.ar    1  UNL1       -0.0409
     27 C          -2.9466    4.2686    0.2325 C.ar    1  UNL1        0.0266
     28 N          -3.6489    5.1146    1.1246 N.pl3   1  UNL1       -0.3579
     29 C          -3.0059    2.8880    0.3461 C.ar    1  UNL1       -0.0155
     30 N          -3.5058   -0.1280   -0.3973 N.ar    1  UNL1       -0.1691
     31 H          -5.8408   -2.6758   -1.3617 H       1  UNL1        0.0239
     32 H          -5.7494   -1.2570   -0.2409 H       1  UNL1        0.0239
     33 H          -6.0964   -2.9356    0.3726 H       1  UNL1        0.0239
     34 H          -3.8565   -4.4207    0.9735 H       1  UNL1        0.0239
     35 H          -4.4030   -2.9567    1.9295 H       1  UNL1        0.0239
     36 H          -2.6699   -3.1152    1.3761 H       1  UNL1        0.0239
     37 H          -4.4249   -4.2630   -1.5885 H       1  UNL1        0.0239
     38 H          -2.7966   -4.2929   -0.8812 H       1  UNL1        0.0239
     39 H          -3.2235   -3.0689   -2.1825 H       1  UNL1        0.0239
     40 H          -1.2213   -2.3375    0.0555 H       1  UNL1        0.0671
     41 H           0.2035    1.3595   -0.1931 H       1  UNL1        0.1578
     42 H           2.4737    1.0772    0.0592 H       1  UNL1        0.1564
     43 H           2.7110   -2.6770    0.2506 H       1  UNL1        0.0636
     44 H           4.7692   -3.8561    0.6078 H       1  UNL1        0.0618
     45 H           6.9263   -2.6308    0.9169 H       1  UNL1        0.0624
     46 H           8.0767   -0.6094    1.0510 H       1  UNL1        0.0624
     47 H           8.1592    1.8822    1.0093 H       1  UNL1        0.0618
     48 H           6.0348    3.1350    0.6487 H       1  UNL1        0.0618
     49 H           4.0028    1.9395    0.3580 H       1  UNL1        0.0624
     50 H          -1.0442    2.0402   -2.1876 H       1  UNL1        0.0639
     51 H          -0.9186    4.4772   -2.4151 H       1  UNL1        0.0619
     52 H          -2.1314    5.9201   -0.8730 H       1  UNL1        0.0636
     53 H          -3.1991    5.4876    1.9694 H       1  UNL1        0.1423
     54 H          -4.6307    5.3535    0.9104 H       1  UNL1        0.1423
     55 H          -3.6173    2.5006    1.1531 H       1  UNL1        0.0657
@<TRIPOS>BOND
     1     1     2    1
     2     2     3    1
     3     2     4    1
     4     2     5    1
     5     5     6   ar
     6     6     7   ar
     7     7     8    1
     8     8     9   am
     9     9    10    2
    10     9    11   am
    11    11    12    1
    12    12    13   ar
    13    13    14   ar
    14    14    15   ar
    15    15    16   ar
    16    16    17   ar
    17    17    18   ar
    18    18    19   ar
    19    19    20   ar
    20    20    21   ar
    21     7    22   ar
    22    22    23    1
    23    23    24   ar
    24    24    25   ar
    25    25    26   ar
    26    26    27   ar
    27    27    28    1
    28    27    29   ar
    29    22    30   ar
    30    30     5   ar
    31    21    12   ar
    32    29    23   ar
    33    21    16   ar
    34     1    31    1
    35     1    32    1
    36     1    33    1
    37     3    34    1
    38     3    35    1
    39     3    36    1
    40     4    37    1
    41     4    38    1
    42     4    39    1
    43     6    40    1
    44     8    41    1
    45    11    42    1
    46    13    43    1
    47    14    44    1
    48    15    45    1
    49    17    46    1
    50    18    47    1
    51    19    48    1
    52    20    49    1
    53    24    50    1
    54    25    51    1
    55    26    52    1
    56    28    53    1
    57    28    54    1
    58    29    55    1
