
     RDKit          3D

 33 35  0  0  0  0  0  0  0  0999 V2000
    5.3574    0.3415    0.6691 C   0  0  0  0  0  0  0  0  0  0  0  0
    4.1875    0.8685    1.2166 O   0  0  0  0  0  0  0  0  0  0  0  0
    2.8992    0.6247    0.7866 C   0  0  0  0  0  0  0  0  0  0  0  0
    2.6955   -0.2159   -0.2867 C   0  0  0  0  0  0  0  0  0  0  0  0
    1.4240   -0.4575   -0.7139 C   0  0  0  0  0  0  0  0  0  0  0  0
    0.2665    0.0504   -0.1904 C   0  0  0  0  0  0  0  0  0  0  0  0
    0.5311    0.8733    0.8694 C   0  0  0  0  0  0  0  0  0  0  0  0
    1.7662    1.1909    1.3868 C   0  0  0  0  0  0  0  0  0  0  0  0
    2.0579    2.2526    2.7457 Cl  0  0  0  0  0  0  0  0  0  0  0  0
   -1.1002   -0.2265   -0.5400 C   0  0  0  0  0  0  0  0  0  0  0  0
   -1.1206   -1.0849   -1.4683 N   0  0  0  0  0  0  0  0  0  0  0  0
   -0.1052   -1.7558   -2.1570 C   0  0  0  0  0  0  0  0  0  0  0  0
    1.3051   -1.3788   -1.8819 C   0  0  0  0  0  0  0  0  0  0  0  0
   -2.3035    0.3003    0.0390 C   0  0  0  0  0  0  0  0  0  0  0  0
   -2.7287    1.2718    0.8761 C   0  0  0  0  0  0  0  0  0  0  0  0
   -3.9380    1.5308    1.4149 C   0  0  0  0  0  0  0  0  0  0  0  0
   -4.9567    0.6727    1.0729 C   0  0  0  0  0  0  0  0  0  0  0  0
   -4.7153   -0.3775    0.2263 C   0  0  0  0  0  0  0  0  0  0  0  0
   -6.1472   -1.5329   -0.2159 Br  0  0  0  0  0  0  0  0  0  0  0  0
   -3.4295   -0.5082   -0.2381 C   0  0  0  0  0  0  0  0  0  0  0  0
    5.2176   -0.7284    0.4295 H   0  0  0  0  0  0  0  0  0  0  0  0
    6.1789    0.4999    1.4042 H   0  0  0  0  0  0  0  0  0  0  0  0
    5.6354    0.9320   -0.2340 H   0  0  0  0  0  0  0  0  0  0  0  0
    3.5554   -0.6535   -0.7511 H   0  0  0  0  0  0  0  0  0  0  0  0
   -0.2246    1.3361    1.4476 H   0  0  0  0  0  0  0  0  0  0  0  0
   -0.2248   -2.8672   -1.9713 H   0  0  0  0  0  0  0  0  0  0  0  0
   -0.3358   -1.6743   -3.2629 H   0  0  0  0  0  0  0  0  0  0  0  0
    1.9209   -2.2535   -1.6510 H   0  0  0  0  0  0  0  0  0  0  0  0
    1.6975   -0.8042   -2.7496 H   0  0  0  0  0  0  0  0  0  0  0  0
   -1.9732    1.9751    1.0906 H   0  0  0  0  0  0  0  0  0  0  0  0
   -4.0764    2.3621    2.0701 H   0  0  0  0  0  0  0  0  0  0  0  0
   -5.9450    0.8297    1.4745 H   0  0  0  0  0  0  0  0  0  0  0  0
   -3.3714   -1.3934   -0.9079 H   0  0  0  0  0  0  0  0  0  0  0  0
  1  2  1  0
  2  3  1  0
  3  4  2  0
  4  5  1  0
  5  6  2  0
  6  7  1  0
  7  8  2  0
  8  9  1  0
  6 10  1  0
 10 11  2  0
 11 12  1  0
 12 13  1  0
 10 14  1  0
 14 15  2  0
 15 16  1  0
 16 17  2  0
 17 18  1  0
 18 19  1  0
 18 20  2  0
  8  3  1  0
 20 14  1  0
 13  5  1  0
  1 21  1  0
  1 22  1  0
  1 23  1  0
  4 24  1  0
  7 25  1  0
 12 26  1  0
 12 27  1  0
 13 28  1  0
 13 29  1  0
 15 30  1  0
 16 31  1  0
 17 32  1  0
 20 33  1  0
M  END
$$$$
