@<TRIPOS>MOLECULE
*****
 61 66 0 0 0
SMALL
GASTEIGER

@<TRIPOS>ATOM
      1 CL          2.9070   -2.5675    1.0480 Cl      1  UNL1       -0.0797
      2 C           1.9723   -1.4730    0.0425 C.ar    1  UNL1        0.0831
      3 C           0.6067   -1.5746    0.0306 C.ar    1  UNL1       -0.0320
      4 C          -0.2028   -0.7515   -0.7316 C.ar    1  UNL1       -0.0134
      5 C          -1.6552   -0.8549   -0.7477 C.ar    1  UNL1        0.0185
      6 C          -2.4490    0.2725   -0.9525 C.ar    1  UNL1        0.0391
      7 N          -3.7898    0.1398   -0.9631 N.ar    1  UNL1       -0.2350
      8 C          -4.3686   -1.0428   -0.7825 C.ar    1  UNL1        0.1632
      9 C          -5.7057   -1.3731   -0.7616 C.ar    1  UNL1        0.0467
     10 C          -6.8377   -0.4642   -0.9383 C.ar    1  UNL1       -0.0022
     11 C          -7.3791   -0.1915   -2.1771 C.ar    1  UNL1       -0.0351
     12 C          -8.4483    0.6645   -2.3618 C.ar    1  UNL1        0.0288
     13 N          -8.9737    1.2519   -1.2663 N.ar    1  UNL1       -0.2549
     14 C          -8.4913    1.0261   -0.0411 C.ar    1  UNL1        0.0715
     15 C          -9.0686    1.6549    1.0465 C.ar    1  UNL1       -0.0357
     16 C          -8.5933    1.4420    2.3218 C.ar    1  UNL1       -0.0597
     17 C          -7.5317    0.5955    2.5276 C.ar    1  UNL1       -0.0611
     18 C          -6.9553   -0.0335    1.4346 C.ar    1  UNL1       -0.0520
     19 C          -7.4111    0.1623    0.1536 C.ar    1  UNL1        0.0082
     20 C          -5.7369   -2.7447   -0.5373 C.ar    1  UNL1        0.0597
     21 N          -4.4472   -3.1571   -0.4375 N.ar    1  UNL1       -0.1727
     22 N          -3.6144   -2.1448   -0.5829 N.ar    1  UNL1       -0.2206
     23 C          -2.2582   -2.0709   -0.5622 C.ar    1  UNL1        0.0406
     24 C           0.4482    0.2081   -1.5051 C.ar    1  UNL1       -0.0504
     25 C           1.8225    0.3129   -1.4955 C.ar    1  UNL1       -0.0179
     26 C           2.6048   -0.5217   -0.7252 C.ar    1  UNL1        0.1388
     27 O           3.9971   -0.4281   -0.7048 O.3     1  UNL1       -0.4892
     28 C           4.5766    0.5693   -1.5160 C.3     1  UNL1        0.1023
     29 C           6.0658    0.6315   -1.4614 C.3     1  UNL1        0.0331
     30 N           6.5265    0.8925   -0.1499 N.3     1  UNL1       -0.2991
     31 C           6.3582   -0.0988    0.8331 C.3     1  UNL1       -0.0010
     32 C           7.6159   -0.5010    1.5585 C.3     1  UNL1       -0.0402
     33 C           8.5162    0.6559    1.8820 C.3     1  UNL1       -0.0507
     34 C           8.8258    1.3561    0.5723 C.3     1  UNL1       -0.0402
     35 C           7.5159    1.8791    0.0299 C.3     1  UNL1       -0.0010
     36 H           0.0757   -2.3204    0.6303 H       1  UNL1        0.0639
     37 H          -1.9634    1.2153   -1.0958 H       1  UNL1        0.0837
     38 H          -6.9460   -0.6699   -3.0417 H       1  UNL1        0.0639
     39 H          -8.8678    0.8707   -3.3572 H       1  UNL1        0.0830
     40 H          -9.9065    2.3201    0.8689 H       1  UNL1        0.0639
     41 H          -9.0302    1.9207    3.1677 H       1  UNL1        0.0618
     42 H          -7.1074    0.3819    3.5013 H       1  UNL1        0.0618
     43 H          -6.1168   -0.7074    1.5601 H       1  UNL1        0.0624
     44 H          -6.6371   -3.3517   -0.4602 H       1  UNL1        0.0855
     45 H          -1.6616   -2.9528   -0.4025 H       1  UNL1        0.0837
     46 H          -0.1401    0.8804   -2.1224 H       1  UNL1        0.0625
     47 H           2.3519    1.0583   -2.0952 H       1  UNL1        0.0655
     48 H           4.2424    0.4272   -2.5713 H       1  UNL1        0.0709
     49 H           4.1606    1.5504   -1.2047 H       1  UNL1        0.0709
     50 H           6.3879    1.4698   -2.1164 H       1  UNL1        0.0460
     51 H           6.5536   -0.2870   -1.8725 H       1  UNL1        0.0460
     52 H           5.9667   -1.0295    0.3673 H       1  UNL1        0.0427
     53 H           5.5742    0.2155    1.5804 H       1  UNL1        0.0427
     54 H           8.1915   -1.2166    0.9351 H       1  UNL1        0.0278
     55 H           7.3389   -1.0150    2.4944 H       1  UNL1        0.0278
     56 H           9.4363    0.2441    2.3422 H       1  UNL1        0.0266
     57 H           7.9812    1.3795    2.5348 H       1  UNL1        0.0266
     58 H           9.2280    0.5778   -0.1203 H       1  UNL1        0.0278
     59 H           9.5020    2.2190    0.6903 H       1  UNL1        0.0278
     60 H           7.7480    2.3684   -0.9499 H       1  UNL1        0.0427
     61 H           7.1968    2.7298    0.7022 H       1  UNL1        0.0427
@<TRIPOS>BOND
     1     1     2    1
     2     2     3   ar
     3     3     4   ar
     4     4     5    1
     5     5     6   ar
     6     6     7   ar
     7     7     8   ar
     8     8     9   ar
     9     9    10    1
    10    10    11   ar
    11    11    12   ar
    12    12    13   ar
    13    13    14   ar
    14    14    15   ar
    15    15    16   ar
    16    16    17   ar
    17    17    18   ar
    18    18    19   ar
    19     9    20   ar
    20    20    21   ar
    21    21    22   ar
    22    22    23   ar
    23     4    24   ar
    24    24    25   ar
    25    25    26   ar
    26    26    27    1
    27    27    28    1
    28    28    29    1
    29    29    30    1
    30    30    31    1
    31    31    32    1
    32    32    33    1
    33    33    34    1
    34    34    35    1
    35    26     2   ar
    36    35    30    1
    37    23     5   ar
    38    22     8   ar
    39    19    10   ar
    40    19    14   ar
    41     3    36    1
    42     6    37    1
    43    11    38    1
    44    12    39    1
    45    15    40    1
    46    16    41    1
    47    17    42    1
    48    18    43    1
    49    20    44    1
    50    23    45    1
    51    24    46    1
    52    25    47    1
    53    28    48    1
    54    28    49    1
    55    29    50    1
    56    29    51    1
    57    31    52    1
    58    31    53    1
    59    32    54    1
    60    32    55    1
    61    33    56    1
    62    33    57    1
    63    34    58    1
    64    34    59    1
    65    35    60    1
    66    35    61    1
