
     RDKit          3D

 62 62  0  0  0  0  0  0  0  0999 V2000
    5.9962    2.6657    1.4335 C   0  0  0  0  0  0  0  0  0  0  0  0
    4.6982    2.4716    2.1380 C   0  0  0  0  0  0  0  0  0  0  0  0
    3.5658    2.0811    1.2314 C   0  0  0  0  0  0  0  0  0  0  0  0
    3.8721    0.7996    0.5397 C   0  0  0  0  0  0  0  0  0  0  0  0
    2.7815    0.3388   -0.3903 C   0  0  0  0  0  0  0  0  0  0  0  0
    1.4765    0.1055    0.2835 C   0  0  2  0  0  0  0  0  0  0  0  0
    1.5334   -0.9412    1.3682 C   0  0  0  0  0  0  0  0  0  0  0  0
    1.9457   -2.2733    0.8936 C   0  0  0  0  0  0  0  0  0  0  0  0
    2.1981   -2.5064   -0.3238 O   0  0  0  0  0  0  0  0  0  0  0  0
    2.0878   -3.3849    1.7692 N   0  0  0  0  0  0  0  0  0  0  0  0
    2.4643   -4.5792    1.3005 O   0  0  0  0  0  0  0  0  0  0  0  0
    0.5370   -0.4397   -0.7617 C   0  0  0  0  0  0  0  0  0  0  0  0
    0.8852   -0.6264   -1.9543 O   0  0  0  0  0  0  0  0  0  0  0  0
   -0.8259   -0.7748   -0.4259 N   0  0  0  0  0  0  0  0  0  0  0  0
   -1.7319   -1.2992   -1.4299 C   0  0  2  0  0  0  0  0  0  0  0  0
   -2.8743   -0.4505   -1.7439 C   0  0  0  0  0  0  0  0  0  0  0  0
   -3.6841   -0.9392   -2.6269 O   0  0  0  0  0  0  0  0  0  0  0  0
   -3.2188    0.8106   -1.2295 N   0  0  0  0  0  0  0  0  0  0  0  0
   -4.4257    1.5592   -1.6166 C   0  0  0  0  0  0  0  0  0  0  0  0
   -4.1915    2.9896   -1.2714 C   0  0  0  0  0  0  0  0  0  0  0  0
   -2.7884    3.0546   -0.7669 C   0  0  0  0  0  0  0  0  0  0  0  0
   -2.5377    1.6192   -0.2871 C   0  0  1  0  0  0  0  0  0  0  0  0
   -3.0889    1.4844    1.1222 C   0  0  0  0  0  0  0  0  0  0  0  0
   -4.4331    1.8578    1.1705 O   0  0  0  0  0  0  0  0  0  0  0  0
   -2.1384   -2.7210   -1.0791 C   0  0  0  0  0  0  0  0  0  0  0  0
   -0.8788   -3.5854   -1.0008 C   0  0  0  0  0  0  0  0  0  0  0  0
   -2.9322   -3.2842   -2.2432 C   0  0  0  0  0  0  0  0  0  0  0  0
    5.8917    2.9797    0.3776 H   0  0  0  0  0  0  0  0  0  0  0  0
    6.6490    3.4002    1.9625 H   0  0  0  0  0  0  0  0  0  0  0  0
    6.5638    1.7067    1.4306 H   0  0  0  0  0  0  0  0  0  0  0  0
    4.4143    3.4576    2.6065 H   0  0  0  0  0  0  0  0  0  0  0  0
    4.7847    1.7235    2.9561 H   0  0  0  0  0  0  0  0  0  0  0  0
    2.6558    1.9878    1.8701 H   0  0  0  0  0  0  0  0  0  0  0  0
    3.4159    2.8635    0.4570 H   0  0  0  0  0  0  0  0  0  0  0  0
    4.0048    0.0051    1.3208 H   0  0  0  0  0  0  0  0  0  0  0  0
    4.8449    0.8779    0.0160 H   0  0  0  0  0  0  0  0  0  0  0  0
    3.1099   -0.5102   -1.0119 H   0  0  0  0  0  0  0  0  0  0  0  0
    2.6575    1.1853   -1.1328 H   0  0  0  0  0  0  0  0  0  0  0  0
    0.9867    1.0364    0.6357 H   0  0  0  0  0  0  0  0  0  0  0  0
    2.2392   -0.6615    2.1813 H   0  0  0  0  0  0  0  0  0  0  0  0
    0.5446   -1.0509    1.8814 H   0  0  0  0  0  0  0  0  0  0  0  0
    1.8946   -3.2599    2.7850 H   0  0  0  0  0  0  0  0  0  0  0  0
    2.9578   -5.1021    1.9646 H   0  0  0  0  0  0  0  0  0  0  0  0
   -1.0969   -0.6298    0.5692 H   0  0  0  0  0  0  0  0  0  0  0  0
   -1.1395   -1.3946   -2.3887 H   0  0  0  0  0  0  0  0  0  0  0  0
   -4.7005    1.3823   -2.6627 H   0  0  0  0  0  0  0  0  0  0  0  0
   -5.2777    1.1781   -0.9941 H   0  0  0  0  0  0  0  0  0  0  0  0
   -4.9345    3.3861   -0.5491 H   0  0  0  0  0  0  0  0  0  0  0  0
   -4.2973    3.5831   -2.2171 H   0  0  0  0  0  0  0  0  0  0  0  0
   -2.0501    3.2488   -1.5605 H   0  0  0  0  0  0  0  0  0  0  0  0
   -2.7316    3.7191    0.0959 H   0  0  0  0  0  0  0  0  0  0  0  0
   -1.4506    1.5229   -0.2314 H   0  0  0  0  0  0  0  0  0  0  0  0
   -3.0471    0.4346    1.4291 H   0  0  0  0  0  0  0  0  0  0  0  0
   -2.4854    2.1600    1.7621 H   0  0  0  0  0  0  0  0  0  0  0  0
   -4.8909    1.4629    1.9338 H   0  0  0  0  0  0  0  0  0  0  0  0
   -2.6565   -2.7861   -0.1282 H   0  0  0  0  0  0  0  0  0  0  0  0
   -0.0934   -3.2217   -1.6624 H   0  0  0  0  0  0  0  0  0  0  0  0
   -0.4957   -3.6585    0.0363 H   0  0  0  0  0  0  0  0  0  0  0  0
   -1.1126   -4.6361   -1.3189 H   0  0  0  0  0  0  0  0  0  0  0  0
   -2.6227   -2.8733   -3.2188 H   0  0  0  0  0  0  0  0  0  0  0  0
   -2.8009   -4.4019   -2.2876 H   0  0  0  0  0  0  0  0  0  0  0  0
   -4.0237   -3.1473   -2.1441 H   0  0  0  0  0  0  0  0  0  0  0  0
  1  2  1  0
  2  3  1  0
  3  4  1  0
  4  5  1  0
  5  6  1  0
  6  7  1  0
  7  8  1  0
  8  9  2  0
  8 10  1  0
 10 11  1  0
  6 12  1  0
 12 13  2  0
 12 14  1  0
 14 15  1  0
 15 16  1  0
 16 17  2  0
 16 18  1  0
 18 19  1  0
 19 20  1  0
 20 21  1  0
 21 22  1  0
 22 23  1  0
 23 24  1  0
 15 25  1  0
 25 26  1  0
 25 27  1  0
 22 18  1  0
  1 28  1  0
  1 29  1  0
  1 30  1  0
  2 31  1  0
  2 32  1  0
  3 33  1  0
  3 34  1  0
  4 35  1  0
  4 36  1  0
  5 37  1  0
  5 38  1  0
  6 39  1  1
  7 40  1  0
  7 41  1  0
 10 42  1  0
 11 43  1  0
 14 44  1  0
 15 45  1  6
 19 46  1  0
 19 47  1  0
 20 48  1  0
 20 49  1  0
 21 50  1  0
 21 51  1  0
 22 52  1  1
 23 53  1  0
 23 54  1  0
 24 55  1  0
 25 56  1  0
 26 57  1  0
 26 58  1  0
 26 59  1  0
 27 60  1  0
 27 61  1  0
 27 62  1  0
M  END
$$$$
