@<TRIPOS>MOLECULE
*****
 62 62 0 0 0
SMALL
GASTEIGER

@<TRIPOS>ATOM
      1 C           5.9962    2.6657    1.4335 C.3     0  UNK0       -0.0653
      2 C           4.6982    2.4716    2.1380 C.3     0  UNK0       -0.0559
      3 C           3.5658    2.0811    1.2314 C.3     0  UNK0       -0.0533
      4 C           3.8721    0.7996    0.5397 C.3     0  UNK0       -0.0524
      5 C           2.7815    0.3388   -0.3903 C.3     0  UNK0       -0.0415
      6 C           1.4765    0.1055    0.2835 C.3     0  UNK0        0.0438
      7 C           1.5334   -0.9412    1.3682 C.3     0  UNK0        0.0370
      8 C           1.9457   -2.2733    0.8936 C.2     0  UNK0        0.2362
      9 O           2.1981   -2.5064   -0.3238 O.2     0  UNK0       -0.2737
     10 N           2.0878   -3.3849    1.7692 N.am    0  UNK0       -0.1975
     11 O           2.4643   -4.5792    1.3005 O.3     0  UNK0       -0.2952
     12 C           0.5370   -0.4397   -0.7617 C.2     0  UNK0        0.2172
     13 O           0.8852   -0.6264   -1.9543 O.2     0  UNK0       -0.2755
     14 N          -0.8259   -0.7748   -0.4259 N.am    1  VAL1       -0.3035
     15 CA         -1.7319   -1.2992   -1.4299 C.3     1  VAL1        0.1019
     16 C          -2.8743   -0.4505   -1.7439 C.2     1  VAL1        0.2365
     17 O          -3.6841   -0.9392   -2.6269 O.2     1  VAL1       -0.2735
     18 N          -3.2188    0.8106   -1.2295 N.am    2  PRO2       -0.2947
     19 CD         -4.4257    1.5592   -1.6166 C.3     2  PRO2        0.0152
     20 CG         -4.1915    2.9896   -1.2714 C.3     2  PRO2       -0.0354
     21 CB         -2.7884    3.0546   -0.7669 C.3     2  PRO2       -0.0307
     22 CA         -2.5377    1.6192   -0.2871 C.3     2  PRO2        0.0492
     23 C          -3.0889    1.4844    1.1222 C.3     2  PRO2        0.0628
     24 O          -4.4331    1.8578    1.1705 O.3     2  PRO2       -0.3932
     25 CB         -2.1384   -2.7210   -1.0791 C.3     1  VAL1       -0.0197
     26 CG1        -0.8788   -3.5854   -1.0008 C.3     1  VAL1       -0.0605
     27 CG2        -2.9322   -3.2842   -2.2432 C.3     1  VAL1       -0.0605
     28 H           5.8917    2.9797    0.3776 H       0  UNK0        0.0230
     29 H           6.6490    3.4002    1.9625 H       0  UNK0        0.0230
     30 H           6.5638    1.7067    1.4306 H       0  UNK0        0.0230
     31 H           4.4143    3.4576    2.6065 H       0  UNK0        0.0263
     32 H           4.7847    1.7235    2.9561 H       0  UNK0        0.0263
     33 H           2.6558    1.9878    1.8701 H       0  UNK0        0.0265
     34 H           3.4159    2.8635    0.4570 H       0  UNK0        0.0265
     35 H           4.0048    0.0051    1.3208 H       0  UNK0        0.0265
     36 H           4.8449    0.8779    0.0160 H       0  UNK0        0.0265
     37 H           3.1099   -0.5102   -1.0119 H       0  UNK0        0.0273
     38 H           2.6575    1.1853   -1.1328 H       0  UNK0        0.0273
     39 H           0.9867    1.0364    0.6357 H       0  UNK0        0.0399
     40 H           2.2392   -0.6615    2.1813 H       0  UNK0        0.0366
     41 H           0.5446   -1.0509    1.8814 H       0  UNK0        0.0366
     42 H           1.8946   -3.2599    2.7850 H       0  UNK0        0.1822
     43 H           2.9578   -5.1021    1.9646 H       0  UNK0        0.2414
     44 H          -1.0969   -0.6298    0.5692 H       1  VAL1        0.1495
     45 HA         -1.1395   -1.3946   -2.3887 H       1  VAL1        0.0597
     46 HD1        -4.7005    1.3823   -2.6627 H       2  PRO2        0.0465
     47 HD2        -5.2777    1.1781   -0.9941 H       2  PRO2        0.0465
     48 HG1        -4.9345    3.3861   -0.5491 H       2  PRO2        0.0281
     49 HG2        -4.2973    3.5831   -2.2171 H       2  PRO2        0.0281
     50 HB1        -2.0501    3.2488   -1.5605 H       2  PRO2        0.0284
     51 HB2        -2.7316    3.7191    0.0959 H       2  PRO2        0.0284
     52 HA         -1.4506    1.5229   -0.2314 H       2  PRO2        0.0523
     53 H1         -3.0471    0.4346    1.4291 H       2  PRO2        0.0576
     54 H2         -2.4854    2.1600    1.7621 H       2  PRO2        0.0576
     55 H          -4.8909    1.4629    1.9338 H       2  PRO2        0.2095
     56 HB         -2.6565   -2.7861   -0.1282 H       1  VAL1        0.0318
     57 HG11       -0.0934   -3.2217   -1.6624 H       1  VAL1        0.0233
     58 HG12       -0.4957   -3.6585    0.0363 H       1  VAL1        0.0233
     59 HG13       -1.1126   -4.6361   -1.3189 H       1  VAL1        0.0233
     60 HG21       -2.6227   -2.8733   -3.2188 H       1  VAL1        0.0233
     61 HG22       -2.8009   -4.4019   -2.2876 H       1  VAL1        0.0233
     62 HG23       -4.0237   -3.1473   -2.1441 H       1  VAL1        0.0233
@<TRIPOS>BOND
     1     1     2    1
     2     2     3    1
     3     3     4    1
     4     4     5    1
     5     5     6    1
     6     6     7    1
     7     7     8    1
     8     8     9    2
     9     8    10   am
    10    10    11    1
    11     6    12    1
    12    12    13    2
    13    12    14   am
    14    14    15    1
    15    15    16    1
    16    16    17    2
    17    16    18   am
    18    18    19    1
    19    19    20    1
    20    20    21    1
    21    21    22    1
    22    22    23    1
    23    23    24    1
    24    15    25    1
    25    25    26    1
    26    25    27    1
    27    22    18    1
    28     1    28    1
    29     1    29    1
    30     1    30    1
    31     2    31    1
    32     2    32    1
    33     3    33    1
    34     3    34    1
    35     4    35    1
    36     4    36    1
    37     5    37    1
    38     5    38    1
    39     6    39    1
    40     7    40    1
    41     7    41    1
    42    10    42    1
    43    11    43    1
    44    14    44    1
    45    15    45    1
    46    19    46    1
    47    19    47    1
    48    20    48    1
    49    20    49    1
    50    21    50    1
    51    21    51    1
    52    22    52    1
    53    23    53    1
    54    23    54    1
    55    24    55    1
    56    25    56    1
    57    26    57    1
    58    26    58    1
    59    26    59    1
    60    27    60    1
    61    27    61    1
    62    27    62    1
