@<TRIPOS>MOLECULE
*****
 61 64 0 0 0
SMALL
GASTEIGER

@<TRIPOS>ATOM
      1 C           7.5058    2.8988    1.1834 C.3     1  UNL1       -0.0488
      2 C           7.7650    1.4243    1.3901 C.3     1  UNL1        0.0210
      3 N           6.8842    0.6337    0.5549 N.am    1  UNL1       -0.2245
      4 C           7.1960    0.2181   -0.7770 C.2     1  UNL1        0.2408
      5 O           8.1667    0.5711   -1.4883 O.2     1  UNL1       -0.2734
      6 C           6.1498   -0.7208   -1.1734 C.3     1  UNL1        0.0982
      7 N           5.0831   -0.5624   -0.1753 N.am    1  UNL1       -0.2462
      8 C           3.7803   -1.0986   -0.3762 C.ar    1  UNL1        0.0383
      9 C           2.7787   -0.3153   -0.9236 C.ar    1  UNL1       -0.0399
     10 C           1.5150   -0.7966   -1.1502 C.ar    1  UNL1       -0.0565
     11 C           1.1580   -2.1210   -0.8389 C.ar    1  UNL1       -0.0429
     12 C          -0.2271   -2.5672   -1.1395 C.3     1  UNL1       -0.0010
     13 C          -1.1956   -2.2046   -0.0888 C.ar    1  UNL1       -0.0244
     14 C          -1.9107   -1.0163   -0.2180 C.ar    1  UNL1       -0.0512
     15 C          -2.8077   -0.5363    0.6833 C.ar    1  UNL1       -0.0160
     16 C          -3.5586    0.7375    0.6006 C.3     1  UNL1        0.1125
     17 O          -4.9155    0.4195    0.7406 O.3     1  UNL1       -0.3612
     18 C          -5.7397    1.4325    0.3065 C.3     1  UNL1        0.1108
     19 C          -7.1557    1.0996    0.7301 C.3     1  UNL1        0.0729
     20 O          -7.5520   -0.1077    0.1746 O.3     1  UNL1       -0.3924
     21 C          -5.7177    1.6594   -1.1879 C.3     1  UNL1        0.1117
     22 O          -5.6172    3.0455   -1.4699 O.3     1  UNL1       -0.3865
     23 C          -4.4146    1.0592   -1.7253 C.3     1  UNL1        0.1121
     24 O          -4.4783   -0.3120   -1.8510 O.3     1  UNL1       -0.3865
     25 C          -3.3583    1.4604   -0.6889 C.3     1  UNL1        0.1137
     26 O          -3.5621    2.8626   -0.4953 O.3     1  UNL1       -0.3862
     27 C          -2.9918   -1.3482    1.8232 C.ar    1  UNL1       -0.0546
     28 C          -2.3127   -2.5224    1.9937 C.ar    1  UNL1       -0.0428
     29 C          -1.3939   -2.9713    1.0271 C.ar    1  UNL1        0.0445
     30 CL         -0.5656   -4.4822    1.2464 Cl      1  UNL1       -0.0832
     31 C           2.1488   -2.8953   -0.2980 C.ar    1  UNL1       -0.0565
     32 C           3.4419   -2.3968   -0.0676 C.ar    1  UNL1       -0.0399
     33 C           5.6038    0.1617    0.9228 C.2     1  UNL1        0.3158
     34 O           4.9674    0.3168    2.0183 O.2     1  UNL1       -0.2516
     35 H           8.4556    3.4362    1.4690 H       1  UNL1        0.0245
     36 H           6.6508    3.1928    1.7905 H       1  UNL1        0.0245
     37 H           7.3108    3.0380    0.0831 H       1  UNL1        0.0245
     38 H           7.6174    1.1558    2.4604 H       1  UNL1        0.0467
     39 H           8.8255    1.1879    1.1504 H       1  UNL1        0.0467
     40 H           5.6759   -0.5035   -2.1578 H       1  UNL1        0.0565
     41 H           6.5023   -1.7766   -1.2239 H       1  UNL1        0.0565
     42 H           3.0437    0.7233   -1.1735 H       1  UNL1        0.0636
     43 H           0.7349   -0.1716   -1.5816 H       1  UNL1        0.0621
     44 H          -0.2675   -3.6579   -1.3580 H       1  UNL1        0.0362
     45 H          -0.5266   -2.0647   -2.0922 H       1  UNL1        0.0362
     46 H          -1.7244   -0.4595   -1.1079 H       1  UNL1        0.0624
     47 H          -3.2403    1.3954    1.4776 H       1  UNL1        0.0673
     48 H          -5.4440    2.3907    0.8154 H       1  UNL1        0.0646
     49 H          -7.8541    1.8711    0.3194 H       1  UNL1        0.0584
     50 H          -7.2289    1.0954    1.8487 H       1  UNL1        0.0584
     51 H          -7.1937   -0.8507    0.7565 H       1  UNL1        0.2095
     52 H          -6.5999    1.2628   -1.7176 H       1  UNL1        0.0647
     53 H          -5.8073    3.5407   -0.6102 H       1  UNL1        0.2100
     54 H          -4.1706    1.6031   -2.6462 H       1  UNL1        0.0647
     55 H          -3.9565   -0.6461   -2.6476 H       1  UNL1        0.2100
     56 H          -2.3775    1.3461   -1.1664 H       1  UNL1        0.0649
     57 H          -3.1042    3.0532    0.3796 H       1  UNL1        0.2100
     58 H          -3.6900   -1.0378    2.5878 H       1  UNL1        0.0622
     59 H          -2.4370   -3.1614    2.8573 H       1  UNL1        0.0632
     60 H           1.9382   -3.9307   -0.0502 H       1  UNL1        0.0621
     61 H           4.1979   -3.0577    0.3689 H       1  UNL1        0.0636
@<TRIPOS>BOND
     1     1     2    1
     2     2     3    1
     3     3     4   am
     4     4     5    2
     5     4     6    1
     6     6     7    1
     7     7     8    1
     8     8     9   ar
     9     9    10   ar
    10    10    11   ar
    11    11    12    1
    12    12    13    1
    13    13    14   ar
    14    14    15   ar
    15    15    16    1
    16    16    17    1
    17    17    18    1
    18    18    19    1
    19    19    20    1
    20    18    21    1
    21    21    22    1
    22    21    23    1
    23    23    24    1
    24    23    25    1
    25    25    26    1
    26    15    27   ar
    27    27    28   ar
    28    28    29   ar
    29    29    30    1
    30    11    31   ar
    31    31    32   ar
    32     7    33   am
    33    33    34    2
    34    33     3   am
    35    32     8   ar
    36    29    13   ar
    37    25    16    1
    38     1    35    1
    39     1    36    1
    40     1    37    1
    41     2    38    1
    42     2    39    1
    43     6    40    1
    44     6    41    1
    45     9    42    1
    46    10    43    1
    47    12    44    1
    48    12    45    1
    49    14    46    1
    50    16    47    1
    51    18    48    1
    52    19    49    1
    53    19    50    1
    54    20    51    1
    55    21    52    1
    56    22    53    1
    57    23    54    1
    58    24    55    1
    59    25    56    1
    60    26    57    1
    61    27    58    1
    62    28    59    1
    63    31    60    1
    64    32    61    1
