@<TRIPOS>MOLECULE
*****
 52 56 0 0 0
SMALL
GASTEIGER

@<TRIPOS>ATOM
      1 O          -1.3721   -0.4005    2.0930 O.2     1  UNL1       -0.2699
      2 C          -1.9867   -0.7582    1.0724 C.2     1  UNL1        0.2492
      3 C          -3.4525   -0.6697    1.0905 C.ar    1  UNL1        0.0668
      4 C          -4.2388   -1.7151    1.5177 C.ar    1  UNL1       -0.0473
      5 C          -5.6073   -1.5583    1.5062 C.ar    1  UNL1       -0.0582
      6 C          -6.1854   -0.3831    1.0779 C.ar    1  UNL1       -0.0242
      7 C          -5.3948    0.6593    0.6518 C.ar    1  UNL1        0.1511
      8 F          -5.9869    1.7999    0.2371 F       1  UNL1       -0.2032
      9 C          -4.0240    0.5143    0.6586 C.ar    1  UNL1        0.1332
     10 N          -3.1617    1.5832    0.2198 N.ar    1  UNL1       -0.1467
     11 N          -3.1824    2.0432   -1.0186 N.ar    1  UNL1       -0.1555
     12 C          -2.2659    3.0233   -1.0835 C.ar    1  UNL1        0.0697
     13 C          -1.6916    3.1373    0.1616 C.ar    1  UNL1        0.0697
     14 N          -2.2672    2.2338    0.9428 N.ar    1  UNL1       -0.1555
     15 N          -1.2695   -1.2283   -0.0481 N.am    1  UNL1       -0.2897
     16 C          -1.8863   -1.6681   -1.2831 C.3     1  UNL1        0.0388
     17 C          -1.0175   -2.6277   -2.0365 C.3     1  UNL1        0.0635
     18 O          -0.1093   -3.3072   -1.3011 O.3     1  UNL1       -0.3764
     19 C           0.6228   -2.6362   -0.3848 C.3     1  UNL1        0.0666
     20 C           0.1737   -1.2880    0.0051 C.3     1  UNL1        0.0537
     21 C           0.7106   -0.1607   -0.8309 C.3     1  UNL1       -0.0068
     22 C           2.1685   -0.0845   -0.8793 C.ar    1  UNL1       -0.0435
     23 C           2.8610   -0.7543   -1.8549 C.ar    1  UNL1       -0.0584
     24 C           4.2443   -0.6543   -1.8628 C.ar    1  UNL1       -0.0594
     25 C           4.9241    0.0930   -0.9243 C.ar    1  UNL1       -0.0345
     26 C           4.2310    0.7684    0.0588 C.ar    1  UNL1        0.0864
     27 N           4.9489    1.5384    1.0240 N.ar    1  UNL1       -0.1503
     28 N           5.7961    2.4851    0.6755 N.ar    1  UNL1       -0.1556
     29 C           6.2869    2.9994    1.8121 C.ar    1  UNL1        0.0697
     30 C           5.7112    2.3352    2.8708 C.ar    1  UNL1        0.0697
     31 N           4.8804    1.4293    2.3348 N.ar    1  UNL1       -0.1556
     32 C           2.8629    0.6528    0.0441 C.ar    1  UNL1       -0.0313
     33 H          -3.7509   -2.6199    1.8459 H       1  UNL1        0.0626
     34 H          -6.2044   -2.3865    1.8437 H       1  UNL1        0.0619
     35 H          -7.2638   -0.3244    1.0936 H       1  UNL1        0.0647
     36 H          -2.0028    3.6349   -1.9515 H       1  UNL1        0.0864
     37 H          -0.9044    3.8375    0.4700 H       1  UNL1        0.0864
     38 H          -2.0070   -0.7499   -1.9200 H       1  UNL1        0.0487
     39 H          -2.9171   -2.0468   -1.1246 H       1  UNL1        0.0487
     40 H          -1.7200   -3.3868   -2.4972 H       1  UNL1        0.0575
     41 H          -0.5288   -2.1549   -2.9391 H       1  UNL1        0.0575
     42 H           1.7016   -2.6597   -0.7221 H       1  UNL1        0.0578
     43 H           0.6418   -3.2713    0.5535 H       1  UNL1        0.0578
     44 H           0.5286   -1.0805    1.0583 H       1  UNL1        0.0526
     45 H           0.3361   -0.1852   -1.8789 H       1  UNL1        0.0332
     46 H           0.2623    0.7841   -0.3996 H       1  UNL1        0.0332
     47 H           2.3793   -1.3558   -2.6174 H       1  UNL1        0.0620
     48 H           4.8281   -1.1679   -2.6162 H       1  UNL1        0.0618
     49 H           6.0175    0.1724   -0.9301 H       1  UNL1        0.0639
     50 H           7.0172    3.8061    1.8790 H       1  UNL1        0.0864
     51 H           5.9337    2.5552    3.9041 H       1  UNL1        0.0864
     52 H           2.3303    1.1979    0.8348 H       1  UNL1        0.0642
@<TRIPOS>BOND
     1     1     2    2
     2     2     3    1
     3     3     4   ar
     4     4     5   ar
     5     5     6   ar
     6     6     7   ar
     7     7     8    1
     8     7     9   ar
     9     9    10    1
    10    10    11   ar
    11    11    12   ar
    12    12    13   ar
    13    13    14   ar
    14     2    15   am
    15    15    16    1
    16    16    17    1
    17    17    18    1
    18    18    19    1
    19    19    20    1
    20    20    21    1
    21    21    22    1
    22    22    23   ar
    23    23    24   ar
    24    24    25   ar
    25    25    26   ar
    26    26    27    1
    27    27    28   ar
    28    28    29   ar
    29    29    30   ar
    30    30    31   ar
    31    26    32   ar
    32     9     3   ar
    33    14    10   ar
    34    20    15    1
    35    32    22   ar
    36    31    27   ar
    37     4    33    1
    38     5    34    1
    39     6    35    1
    40    12    36    1
    41    13    37    1
    42    16    38    1
    43    16    39    1
    44    17    40    1
    45    17    41    1
    46    19    42    1
    47    19    43    1
    48    20    44    1
    49    21    45    1
    50    21    46    1
    51    23    47    1
    52    24    48    1
    53    25    49    1
    54    29    50    1
    55    30    51    1
    56    32    52    1
