
     RDKit          3D

 49 51  0  0  0  0  0  0  0  0999 V2000
   -1.3699   -3.4605   -0.3647 C   0  0  0  0  0  0  0  0  0  0  0  0
   -1.6119   -1.9657   -0.3992 C   0  0  1  0  0  0  0  0  0  0  0  0
   -2.6754   -1.5559    0.5959 C   0  0  1  0  0  0  0  0  0  0  0  0
   -2.2078   -1.7464    1.9047 O   0  0  0  0  0  0  0  0  0  0  0  0
   -3.1054   -0.1471    0.4191 C   0  0  0  0  0  0  0  0  0  0  0  0
   -3.9001    0.4559    1.3871 C   0  0  0  0  0  0  0  0  0  0  0  0
   -4.3273    1.7535    1.2827 C   0  0  0  0  0  0  0  0  0  0  0  0
   -3.9776    2.5217    0.1932 C   0  0  0  0  0  0  0  0  0  0  0  0
   -4.4190    3.8289    0.1068 O   0  0  0  0  0  0  0  0  0  0  0  0
   -3.1945    1.9598   -0.7814 C   0  0  0  0  0  0  0  0  0  0  0  0
   -2.7733    0.6453   -0.6557 C   0  0  0  0  0  0  0  0  0  0  0  0
   -0.4049   -1.2077   -0.2677 N   0  0  0  0  0  0  0  0  0  0  0  0
    0.4684   -1.5498   -1.3704 C   0  0  0  0  0  0  0  0  0  0  0  0
    1.5819   -0.5383   -1.5385 C   0  0  0  0  0  0  0  0  0  0  0  0
    1.8250    0.0706   -0.1711 C   0  0  0  0  0  0  0  0  0  0  0  0
    0.8052    0.9643    0.1546 O   0  0  0  0  0  0  0  0  0  0  0  0
    3.0950    0.7913   -0.1367 C   0  0  0  0  0  0  0  0  0  0  0  0
    4.3045    0.2278    0.2150 C   0  0  0  0  0  0  0  0  0  0  0  0
    5.4405    1.0112    0.2093 C   0  0  0  0  0  0  0  0  0  0  0  0
    5.4209    2.3474   -0.1360 C   0  0  0  0  0  0  0  0  0  0  0  0
    4.2130    2.9155   -0.4885 C   0  0  0  0  0  0  0  0  0  0  0  0
    3.0806    2.1286   -0.4814 C   0  0  0  0  0  0  0  0  0  0  0  0
    1.7400   -1.0636    0.8265 C   0  0  0  0  0  0  0  0  0  0  0  0
    0.2333   -1.3104    1.0093 C   0  0  0  0  0  0  0  0  0  0  0  0
   -1.2113   -3.8860   -1.3778 H   0  0  0  0  0  0  0  0  0  0  0  0
   -2.2598   -3.9198    0.1142 H   0  0  0  0  0  0  0  0  0  0  0  0
   -0.4696   -3.7226    0.2261 H   0  0  0  0  0  0  0  0  0  0  0  0
   -2.0307   -1.7668   -1.4091 H   0  0  0  0  0  0  0  0  0  0  0  0
   -3.5859   -2.1794    0.4121 H   0  0  0  0  0  0  0  0  0  0  0  0
   -2.3429   -0.9080    2.4120 H   0  0  0  0  0  0  0  0  0  0  0  0
   -4.2033   -0.0954    2.2569 H   0  0  0  0  0  0  0  0  0  0  0  0
   -4.9502    2.2093    2.0522 H   0  0  0  0  0  0  0  0  0  0  0  0
   -5.3593    3.9684   -0.2769 H   0  0  0  0  0  0  0  0  0  0  0  0
   -2.9015    2.5280   -1.6457 H   0  0  0  0  0  0  0  0  0  0  0  0
   -2.1594    0.2437   -1.4420 H   0  0  0  0  0  0  0  0  0  0  0  0
    0.8794   -2.5711   -1.2936 H   0  0  0  0  0  0  0  0  0  0  0  0
   -0.1516   -1.5041   -2.2920 H   0  0  0  0  0  0  0  0  0  0  0  0
    2.4959   -1.0300   -1.9021 H   0  0  0  0  0  0  0  0  0  0  0  0
    1.2543    0.3108   -2.1980 H   0  0  0  0  0  0  0  0  0  0  0  0
    1.1358    1.4725    0.9611 H   0  0  0  0  0  0  0  0  0  0  0  0
    4.3233   -0.8173    0.4856 H   0  0  0  0  0  0  0  0  0  0  0  0
    6.4077    0.5961    0.4815 H   0  0  0  0  0  0  0  0  0  0  0  0
    6.2945    2.9800   -0.1480 H   0  0  0  0  0  0  0  0  0  0  0  0
    4.1625    3.9630   -0.7653 H   0  0  0  0  0  0  0  0  0  0  0  0
    2.1510    2.6353   -0.7706 H   0  0  0  0  0  0  0  0  0  0  0  0
    2.2191   -0.8503    1.7820 H   0  0  0  0  0  0  0  0  0  0  0  0
    2.1301   -2.0274    0.3867 H   0  0  0  0  0  0  0  0  0  0  0  0
   -0.1166   -0.4668    1.6398 H   0  0  0  0  0  0  0  0  0  0  0  0
    0.0471   -2.2384    1.5537 H   0  0  0  0  0  0  0  0  0  0  0  0
  1  2  1  0
  2  3  1  0
  3  4  1  0
  3  5  1  0
  5  6  2  0
  6  7  1  0
  7  8  2  0
  8  9  1  0
  8 10  1  0
 10 11  2  0
  2 12  1  0
 12 13  1  0
 13 14  1  0
 14 15  1  0
 15 16  1  0
 15 17  1  0
 17 18  2  0
 18 19  1  0
 19 20  2  0
 20 21  1  0
 21 22  2  0
 15 23  1  0
 23 24  1  0
 11  5  1  0
 24 12  1  0
 22 17  1  0
  1 25  1  0
  1 26  1  0
  1 27  1  0
  2 28  1  6
  3 29  1  6
  4 30  1  0
  6 31  1  0
  7 32  1  0
  9 33  1  0
 10 34  1  0
 11 35  1  0
 13 36  1  0
 13 37  1  0
 14 38  1  0
 14 39  1  0
 16 40  1  0
 18 41  1  0
 19 42  1  0
 20 43  1  0
 21 44  1  0
 22 45  1  0
 23 46  1  0
 23 47  1  0
 24 48  1  0
 24 49  1  0
M  END
$$$$
