@<TRIPOS>MOLECULE
*****
 49 51 0 0 0
SMALL
GASTEIGER

@<TRIPOS>ATOM
      1 C          -1.3699   -3.4605   -0.3647 C.3     1  UNL1       -0.0468
      2 C          -1.6119   -1.9657   -0.3992 C.3     1  UNL1        0.0377
      3 C          -2.6754   -1.5559    0.5959 C.3     1  UNL1        0.0954
      4 O          -2.2078   -1.7464    1.9047 O.3     1  UNL1       -0.3856
      5 C          -3.1054   -0.1471    0.4191 C.ar    1  UNL1       -0.0174
      6 C          -3.9001    0.4559    1.3871 C.ar    1  UNL1       -0.0526
      7 C          -4.3273    1.7535    1.2827 C.ar    1  UNL1       -0.0198
      8 C          -3.9776    2.5217    0.1932 C.ar    1  UNL1        0.1169
      9 O          -4.4190    3.8289    0.1068 O.3     1  UNL1       -0.5068
     10 C          -3.1945    1.9598   -0.7814 C.ar    1  UNL1       -0.0198
     11 C          -2.7733    0.6453   -0.6557 C.ar    1  UNL1       -0.0526
     12 N          -0.4049   -1.2077   -0.2677 N.3     1  UNL1       -0.2967
     13 C           0.4684   -1.5498   -1.3704 C.3     1  UNL1        0.0022
     14 C           1.5819   -0.5383   -1.5385 C.3     1  UNL1       -0.0070
     15 C           1.8250    0.0706   -0.1711 C.3     1  UNL1        0.0933
     16 O           0.8052    0.9643    0.1546 O.3     1  UNL1       -0.3839
     17 C           3.0950    0.7913   -0.1367 C.ar    1  UNL1       -0.0160
     18 C           4.3045    0.2278    0.2150 C.ar    1  UNL1       -0.0559
     19 C           5.4405    1.0112    0.2093 C.ar    1  UNL1       -0.0614
     20 C           5.4209    2.3474   -0.1360 C.ar    1  UNL1       -0.0617
     21 C           4.2130    2.9155   -0.4885 C.ar    1  UNL1       -0.0614
     22 C           3.0806    2.1286   -0.4814 C.ar    1  UNL1       -0.0559
     23 C           1.7400   -1.0636    0.8265 C.3     1  UNL1       -0.0070
     24 C           0.2333   -1.3104    1.0093 C.3     1  UNL1        0.0022
     25 H          -1.2113   -3.8860   -1.3778 H       1  UNL1        0.0246
     26 H          -2.2598   -3.9198    0.1142 H       1  UNL1        0.0246
     27 H          -0.4696   -3.7226    0.2261 H       1  UNL1        0.0246
     28 H          -2.0307   -1.7668   -1.4091 H       1  UNL1        0.0488
     29 H          -3.5859   -2.1794    0.4121 H       1  UNL1        0.0659
     30 H          -2.3429   -0.9080    2.4120 H       1  UNL1        0.2103
     31 H          -4.2033   -0.0954    2.2569 H       1  UNL1        0.0622
     32 H          -4.9502    2.2093    2.0522 H       1  UNL1        0.0654
     33 H          -5.3593    3.9684   -0.2769 H       1  UNL1        0.2921
     34 H          -2.9015    2.5280   -1.6457 H       1  UNL1        0.0654
     35 H          -2.1594    0.2437   -1.4420 H       1  UNL1        0.0622
     36 H           0.8794   -2.5711   -1.2936 H       1  UNL1        0.0428
     37 H          -0.1516   -1.5041   -2.2920 H       1  UNL1        0.0428
     38 H           2.4959   -1.0300   -1.9021 H       1  UNL1        0.0309
     39 H           1.2543    0.3108   -2.1980 H       1  UNL1        0.0309
     40 H           1.1358    1.4725    0.9611 H       1  UNL1        0.2106
     41 H           4.3233   -0.8173    0.4856 H       1  UNL1        0.0621
     42 H           6.4077    0.5961    0.4815 H       1  UNL1        0.0618
     43 H           6.2945    2.9800   -0.1480 H       1  UNL1        0.0618
     44 H           4.1625    3.9630   -0.7653 H       1  UNL1        0.0618
     45 H           2.1510    2.6353   -0.7706 H       1  UNL1        0.0621
     46 H           2.2191   -0.8503    1.7820 H       1  UNL1        0.0309
     47 H           2.1301   -2.0274    0.3867 H       1  UNL1        0.0309
     48 H          -0.1166   -0.4668    1.6398 H       1  UNL1        0.0428
     49 H           0.0471   -2.2384    1.5537 H       1  UNL1        0.0428
@<TRIPOS>BOND
     1     1     2    1
     2     2     3    1
     3     3     4    1
     4     3     5    1
     5     5     6   ar
     6     6     7   ar
     7     7     8   ar
     8     8     9    1
     9     8    10   ar
    10    10    11   ar
    11     2    12    1
    12    12    13    1
    13    13    14    1
    14    14    15    1
    15    15    16    1
    16    15    17    1
    17    17    18   ar
    18    18    19   ar
    19    19    20   ar
    20    20    21   ar
    21    21    22   ar
    22    15    23    1
    23    23    24    1
    24    11     5   ar
    25    24    12    1
    26    22    17   ar
    27     1    25    1
    28     1    26    1
    29     1    27    1
    30     2    28    1
    31     3    29    1
    32     4    30    1
    33     6    31    1
    34     7    32    1
    35     9    33    1
    36    10    34    1
    37    11    35    1
    38    13    36    1
    39    13    37    1
    40    14    38    1
    41    14    39    1
    42    16    40    1
    43    18    41    1
    44    19    42    1
    45    20    43    1
    46    21    44    1
    47    22    45    1
    48    23    46    1
    49    23    47    1
    50    24    48    1
    51    24    49    1
