@<TRIPOS>MOLECULE
*****
 39 40 0 0 0
SMALL
GASTEIGER

@<TRIPOS>ATOM
      1 C          -4.2266    0.3322   -1.6109 C.3     1  UNL1       -0.0496
      2 C          -3.8074    0.2514   -0.1579 C.3     1  UNL1        0.0048
      3 N          -4.6934   -0.5221    0.6488 N.3     1  UNL1       -0.3272
      4 C          -2.3796   -0.2494   -0.1271 C.3     1  UNL1       -0.0260
      5 C          -1.4516    0.6534   -0.8532 C.3     1  UNL1       -0.0481
      6 C          -0.6221    1.5457    0.0341 C.3     1  UNL1       -0.0416
      7 C           0.0506    0.8442    1.1517 C.3     1  UNL1        0.0359
      8 C           1.5209    0.8574    1.1198 C.2     1  UNL1        0.2203
      9 O           2.1304    1.3831    2.0783 O.2     1  UNL1       -0.2752
     10 N           2.2272    0.2930    0.0385 N.am    1  UNL1       -0.2852
     11 C           3.6343    0.2361   -0.1218 C.ar    1  UNL1        0.0363
     12 C           4.1286   -0.3712   -1.2751 C.ar    1  UNL1       -0.0223
     13 C           5.4766   -0.4481   -1.4706 C.ar    1  UNL1        0.0293
     14 N           6.3588    0.0475   -0.5788 N.ar    1  UNL1       -0.2631
     15 C           5.9383    0.6411    0.5460 C.ar    1  UNL1        0.0293
     16 C           4.5645    0.7239    0.7535 C.ar    1  UNL1       -0.0223
     17 C          -0.4036   -0.6227    1.2142 C.3     1  UNL1       -0.0416
     18 C          -1.9166   -0.5425    1.2895 C.3     1  UNL1       -0.0481
     19 H          -4.1025    1.3766   -2.0031 H       1  UNL1        0.0245
     20 H          -3.6328   -0.3972   -2.1993 H       1  UNL1        0.0245
     21 H          -5.3115    0.0418   -1.7200 H       1  UNL1        0.0245
     22 H          -3.7845    1.2960    0.2279 H       1  UNL1        0.0458
     23 H          -4.4719   -1.5400    0.6818 H       1  UNL1        0.1185
     24 H          -5.6797   -0.4563    0.3055 H       1  UNL1        0.1185
     25 H          -2.3839   -1.2339   -0.6518 H       1  UNL1        0.0316
     26 H          -2.0521    1.3068   -1.5235 H       1  UNL1        0.0269
     27 H          -0.7482    0.1018   -1.5380 H       1  UNL1        0.0269
     28 H          -1.3329    2.3262    0.4309 H       1  UNL1        0.0273
     29 H           0.0588    2.1127   -0.6378 H       1  UNL1        0.0273
     30 H          -0.2677    1.2753    2.1184 H       1  UNL1        0.0394
     31 H           1.5792   -0.1176   -0.7035 H       1  UNL1        0.1548
     32 H           3.4038   -0.7605   -1.9745 H       1  UNL1        0.0651
     33 H           5.8492   -0.9257   -2.3770 H       1  UNL1        0.0830
     34 H           6.6393    1.0382    1.2608 H       1  UNL1        0.0830
     35 H           4.2484    1.2036    1.6615 H       1  UNL1        0.0651
     36 H           0.0325   -1.1097    2.1111 H       1  UNL1        0.0273
     37 H          -0.0715   -1.0936    0.2707 H       1  UNL1        0.0273
     38 H          -2.2775   -1.5091    1.6642 H       1  UNL1        0.0269
     39 H          -2.2235    0.3212    1.9167 H       1  UNL1        0.0269
@<TRIPOS>BOND
     1     1     2    1
     2     2     3    1
     3     2     4    1
     4     4     5    1
     5     5     6    1
     6     6     7    1
     7     7     8    1
     8     8     9    2
     9     8    10   am
    10    10    11    1
    11    11    12   ar
    12    12    13   ar
    13    13    14   ar
    14    14    15   ar
    15    15    16   ar
    16     7    17    1
    17    17    18    1
    18    18     4    1
    19    16    11   ar
    20     1    19    1
    21     1    20    1
    22     1    21    1
    23     2    22    1
    24     3    23    1
    25     3    24    1
    26     4    25    1
    27     5    26    1
    28     5    27    1
    29     6    28    1
    30     6    29    1
    31     7    30    1
    32    10    31    1
    33    12    32    1
    34    13    33    1
    35    15    34    1
    36    16    35    1
    37    17    36    1
    38    17    37    1
    39    18    38    1
    40    18    39    1
