@<TRIPOS>MOLECULE
*****
 52 57 0 0 0
SMALL
GASTEIGER

@<TRIPOS>ATOM
      1 C          -4.9936   -2.4305    0.4227 C.3     1  UNL1       -0.0116
      2 C          -4.2171   -1.1347    0.3766 C.3     1  UNL1        0.2142
      3 C          -3.0811   -1.2997   -0.5676 C.ar    1  UNL1        0.0049
      4 C          -2.6777   -2.5722   -0.9502 C.ar    1  UNL1       -0.0543
      5 C          -1.6281   -2.7462   -1.8235 C.ar    1  UNL1       -0.0611
      6 C          -0.9634   -1.6516   -2.3296 C.ar    1  UNL1       -0.0568
      7 C          -1.3369   -0.3514   -1.9707 C.ar    1  UNL1       -0.0272
      8 C          -0.5971    0.8098   -2.5367 C.3     1  UNL1        0.0532
      9 N           0.5038    1.1458   -1.6844 N.ar    1  UNL1       -0.2874
     10 C           1.7621    0.6287   -1.7927 C.ar    1  UNL1        0.3362
     11 O           2.1389   -0.2128   -2.6493 O.2     1  UNL1       -0.2459
     12 N           2.5537    1.1502   -0.8442 N.ar    1  UNL1       -0.2413
     13 C           3.9194    0.8838   -0.6076 C.ar    1  UNL1        0.1922
     14 N           5.0243    1.4935   -1.0542 N.ar    1  UNL1       -0.0587
     15 O           6.0802    0.9167   -0.5842 O.2     1  UNL1       -0.3525
     16 C           5.7566   -0.0936    0.1898 C.ar    1  UNL1        0.1707
     17 C           6.5342   -0.9859    0.8974 C.ar    1  UNL1        0.0023
     18 C           5.8762   -1.9648    1.6397 C.ar    1  UNL1        0.0446
     19 CL          6.8620   -3.1002    2.5402 Cl      1  UNL1       -0.0834
     20 C           4.4953   -2.0200    1.6512 C.ar    1  UNL1       -0.0425
     21 C           3.7316   -1.1204    0.9382 C.ar    1  UNL1       -0.0460
     22 C           4.3796   -0.1515    0.2035 C.ar    1  UNL1        0.0661
     23 C           1.7763    2.0003   -0.1405 C.ar    1  UNL1        0.0765
     24 C           2.0608    2.8099    0.9470 C.ar    1  UNL1       -0.0356
     25 C           1.0645    3.5950    1.4834 C.ar    1  UNL1       -0.0597
     26 C          -0.2150    3.6002    0.9684 C.ar    1  UNL1       -0.0597
     27 C          -0.5105    2.7921   -0.1218 C.ar    1  UNL1       -0.0360
     28 C           0.4828    1.9989   -0.6690 C.ar    1  UNL1        0.0706
     29 C          -2.3896   -0.2351   -1.0971 C.ar    1  UNL1       -0.0494
     30 O          -3.8148   -0.6999    1.6439 O.2     1  UNL1       -0.4308
     31 C          -4.6193    0.3555    2.0371 C.2     1  UNL1        0.3808
     32 O          -4.6582    0.9913    3.2793 O.2     1  UNL1       -0.4673
     33 N          -5.4024    0.7311    1.0568 N.am    1  UNL1       -0.1074
     34 C          -5.1525   -0.0781   -0.0721 C.2     1  UNL1        0.2899
     35 O          -5.6118    0.0445   -1.2310 O.2     1  UNL1       -0.2687
     36 H          -4.4713   -3.2316    0.9747 H       1  UNL1        0.0276
     37 H          -6.0176   -2.2663    0.8206 H       1  UNL1        0.0276
     38 H          -5.1063   -2.7769   -0.6259 H       1  UNL1        0.0276
     39 H          -3.1674   -3.4495   -0.5800 H       1  UNL1        0.0622
     40 H          -1.3045   -3.7226   -2.1288 H       1  UNL1        0.0618
     41 H          -0.1294   -1.7386   -3.0216 H       1  UNL1        0.0621
     42 H          -0.1991    0.5418   -3.5509 H       1  UNL1        0.0543
     43 H          -1.3364    1.6483   -2.6106 H       1  UNL1        0.0543
     44 H           7.6144   -0.9377    0.8845 H       1  UNL1        0.0670
     45 H           4.0356   -2.8003    2.2442 H       1  UNL1        0.0632
     46 H           2.6561   -1.1510    0.9376 H       1  UNL1        0.0626
     47 H           3.0671    2.8154    1.3636 H       1  UNL1        0.0639
     48 H           1.3527    4.2104    2.3394 H       1  UNL1        0.0618
     49 H          -0.9817    4.2175    1.3969 H       1  UNL1        0.0618
     50 H          -1.5117    2.8057   -0.5137 H       1  UNL1        0.0639
     51 H          -2.7144    0.7497   -0.7905 H       1  UNL1        0.0625
     52 H          -4.9192    1.9868    3.2788 H       1  UNL1        0.2967
@<TRIPOS>BOND
     1     2     1    1
     2     2     3    1
     3     3     4   ar
     4     4     5   ar
     5     5     6   ar
     6     6     7   ar
     7     7     8    1
     8     8     9    1
     9     9    10   ar
    10    10    11    2
    11    10    12   ar
    12    12    13    1
    13    13    14   ar
    14    14    15   ar
    15    15    16   ar
    16    16    17   ar
    17    17    18   ar
    18    18    19    1
    19    18    20   ar
    20    20    21   ar
    21    21    22   ar
    22    12    23   ar
    23    23    24   ar
    24    24    25   ar
    25    25    26   ar
    26    26    27   ar
    27    27    28   ar
    28     7    29   ar
    29     2    30    1
    30    30    31    1
    31    31    32    1
    32    31    33    2
    33    33    34    1
    34    34    35    2
    35    34     2    1
    36    29     3   ar
    37    28     9   ar
    38    22    13   ar
    39    28    23   ar
    40    22    16   ar
    41     1    36    1
    42     1    37    1
    43     1    38    1
    44     4    39    1
    45     5    40    1
    46     6    41    1
    47     8    42    1
    48     8    43    1
    49    17    44    1
    50    20    45    1
    51    21    46    1
    52    24    47    1
    53    25    48    1
    54    26    49    1
    55    27    50    1
    56    29    51    1
    57    32    52    1
