
     RDKit          3D

 52 57  0  0  0  0  0  0  0  0999 V2000
   -4.9936   -2.4305    0.4227 C   0  0  0  0  0  0  0  0  0  0  0  0
   -4.2171   -1.1347    0.3766 C   0  0  2  0  0  0  0  0  0  0  0  0
   -3.0811   -1.2997   -0.5676 C   0  0  0  0  0  0  0  0  0  0  0  0
   -2.6777   -2.5722   -0.9502 C   0  0  0  0  0  0  0  0  0  0  0  0
   -1.6281   -2.7462   -1.8235 C   0  0  0  0  0  0  0  0  0  0  0  0
   -0.9634   -1.6516   -2.3296 C   0  0  0  0  0  0  0  0  0  0  0  0
   -1.3369   -0.3514   -1.9707 C   0  0  0  0  0  0  0  0  0  0  0  0
   -0.5971    0.8098   -2.5367 C   0  0  0  0  0  0  0  0  0  0  0  0
    0.5038    1.1458   -1.6844 N   0  0  0  0  0  0  0  0  0  0  0  0
    1.7621    0.6287   -1.7927 C   0  0  0  0  0  0  0  0  0  0  0  0
    2.1389   -0.2128   -2.6493 O   0  0  0  0  0  0  0  0  0  0  0  0
    2.5537    1.1502   -0.8442 N   0  0  0  0  0  0  0  0  0  0  0  0
    3.9194    0.8838   -0.6076 C   0  0  0  0  0  0  0  0  0  0  0  0
    5.0243    1.4935   -1.0542 N   0  0  0  0  0  0  0  0  0  0  0  0
    6.0802    0.9167   -0.5842 O   0  0  0  0  0  0  0  0  0  0  0  0
    5.7566   -0.0936    0.1898 C   0  0  0  0  0  0  0  0  0  0  0  0
    6.5342   -0.9859    0.8974 C   0  0  0  0  0  0  0  0  0  0  0  0
    5.8762   -1.9648    1.6397 C   0  0  0  0  0  0  0  0  0  0  0  0
    6.8620   -3.1002    2.5402 Cl  0  0  0  0  0  0  0  0  0  0  0  0
    4.4953   -2.0200    1.6512 C   0  0  0  0  0  0  0  0  0  0  0  0
    3.7316   -1.1204    0.9382 C   0  0  0  0  0  0  0  0  0  0  0  0
    4.3796   -0.1515    0.2035 C   0  0  0  0  0  0  0  0  0  0  0  0
    1.7763    2.0003   -0.1405 C   0  0  0  0  0  0  0  0  0  0  0  0
    2.0608    2.8099    0.9470 C   0  0  0  0  0  0  0  0  0  0  0  0
    1.0645    3.5950    1.4834 C   0  0  0  0  0  0  0  0  0  0  0  0
   -0.2150    3.6002    0.9684 C   0  0  0  0  0  0  0  0  0  0  0  0
   -0.5105    2.7921   -0.1218 C   0  0  0  0  0  0  0  0  0  0  0  0
    0.4828    1.9989   -0.6690 C   0  0  0  0  0  0  0  0  0  0  0  0
   -2.3896   -0.2351   -1.0971 C   0  0  0  0  0  0  0  0  0  0  0  0
   -3.8148   -0.6999    1.6439 O   0  0  0  0  0  0  0  0  0  0  0  0
   -4.6193    0.3555    2.0371 C   0  0  0  0  0  0  0  0  0  0  0  0
   -4.6582    0.9913    3.2793 O   0  0  0  0  0  0  0  0  0  0  0  0
   -5.4024    0.7311    1.0568 N   0  0  0  0  0  0  0  0  0  0  0  0
   -5.1525   -0.0781   -0.0721 C   0  0  0  0  0  0  0  0  0  0  0  0
   -5.6118    0.0445   -1.2310 O   0  0  0  0  0  0  0  0  0  0  0  0
   -4.4713   -3.2316    0.9747 H   0  0  0  0  0  0  0  0  0  0  0  0
   -6.0176   -2.2663    0.8206 H   0  0  0  0  0  0  0  0  0  0  0  0
   -5.1063   -2.7769   -0.6259 H   0  0  0  0  0  0  0  0  0  0  0  0
   -3.1674   -3.4495   -0.5800 H   0  0  0  0  0  0  0  0  0  0  0  0
   -1.3045   -3.7226   -2.1288 H   0  0  0  0  0  0  0  0  0  0  0  0
   -0.1294   -1.7386   -3.0216 H   0  0  0  0  0  0  0  0  0  0  0  0
   -0.1991    0.5418   -3.5509 H   0  0  0  0  0  0  0  0  0  0  0  0
   -1.3364    1.6483   -2.6106 H   0  0  0  0  0  0  0  0  0  0  0  0
    7.6144   -0.9377    0.8845 H   0  0  0  0  0  0  0  0  0  0  0  0
    4.0356   -2.8003    2.2442 H   0  0  0  0  0  0  0  0  0  0  0  0
    2.6561   -1.1510    0.9376 H   0  0  0  0  0  0  0  0  0  0  0  0
    3.0671    2.8154    1.3636 H   0  0  0  0  0  0  0  0  0  0  0  0
    1.3527    4.2104    2.3394 H   0  0  0  0  0  0  0  0  0  0  0  0
   -0.9817    4.2175    1.3969 H   0  0  0  0  0  0  0  0  0  0  0  0
   -1.5117    2.8057   -0.5137 H   0  0  0  0  0  0  0  0  0  0  0  0
   -2.7144    0.7497   -0.7905 H   0  0  0  0  0  0  0  0  0  0  0  0
   -4.9192    1.9868    3.2788 H   0  0  0  0  0  0  0  0  0  0  0  0
  2  1  1  1
  2  3  1  0
  3  4  2  0
  4  5  1  0
  5  6  2  0
  6  7  1  0
  7  8  1  0
  8  9  1  0
  9 10  1  0
 10 11  2  0
 10 12  1  0
 12 13  1  0
 13 14  2  0
 14 15  1  0
 15 16  1  0
 16 17  2  0
 17 18  1  0
 18 19  1  0
 18 20  2  0
 20 21  1  0
 21 22  2  0
 12 23  1  0
 23 24  2  0
 24 25  1  0
 25 26  2  0
 26 27  1  0
 27 28  2  0
  7 29  2  0
  2 30  1  0
 30 31  1  0
 31 32  1  0
 31 33  2  0
 33 34  1  0
 34 35  2  0
 34  2  1  0
 29  3  1  0
 28  9  1  0
 22 13  1  0
 28 23  1  0
 22 16  1  0
  1 36  1  0
  1 37  1  0
  1 38  1  0
  4 39  1  0
  5 40  1  0
  6 41  1  0
  8 42  1  0
  8 43  1  0
 17 44  1  0
 20 45  1  0
 21 46  1  0
 24 47  1  0
 25 48  1  0
 26 49  1  0
 27 50  1  0
 29 51  1  0
 32 52  1  0
M  END
$$$$
