@<TRIPOS>MOLECULE
*****
 45 46 0 0 0
SMALL
GASTEIGER

@<TRIPOS>ATOM
      1 C           5.9793   -1.0820   -2.2405 C.3     1  UNL1        0.0788
      2 O           5.6595   -0.9365   -0.8921 O.3     1  UNL1       -0.4951
      3 C           4.4310   -0.3911   -0.4706 C.ar    1  UNL1        0.1202
      4 C           3.5058    0.0160   -1.4069 C.ar    1  UNL1       -0.0181
      5 C           2.2948    0.5537   -0.9664 C.ar    1  UNL1       -0.0319
      6 C           2.0169    0.6806    0.3691 C.ar    1  UNL1        0.1057
      7 S           0.4760    1.3646    0.8817 S.O2    1  UNL1        0.0616
      8 O          -0.0111    2.3208   -0.1860 O.2     1  UNL1       -0.1528
      9 O           0.6905    2.1277    2.1494 O.2     1  UNL1       -0.1528
     10 N          -0.7071    0.1448    1.0733 N.3     1  UNL1       -0.1634
     11 C          -0.2983   -0.8213    2.1018 C.3     1  UNL1        0.0991
     12 C           0.4702   -1.9327    1.4965 C.2     1  UNL1        0.2512
     13 O           0.7136   -1.9988    0.2706 O.2     1  UNL1       -0.2723
     14 N           0.9492   -2.9625    2.3377 N.am    1  UNL1       -0.1964
     15 O           1.6626   -4.0145    1.8495 O.3     1  UNL1       -0.2952
     16 C          -1.9274    0.7308    1.5865 C.3     1  UNL1        0.0461
     17 C          -2.8760    1.1798    0.5450 C.ar    1  UNL1       -0.0309
     18 C          -2.9271    2.5098    0.2104 C.ar    1  UNL1       -0.0572
     19 C          -3.8141    2.8884   -0.7891 C.ar    1  UNL1       -0.0607
     20 C          -4.6190    1.9724   -1.4280 C.ar    1  UNL1       -0.0478
     21 C          -4.5831    0.6328   -1.1058 C.ar    1  UNL1        0.0591
     22 C          -5.4401   -0.3338   -1.7873 C.2     1  UNL1        0.3368
     23 O          -5.3729   -1.5440   -1.4603 O.2     1  UNL1       -0.2451
     24 O          -6.3210    0.0615   -2.7832 O.3     1  UNL1       -0.4771
     25 C          -3.7022    0.2667   -0.1161 C.ar    1  UNL1       -0.0433
     26 C           2.9258    0.2807    1.3100 C.ar    1  UNL1       -0.0319
     27 C           4.1380   -0.2575    0.8648 C.ar    1  UNL1       -0.0181
     28 H           5.7820   -0.1797   -2.8433 H       1  UNL1        0.0660
     29 H           5.3734   -1.9014   -2.6703 H       1  UNL1        0.0660
     30 H           7.0685   -1.2814   -2.3190 H       1  UNL1        0.0660
     31 H           3.7524   -0.0962   -2.4513 H       1  UNL1        0.0655
     32 H           1.5833    0.8667   -1.7236 H       1  UNL1        0.0638
     33 H           0.3030   -0.3466    2.8942 H       1  UNL1        0.0540
     34 H          -1.1959   -1.2566    2.5807 H       1  UNL1        0.0540
     35 H           0.7702   -2.9489    3.3662 H       1  UNL1        0.1822
     36 H           1.8548   -3.8949    0.8853 H       1  UNL1        0.2414
     37 H          -2.4425    0.0430    2.2930 H       1  UNL1        0.0493
     38 H          -1.6307    1.6070    2.2365 H       1  UNL1        0.0493
     39 H          -2.3143    3.2618    0.7125 H       1  UNL1        0.0621
     40 H          -3.8490    3.9431   -1.0495 H       1  UNL1        0.0618
     41 H          -5.3187    2.2584   -2.2137 H       1  UNL1        0.0626
     42 H          -6.9317   -0.5697   -3.2646 H       1  UNL1        0.2954
     43 H          -3.6488   -0.7830    0.1626 H       1  UNL1        0.0629
     44 H           2.7049    0.3816    2.3671 H       1  UNL1        0.0638
     45 H           4.8247   -0.5595    1.6310 H       1  UNL1        0.0655
@<TRIPOS>BOND
     1     1     2    1
     2     2     3    1
     3     3     4   ar
     4     4     5   ar
     5     5     6   ar
     6     6     7    1
     7     7     8    2
     8     7     9    2
     9     7    10    1
    10    10    11    1
    11    11    12    1
    12    12    13    2
    13    12    14   am
    14    14    15    1
    15    10    16    1
    16    16    17    1
    17    17    18   ar
    18    18    19   ar
    19    19    20   ar
    20    20    21   ar
    21    21    22    1
    22    22    23    2
    23    22    24    1
    24    21    25   ar
    25     6    26   ar
    26    26    27   ar
    27    27     3   ar
    28    25    17   ar
    29     1    28    1
    30     1    29    1
    31     1    30    1
    32     4    31    1
    33     5    32    1
    34    11    33    1
    35    11    34    1
    36    14    35    1
    37    15    36    1
    38    16    37    1
    39    16    38    1
    40    18    39    1
    41    19    40    1
    42    20    41    1
    43    24    42    1
    44    25    43    1
    45    26    44    1
    46    27    45    1
