@<TRIPOS>MOLECULE
*****
 28 30 0 0 0
SMALL
GASTEIGER

@<TRIPOS>ATOM
      1 O           2.2447   -2.4574   -1.1260 O.2     1  UNL1       -0.2831
      2 C           1.6468   -1.4556   -0.6784 C.ar    1  UNL1        0.2343
      3 C           0.2545   -1.4298   -0.5611 C.ar    1  UNL1        0.2081
      4 O          -0.4386   -2.5590   -0.9607 O.3     1  UNL1       -0.5007
      5 C          -0.3750   -0.3186   -0.0672 C.ar    1  UNL1        0.1806
      6 C          -1.8205   -0.1892    0.0956 C.ar    1  UNL1        0.0211
      7 C          -2.3183    1.0080    0.6139 C.ar    1  UNL1       -0.0510
      8 C          -3.6648    1.2301    0.8064 C.ar    1  UNL1       -0.0611
      9 C          -4.5864    0.2567    0.4868 C.ar    1  UNL1       -0.0617
     10 C          -4.1269   -0.9279   -0.0235 C.ar    1  UNL1       -0.0611
     11 C          -2.7606   -1.1220   -0.2062 C.ar    1  UNL1       -0.0510
     12 O           0.4063    0.7011    0.2817 O.2     1  UNL1       -0.4509
     13 C           1.6860    0.7242    0.1927 C.ar    1  UNL1        0.1395
     14 C           2.4451    1.8349    0.5798 C.ar    1  UNL1       -0.0186
     15 C           3.8176    1.8464    0.4790 C.ar    1  UNL1       -0.0582
     16 C           4.5105    0.7652   -0.0077 C.ar    1  UNL1       -0.0609
     17 C           3.7712   -0.3323   -0.3910 C.ar    1  UNL1       -0.0473
     18 C           2.3820   -0.3565   -0.2941 C.ar    1  UNL1        0.0677
     19 H          -0.5854   -2.7984   -1.9344 H       1  UNL1        0.2924
     20 H          -1.6139    1.7935    0.8748 H       1  UNL1        0.0625
     21 H          -4.0362    2.1589    1.2073 H       1  UNL1        0.0618
     22 H          -5.6457    0.4232    0.6349 H       1  UNL1        0.0618
     23 H          -4.8542   -1.6802   -0.2693 H       1  UNL1        0.0618
     24 H          -2.4674   -2.0571   -0.6037 H       1  UNL1        0.0625
     25 H           1.8857    2.6759    0.9600 H       1  UNL1        0.0654
     26 H           4.3988    2.7162    0.7832 H       1  UNL1        0.0619
     27 H           5.5857    0.7676   -0.0893 H       1  UNL1        0.0618
     28 H           4.2591   -1.2178   -0.7836 H       1  UNL1        0.0626
@<TRIPOS>BOND
     1     1     2    2
     2     2     3   ar
     3     3     4    1
     4     3     5   ar
     5     5     6    1
     6     6     7   ar
     7     7     8   ar
     8     8     9   ar
     9     9    10   ar
    10    10    11   ar
    11     5    12   ar
    12    12    13   ar
    13    13    14   ar
    14    14    15   ar
    15    15    16   ar
    16    16    17   ar
    17    17    18   ar
    18    18     2   ar
    19    11     6   ar
    20    18    13   ar
    21     4    19    1
    22     7    20    1
    23     8    21    1
    24     9    22    1
    25    10    23    1
    26    11    24    1
    27    14    25    1
    28    15    26    1
    29    16    27    1
    30    17    28    1
