
     RDKit          3D

 28 30  0  0  0  0  0  0  0  0999 V2000
    2.2447   -2.4574   -1.1260 O   0  0  0  0  0  0  0  0  0  0  0  0
    1.6468   -1.4556   -0.6784 C   0  0  0  0  0  0  0  0  0  0  0  0
    0.2545   -1.4298   -0.5611 C   0  0  0  0  0  0  0  0  0  0  0  0
   -0.4386   -2.5590   -0.9607 O   0  0  0  0  0  0  0  0  0  0  0  0
   -0.3750   -0.3186   -0.0672 C   0  0  0  0  0  0  0  0  0  0  0  0
   -1.8205   -0.1892    0.0956 C   0  0  0  0  0  0  0  0  0  0  0  0
   -2.3183    1.0080    0.6139 C   0  0  0  0  0  0  0  0  0  0  0  0
   -3.6648    1.2301    0.8064 C   0  0  0  0  0  0  0  0  0  0  0  0
   -4.5864    0.2567    0.4868 C   0  0  0  0  0  0  0  0  0  0  0  0
   -4.1269   -0.9279   -0.0235 C   0  0  0  0  0  0  0  0  0  0  0  0
   -2.7606   -1.1220   -0.2062 C   0  0  0  0  0  0  0  0  0  0  0  0
    0.4063    0.7011    0.2817 O   0  0  0  0  0  0  0  0  0  0  0  0
    1.6860    0.7242    0.1927 C   0  0  0  0  0  0  0  0  0  0  0  0
    2.4451    1.8349    0.5798 C   0  0  0  0  0  0  0  0  0  0  0  0
    3.8176    1.8464    0.4790 C   0  0  0  0  0  0  0  0  0  0  0  0
    4.5105    0.7652   -0.0077 C   0  0  0  0  0  0  0  0  0  0  0  0
    3.7712   -0.3323   -0.3910 C   0  0  0  0  0  0  0  0  0  0  0  0
    2.3820   -0.3565   -0.2941 C   0  0  0  0  0  0  0  0  0  0  0  0
   -0.5854   -2.7984   -1.9344 H   0  0  0  0  0  0  0  0  0  0  0  0
   -1.6139    1.7935    0.8748 H   0  0  0  0  0  0  0  0  0  0  0  0
   -4.0362    2.1589    1.2073 H   0  0  0  0  0  0  0  0  0  0  0  0
   -5.6457    0.4232    0.6349 H   0  0  0  0  0  0  0  0  0  0  0  0
   -4.8542   -1.6802   -0.2693 H   0  0  0  0  0  0  0  0  0  0  0  0
   -2.4674   -2.0571   -0.6037 H   0  0  0  0  0  0  0  0  0  0  0  0
    1.8857    2.6759    0.9600 H   0  0  0  0  0  0  0  0  0  0  0  0
    4.3988    2.7162    0.7832 H   0  0  0  0  0  0  0  0  0  0  0  0
    5.5857    0.7676   -0.0893 H   0  0  0  0  0  0  0  0  0  0  0  0
    4.2591   -1.2178   -0.7836 H   0  0  0  0  0  0  0  0  0  0  0  0
  1  2  2  0
  2  3  1  0
  3  4  1  0
  3  5  2  0
  5  6  1  0
  6  7  2  0
  7  8  1  0
  8  9  2  0
  9 10  1  0
 10 11  2  0
  5 12  1  0
 12 13  1  0
 13 14  2  0
 14 15  1  0
 15 16  2  0
 16 17  1  0
 17 18  2  0
 18  2  1  0
 11  6  1  0
 18 13  1  0
  4 19  1  0
  7 20  1  0
  8 21  1  0
  9 22  1  0
 10 23  1  0
 11 24  1  0
 14 25  1  0
 15 26  1  0
 16 27  1  0
 17 28  1  0
M  END
$$$$
