@<TRIPOS>MOLECULE
*****
 29 29 0 0 0
SMALL
GASTEIGER

@<TRIPOS>ATOM
      1 C           2.4950   -1.6522   -0.4012 C.3     1  UNL1       -0.0365
      2 C           2.2691   -0.1982   -0.2335 C.ar    1  UNL1       -0.0107
      3 C           3.3622    0.6553   -0.0443 C.ar    1  UNL1       -0.0542
      4 C           3.0896    1.9972    0.1058 C.ar    1  UNL1       -0.0432
      5 C           1.7955    2.4524    0.0679 C.ar    1  UNL1        0.0297
      6 N           0.7640    1.6116   -0.1151 N.ar    1  UNL1       -0.2402
      7 C           0.9831    0.2850   -0.2673 C.ar    1  UNL1        0.1227
      8 N          -0.0773   -0.6428   -0.4631 N.pl3   1  UNL1       -0.3060
      9 C          -1.4323   -0.1361   -0.4990 C.3     1  UNL1        0.2255
     10 P          -1.8841    0.6891    1.0469 P.3     1  UNL1        0.3597
     11 O          -3.3028    0.3861    1.4615 O.2     1  UNL1       -0.2562
     12 O          -1.6044    2.3468    0.8883 O.3     1  UNL1       -0.3224
     13 O          -0.8329    0.1301    2.2661 O.3     1  UNL1       -0.3224
     14 P          -2.5476   -1.4736   -0.9095 P.3     1  UNL1        0.3597
     15 O          -2.4641   -1.7162   -2.4190 O.2     1  UNL1       -0.2562
     16 O          -4.1621   -1.1173   -0.5727 O.3     1  UNL1       -0.3224
     17 O          -2.1441   -2.9275   -0.1451 O.3     1  UNL1       -0.3224
     18 H           2.2581   -2.2331    0.5221 H       1  UNL1        0.0279
     19 H           1.9483   -2.0561   -1.2782 H       1  UNL1        0.0279
     20 H           3.5709   -1.8009   -0.6249 H       1  UNL1        0.0279
     21 H           4.3812    0.2515   -0.0202 H       1  UNL1        0.0622
     22 H           3.8900    2.6996    0.2542 H       1  UNL1        0.0633
     23 H           1.6120    3.5010    0.1873 H       1  UNL1        0.0830
     24 H           0.0758   -1.6598   -0.5800 H       1  UNL1        0.1489
     25 H          -1.5440    0.6351   -1.3167 H       1  UNL1        0.0754
     26 H          -2.4384    2.8839    0.9545 H       1  UNL1        0.2198
     27 H          -0.8000    0.7804    3.0322 H       1  UNL1        0.2198
     28 H          -4.3413   -0.1438   -0.5708 H       1  UNL1        0.2198
     29 H          -2.9194   -3.5477   -0.3259 H       1  UNL1        0.2198
@<TRIPOS>BOND
     1     1     2    1
     2     2     3   ar
     3     3     4   ar
     4     4     5   ar
     5     5     6   ar
     6     6     7   ar
     7     7     8    1
     8     8     9    1
     9     9    10    1
    10    10    11    2
    11    10    12    1
    12    10    13    1
    13     9    14    1
    14    14    15    2
    15    14    16    1
    16    14    17    1
    17     7     2   ar
    18     1    18    1
    19     1    19    1
    20     1    20    1
    21     3    21    1
    22     4    22    1
    23     5    23    1
    24     8    24    1
    25     9    25    1
    26    12    26    1
    27    13    27    1
    28    16    28    1
    29    17    29    1
