
     RDKit          3D

 29 29  0  0  0  0  0  0  0  0999 V2000
    2.4950   -1.6522   -0.4012 C   0  0  0  0  0  0  0  0  0  0  0  0
    2.2691   -0.1982   -0.2335 C   0  0  0  0  0  0  0  0  0  0  0  0
    3.3622    0.6553   -0.0443 C   0  0  0  0  0  0  0  0  0  0  0  0
    3.0896    1.9972    0.1058 C   0  0  0  0  0  0  0  0  0  0  0  0
    1.7955    2.4524    0.0679 C   0  0  0  0  0  0  0  0  0  0  0  0
    0.7640    1.6116   -0.1151 N   0  0  0  0  0  0  0  0  0  0  0  0
    0.9831    0.2850   -0.2673 C   0  0  0  0  0  0  0  0  0  0  0  0
   -0.0773   -0.6428   -0.4631 N   0  0  0  0  0  0  0  0  0  0  0  0
   -1.4323   -0.1361   -0.4990 C   0  0  0  0  0  0  0  0  0  0  0  0
   -1.8841    0.6891    1.0469 P   0  0  0  0  0  5  0  0  0  0  0  0
   -3.3028    0.3861    1.4615 O   0  0  0  0  0  0  0  0  0  0  0  0
   -1.6044    2.3468    0.8883 O   0  0  0  0  0  0  0  0  0  0  0  0
   -0.8329    0.1301    2.2661 O   0  0  0  0  0  0  0  0  0  0  0  0
   -2.5476   -1.4736   -0.9095 P   0  0  0  0  0  5  0  0  0  0  0  0
   -2.4641   -1.7162   -2.4190 O   0  0  0  0  0  0  0  0  0  0  0  0
   -4.1621   -1.1173   -0.5727 O   0  0  0  0  0  0  0  0  0  0  0  0
   -2.1441   -2.9275   -0.1451 O   0  0  0  0  0  0  0  0  0  0  0  0
    2.2581   -2.2331    0.5221 H   0  0  0  0  0  0  0  0  0  0  0  0
    1.9483   -2.0561   -1.2782 H   0  0  0  0  0  0  0  0  0  0  0  0
    3.5709   -1.8009   -0.6249 H   0  0  0  0  0  0  0  0  0  0  0  0
    4.3812    0.2515   -0.0202 H   0  0  0  0  0  0  0  0  0  0  0  0
    3.8900    2.6996    0.2542 H   0  0  0  0  0  0  0  0  0  0  0  0
    1.6120    3.5010    0.1873 H   0  0  0  0  0  0  0  0  0  0  0  0
    0.0758   -1.6598   -0.5800 H   0  0  0  0  0  0  0  0  0  0  0  0
   -1.5440    0.6351   -1.3167 H   0  0  0  0  0  0  0  0  0  0  0  0
   -2.4384    2.8839    0.9545 H   0  0  0  0  0  0  0  0  0  0  0  0
   -0.8000    0.7804    3.0322 H   0  0  0  0  0  0  0  0  0  0  0  0
   -4.3413   -0.1438   -0.5708 H   0  0  0  0  0  0  0  0  0  0  0  0
   -2.9194   -3.5477   -0.3259 H   0  0  0  0  0  0  0  0  0  0  0  0
  1  2  1  0
  2  3  2  0
  3  4  1  0
  4  5  2  0
  5  6  1  0
  6  7  2  0
  7  8  1  0
  8  9  1  0
  9 10  1  0
 10 11  2  0
 10 12  1  0
 10 13  1  0
  9 14  1  0
 14 15  2  0
 14 16  1  0
 14 17  1  0
  7  2  1  0
  1 18  1  0
  1 19  1  0
  1 20  1  0
  3 21  1  0
  4 22  1  0
  5 23  1  0
  8 24  1  0
  9 25  1  0
 12 26  1  0
 13 27  1  0
 16 28  1  0
 17 29  1  0
M  END
$$$$
