@<TRIPOS>MOLECULE
*****
 40 42 0 0 0
SMALL
GASTEIGER

@<TRIPOS>ATOM
      1 C          -0.7420   -3.2677    0.3925 C.3     1  UNL1        0.0124
      2 C          -1.6991   -2.2926   -0.1174 C.2     1  UNL1        0.2130
      3 O          -2.5333   -2.7454   -0.9883 O.2     1  UNL1       -0.2759
      4 N          -1.7304   -0.9448    0.2986 N.am    1  UNL1       -0.2931
      5 C          -0.7953   -0.4652    1.2375 C.3     1  UNL1        0.0401
      6 C           0.4852    0.0781    0.7831 C.ar    1  UNL1       -0.0295
      7 C           0.6991    1.3913    0.4292 C.ar    1  UNL1       -0.0565
      8 C           1.9306    1.8509    0.0318 C.ar    1  UNL1       -0.0537
      9 C           3.0205    1.0156   -0.0330 C.ar    1  UNL1       -0.0179
     10 C           4.2605    1.4916   -0.4365 C.ar    1  UNL1       -0.0540
     11 C           5.3187    0.6146   -0.4841 C.ar    1  UNL1       -0.0612
     12 C           5.1401   -0.7041   -0.1368 C.ar    1  UNL1       -0.0612
     13 C           3.9230   -1.1828    0.2619 C.ar    1  UNL1       -0.0540
     14 C           2.8445   -0.2983    0.3126 C.ar    1  UNL1       -0.0176
     15 C           1.5885   -0.7375    0.7114 C.ar    1  UNL1       -0.0493
     16 C          -2.8221   -0.1620   -0.2713 C.3     1  UNL1        0.0399
     17 C          -2.4249    0.9620   -1.1545 C.3     1  UNL1       -0.0205
     18 C          -3.0509    2.2126   -0.5230 C.3     1  UNL1       -0.0023
     19 N          -4.2835    1.6322    0.0368 N.3     1  UNL1       -0.3142
     20 C          -3.7371    0.4470    0.7204 C.3     1  UNL1        0.0146
     21 H          -1.2314   -4.2903    0.3898 H       1  UNL1        0.0323
     22 H          -0.4178   -3.1311    1.4378 H       1  UNL1        0.0323
     23 H           0.1919   -3.3240   -0.2175 H       1  UNL1        0.0323
     24 H          -0.5429   -1.2685    1.9937 H       1  UNL1        0.0514
     25 H          -1.2238    0.3366    1.9113 H       1  UNL1        0.0514
     26 H          -0.1454    2.0626    0.4759 H       1  UNL1        0.0621
     27 H           2.0924    2.9038   -0.2497 H       1  UNL1        0.0624
     28 H           4.3496    2.5372   -0.6995 H       1  UNL1        0.0624
     29 H           6.2954    0.9698   -0.7974 H       1  UNL1        0.0618
     30 H           5.9797   -1.3891   -0.1771 H       1  UNL1        0.0618
     31 H           3.7702   -2.2150    0.5369 H       1  UNL1        0.0624
     32 H           1.5417   -1.7850    0.9827 H       1  UNL1        0.0627
     33 H          -3.4664   -0.8313   -0.9284 H       1  UNL1        0.0513
     34 H          -2.9496    0.9160   -2.1696 H       1  UNL1        0.0296
     35 H          -1.3833    1.0774   -1.4052 H       1  UNL1        0.0296
     36 H          -3.3688    2.9434   -1.2851 H       1  UNL1        0.0425
     37 H          -2.4245    2.6465    0.2503 H       1  UNL1        0.0425
     38 H          -4.5969    2.3103    0.7705 H       1  UNL1        0.1220
     39 H          -4.6083   -0.2008    0.9315 H       1  UNL1        0.0442
     40 H          -3.2535    0.8358    1.6326 H       1  UNL1        0.0442
@<TRIPOS>BOND
     1     1     2    1
     2     2     3    2
     3     2     4   am
     4     4     5    1
     5     5     6    1
     6     6     7   ar
     7     7     8   ar
     8     8     9   ar
     9     9    10   ar
    10    10    11   ar
    11    11    12   ar
    12    12    13   ar
    13    13    14   ar
    14    14    15   ar
    15     4    16    1
    16    16    17    1
    17    17    18    1
    18    18    19    1
    19    19    20    1
    20    15     6   ar
    21    20    16    1
    22    14     9   ar
    23     1    21    1
    24     1    22    1
    25     1    23    1
    26     5    24    1
    27     5    25    1
    28     7    26    1
    29     8    27    1
    30    10    28    1
    31    11    29    1
    32    12    30    1
    33    13    31    1
    34    15    32    1
    35    16    33    1
    36    17    34    1
    37    17    35    1
    38    18    36    1
    39    18    37    1
    40    19    38    1
    41    20    39    1
    42    20    40    1
