
     RDKit          3D

 40 42  0  0  0  0  0  0  0  0999 V2000
   -0.7420   -3.2677    0.3925 C   0  0  0  0  0  0  0  0  0  0  0  0
   -1.6991   -2.2926   -0.1174 C   0  0  0  0  0  0  0  0  0  0  0  0
   -2.5333   -2.7454   -0.9883 O   0  0  0  0  0  0  0  0  0  0  0  0
   -1.7304   -0.9448    0.2986 N   0  0  0  0  0  0  0  0  0  0  0  0
   -0.7953   -0.4652    1.2375 C   0  0  0  0  0  0  0  0  0  0  0  0
    0.4852    0.0781    0.7831 C   0  0  0  0  0  0  0  0  0  0  0  0
    0.6991    1.3913    0.4292 C   0  0  0  0  0  0  0  0  0  0  0  0
    1.9306    1.8509    0.0318 C   0  0  0  0  0  0  0  0  0  0  0  0
    3.0205    1.0156   -0.0330 C   0  0  0  0  0  0  0  0  0  0  0  0
    4.2605    1.4916   -0.4365 C   0  0  0  0  0  0  0  0  0  0  0  0
    5.3187    0.6146   -0.4841 C   0  0  0  0  0  0  0  0  0  0  0  0
    5.1401   -0.7041   -0.1368 C   0  0  0  0  0  0  0  0  0  0  0  0
    3.9230   -1.1828    0.2619 C   0  0  0  0  0  0  0  0  0  0  0  0
    2.8445   -0.2983    0.3126 C   0  0  0  0  0  0  0  0  0  0  0  0
    1.5885   -0.7375    0.7114 C   0  0  0  0  0  0  0  0  0  0  0  0
   -2.8221   -0.1620   -0.2713 C   0  0  2  0  0  0  0  0  0  0  0  0
   -2.4249    0.9620   -1.1545 C   0  0  0  0  0  0  0  0  0  0  0  0
   -3.0509    2.2126   -0.5230 C   0  0  0  0  0  0  0  0  0  0  0  0
   -4.2835    1.6322    0.0368 N   0  0  0  0  0  0  0  0  0  0  0  0
   -3.7371    0.4470    0.7204 C   0  0  0  0  0  0  0  0  0  0  0  0
   -1.2314   -4.2903    0.3898 H   0  0  0  0  0  0  0  0  0  0  0  0
   -0.4178   -3.1311    1.4378 H   0  0  0  0  0  0  0  0  0  0  0  0
    0.1919   -3.3240   -0.2175 H   0  0  0  0  0  0  0  0  0  0  0  0
   -0.5429   -1.2685    1.9937 H   0  0  0  0  0  0  0  0  0  0  0  0
   -1.2238    0.3366    1.9113 H   0  0  0  0  0  0  0  0  0  0  0  0
   -0.1454    2.0626    0.4759 H   0  0  0  0  0  0  0  0  0  0  0  0
    2.0924    2.9038   -0.2497 H   0  0  0  0  0  0  0  0  0  0  0  0
    4.3496    2.5372   -0.6995 H   0  0  0  0  0  0  0  0  0  0  0  0
    6.2954    0.9698   -0.7974 H   0  0  0  0  0  0  0  0  0  0  0  0
    5.9797   -1.3891   -0.1771 H   0  0  0  0  0  0  0  0  0  0  0  0
    3.7702   -2.2150    0.5369 H   0  0  0  0  0  0  0  0  0  0  0  0
    1.5417   -1.7850    0.9827 H   0  0  0  0  0  0  0  0  0  0  0  0
   -3.4664   -0.8313   -0.9284 H   0  0  0  0  0  0  0  0  0  0  0  0
   -2.9496    0.9160   -2.1696 H   0  0  0  0  0  0  0  0  0  0  0  0
   -1.3833    1.0774   -1.4052 H   0  0  0  0  0  0  0  0  0  0  0  0
   -3.3688    2.9434   -1.2851 H   0  0  0  0  0  0  0  0  0  0  0  0
   -2.4245    2.6465    0.2503 H   0  0  0  0  0  0  0  0  0  0  0  0
   -4.5969    2.3103    0.7705 H   0  0  0  0  0  0  0  0  0  0  0  0
   -4.6083   -0.2008    0.9315 H   0  0  0  0  0  0  0  0  0  0  0  0
   -3.2535    0.8358    1.6326 H   0  0  0  0  0  0  0  0  0  0  0  0
  1  2  1  0
  2  3  2  0
  2  4  1  0
  4  5  1  0
  5  6  1  0
  6  7  2  0
  7  8  1  0
  8  9  2  0
  9 10  1  0
 10 11  2  0
 11 12  1  0
 12 13  2  0
 13 14  1  0
 14 15  2  0
  4 16  1  0
 16 17  1  0
 17 18  1  0
 18 19  1  0
 19 20  1  0
 15  6  1  0
 20 16  1  0
 14  9  1  0
  1 21  1  0
  1 22  1  0
  1 23  1  0
  5 24  1  0
  5 25  1  0
  7 26  1  0
  8 27  1  0
 10 28  1  0
 11 29  1  0
 12 30  1  0
 13 31  1  0
 15 32  1  0
 16 33  1  6
 17 34  1  0
 17 35  1  0
 18 36  1  0
 18 37  1  0
 19 38  1  0
 20 39  1  0
 20 40  1  0
M  END
$$$$
