
     RDKit          3D

 42 45  0  0  0  0  0  0  0  0999 V2000
    3.8933   -1.5805   -2.0296 N   0  0  0  0  0  0  0  0  0  0  0  0
    4.0609   -0.2973   -1.3523 C   0  0  0  0  0  0  0  0  0  0  0  0
    3.5252   -0.3616    0.0369 C   0  0  0  0  0  0  0  0  0  0  0  0
    4.2827   -0.7321    1.1371 C   0  0  0  0  0  0  0  0  0  0  0  0
    3.4633   -0.6684    2.1892 N   0  0  0  0  0  0  0  0  0  0  0  0
    2.2447   -0.2756    1.7715 C   0  0  0  0  0  0  0  0  0  0  0  0
    1.0786   -0.0662    2.4773 C   0  0  0  0  0  0  0  0  0  0  0  0
   -0.0316    0.3422    1.7579 C   0  0  0  0  0  0  0  0  0  0  0  0
   -0.0040    0.5386    0.4002 C   0  0  0  0  0  0  0  0  0  0  0  0
   -1.1438    0.9603   -0.4053 C   0  0  0  0  0  0  0  0  0  0  0  0
   -2.2864    0.2468   -0.6248 C   0  0  0  0  0  0  0  0  0  0  0  0
   -2.5986   -1.0822   -0.0792 C   0  0  0  0  0  0  0  0  0  0  0  0
   -2.9788   -1.3045    1.2242 C   0  0  0  0  0  0  0  0  0  0  0  0
   -3.2569   -2.5845    1.6983 C   0  0  0  0  0  0  0  0  0  0  0  0
   -3.1604   -3.6828    0.8711 C   0  0  0  0  0  0  0  0  0  0  0  0
   -3.4338   -4.9297    1.3415 F   0  0  0  0  0  0  0  0  0  0  0  0
   -2.7797   -3.4590   -0.4350 C   0  0  0  0  0  0  0  0  0  0  0  0
   -2.5058   -2.1887   -0.8974 C   0  0  0  0  0  0  0  0  0  0  0  0
   -3.0996    0.9823   -1.4386 N   0  0  0  0  0  0  0  0  0  0  0  0
   -2.4798    2.1277   -1.7206 C   0  0  0  0  0  0  0  0  0  0  0  0
   -1.2769    2.1236   -1.0899 N   0  0  0  0  0  0  0  0  0  0  0  0
   -0.2637    3.1568   -1.1036 C   0  0  0  0  0  0  0  0  0  0  0  0
   -0.5248    4.1187    0.0147 C   0  0  0  0  0  0  0  0  0  0  0  0
   -0.4821    3.4426    1.2082 F   0  0  0  0  0  0  0  0  0  0  0  0
   -1.7757    4.6902   -0.1497 F   0  0  0  0  0  0  0  0  0  0  0  0
    1.1756    0.3153   -0.2360 N   0  0  0  0  0  0  0  0  0  0  0  0
    2.2600   -0.0783    0.4314 N   0  0  0  0  0  0  0  0  0  0  0  0
    4.7325   -2.1879   -1.8861 H   0  0  0  0  0  0  0  0  0  0  0  0
    3.0151   -1.9983   -1.7069 H   0  0  0  0  0  0  0  0  0  0  0  0
    5.1246   -0.0409   -1.3939 H   0  0  0  0  0  0  0  0  0  0  0  0
    3.4994    0.4639   -1.9639 H   0  0  0  0  0  0  0  0  0  0  0  0
    5.3274   -1.0195    1.1674 H   0  0  0  0  0  0  0  0  0  0  0  0
    1.0163   -0.2127    3.5627 H   0  0  0  0  0  0  0  0  0  0  0  0
   -0.9365    0.5110    2.2933 H   0  0  0  0  0  0  0  0  0  0  0  0
   -3.0641   -0.4489    1.8833 H   0  0  0  0  0  0  0  0  0  0  0  0
   -3.5548   -2.7347    2.7314 H   0  0  0  0  0  0  0  0  0  0  0  0
   -2.6998   -4.3131   -1.0973 H   0  0  0  0  0  0  0  0  0  0  0  0
   -2.2026   -2.0049   -1.9357 H   0  0  0  0  0  0  0  0  0  0  0  0
   -2.8406    2.9293   -2.3332 H   0  0  0  0  0  0  0  0  0  0  0  0
    0.7113    2.6806   -0.9130 H   0  0  0  0  0  0  0  0  0  0  0  0
   -0.2314    3.6545   -2.0984 H   0  0  0  0  0  0  0  0  0  0  0  0
    0.2016    4.9679   -0.0113 H   0  0  0  0  0  0  0  0  0  0  0  0
  1  2  1  0
  2  3  1  0
  3  4  2  0
  4  5  1  0
  5  6  2  0
  6  7  1  0
  7  8  2  0
  8  9  1  0
  9 10  1  0
 10 11  2  0
 11 12  1  0
 12 13  2  0
 13 14  1  0
 14 15  2  0
 15 16  1  0
 15 17  1  0
 17 18  2  0
 11 19  1  0
 19 20  2  0
 20 21  1  0
 21 22  1  0
 22 23  1  0
 23 24  1  0
 23 25  1  0
  9 26  2  0
 26 27  1  0
 27  3  1  0
 27  6  1  0
 21 10  1  0
 18 12  1  0
  1 28  1  0
  1 29  1  0
  2 30  1  0
  2 31  1  0
  4 32  1  0
  7 33  1  0
  8 34  1  0
 13 35  1  0
 14 36  1  0
 17 37  1  0
 18 38  1  0
 20 39  1  0
 22 40  1  0
 22 41  1  0
 23 42  1  0
M  END
$$$$
