@<TRIPOS>MOLECULE
*****
 42 45 0 0 0
SMALL
GASTEIGER

@<TRIPOS>ATOM
      1 N           3.8933   -1.5805   -2.0296 N.3     1  UNL1       -0.3249
      2 C           4.0609   -0.2973   -1.3523 C.3     1  UNL1        0.0376
      3 C           3.5252   -0.3616    0.0369 C.ar    1  UNL1        0.0767
      4 C           4.2827   -0.7321    1.1371 C.ar    1  UNL1        0.0526
      5 N           3.4633   -0.6684    2.1892 N.ar    1  UNL1       -0.2343
      6 C           2.2447   -0.2756    1.7715 C.ar    1  UNL1        0.1544
      7 C           1.0786   -0.0662    2.4773 C.ar    1  UNL1       -0.0153
      8 C          -0.0316    0.3422    1.7579 C.ar    1  UNL1       -0.0290
      9 C          -0.0040    0.5386    0.4002 C.ar    1  UNL1        0.1103
     10 C          -1.1438    0.9603   -0.4053 C.ar    1  UNL1        0.0968
     11 C          -2.2864    0.2468   -0.6248 C.ar    1  UNL1        0.0982
     12 C          -2.5986   -1.0822   -0.0792 C.ar    1  UNL1        0.0027
     13 C          -2.9788   -1.3045    1.2242 C.ar    1  UNL1       -0.0498
     14 C          -3.2569   -2.5845    1.6983 C.ar    1  UNL1       -0.0258
     15 C          -3.1604   -3.6828    0.8711 C.ar    1  UNL1        0.1234
     16 F          -3.4338   -4.9297    1.3415 F       1  UNL1       -0.2055
     17 C          -2.7797   -3.4590   -0.4350 C.ar    1  UNL1       -0.0258
     18 C          -2.5058   -2.1887   -0.8974 C.ar    1  UNL1       -0.0498
     19 N          -3.0996    0.9823   -1.4386 N.ar    1  UNL1       -0.2351
     20 C          -2.4798    2.1277   -1.7206 C.ar    1  UNL1        0.0973
     21 N          -1.2769    2.1236   -1.0899 N.ar    1  UNL1       -0.3229
     22 C          -0.2637    3.1568   -1.1036 C.3     1  UNL1        0.0852
     23 C          -0.5248    4.1187    0.0147 C.3     1  UNL1        0.2569
     24 F          -0.4821    3.4426    1.2082 F       1  UNL1       -0.2073
     25 F          -1.7757    4.6902   -0.1497 F       1  UNL1       -0.2073
     26 N           1.1756    0.3153   -0.2360 N.ar    1  UNL1       -0.1632
     27 N           2.2600   -0.0783    0.4314 N.ar    1  UNL1       -0.2154
     28 H           4.7325   -2.1879   -1.8861 H       1  UNL1        0.1186
     29 H           3.0151   -1.9983   -1.7069 H       1  UNL1        0.1186
     30 H           5.1246   -0.0409   -1.3939 H       1  UNL1        0.0487
     31 H           3.4994    0.4639   -1.9639 H       1  UNL1        0.0487
     32 H           5.3274   -1.0195    1.1674 H       1  UNL1        0.0849
     33 H           1.0163   -0.2127    3.5627 H       1  UNL1        0.0655
     34 H          -0.9365    0.5110    2.2933 H       1  UNL1        0.0641
     35 H          -3.0641   -0.4489    1.8833 H       1  UNL1        0.0625
     36 H          -3.5548   -2.7347    2.7314 H       1  UNL1        0.0646
     37 H          -2.6998   -4.3131   -1.0973 H       1  UNL1        0.0646
     38 H          -2.2026   -2.0049   -1.9357 H       1  UNL1        0.0625
     39 H          -2.8406    2.9293   -2.3332 H       1  UNL1        0.1029
     40 H           0.7113    2.6806   -0.9130 H       1  UNL1        0.0548
     41 H          -0.2314    3.6545   -2.0984 H       1  UNL1        0.0548
     42 H           0.2016    4.9679   -0.0113 H       1  UNL1        0.1037
@<TRIPOS>BOND
     1     1     2    1
     2     2     3    1
     3     3     4   ar
     4     4     5   ar
     5     5     6   ar
     6     6     7   ar
     7     7     8   ar
     8     8     9   ar
     9     9    10    1
    10    10    11   ar
    11    11    12    1
    12    12    13   ar
    13    13    14   ar
    14    14    15   ar
    15    15    16    1
    16    15    17   ar
    17    17    18   ar
    18    11    19   ar
    19    19    20   ar
    20    20    21   ar
    21    21    22    1
    22    22    23    1
    23    23    24    1
    24    23    25    1
    25     9    26   ar
    26    26    27   ar
    27    27     3   ar
    28    27     6   ar
    29    21    10   ar
    30    18    12   ar
    31     1    28    1
    32     1    29    1
    33     2    30    1
    34     2    31    1
    35     4    32    1
    36     7    33    1
    37     8    34    1
    38    13    35    1
    39    14    36    1
    40    17    37    1
    41    18    38    1
    42    20    39    1
    43    22    40    1
    44    22    41    1
    45    23    42    1
