@<TRIPOS>MOLECULE
*****
 58 62 0 0 0
SMALL
GASTEIGER

@<TRIPOS>ATOM
      1 C          -8.8688    1.6067    1.6042 C.3     1  UNL1        0.0001
      2 N          -7.4797    1.2003    1.5440 N.am    1  UNL1       -0.3172
      3 C          -6.5847    1.7751    0.6142 C.2     1  UNL1        0.2296
      4 O          -7.0321    2.6559   -0.1641 O.2     1  UNL1       -0.2743
      5 C          -5.1354    1.3666    0.5330 C.3     1  UNL1        0.1052
      6 C          -4.3473    2.0425   -0.4953 C.3     1  UNL1       -0.0220
      7 C          -4.7416    0.5381   -0.5783 C.3     1  UNL1        0.0134
      8 C          -3.6007   -0.3788   -0.5169 C.3     1  UNL1        0.0935
      9 C          -4.0506   -1.6843   -1.2137 C.3     1  UNL1       -0.0351
     10 C          -2.4870    0.1151   -1.4069 C.ar    1  UNL1        0.0158
     11 C          -1.1778    0.0998   -0.9712 C.ar    1  UNL1       -0.0463
     12 C          -0.2073    0.5485   -1.8168 C.ar    1  UNL1       -0.0217
     13 C           1.2121    0.5689   -1.4817 C.2     1  UNL1       -0.0172
     14 C           1.8082   -0.3687   -0.7922 C.2     1  UNL1        0.1492
     15 F           1.0000   -1.4054   -0.3873 F       1  UNL1       -0.2032
     16 C           3.2080   -0.4101   -0.4390 C.ar    1  UNL1        0.0990
     17 C           3.6910   -1.4702    0.2885 C.ar    1  UNL1       -0.0323
     18 C           5.0343   -1.5518    0.6345 C.ar    1  UNL1       -0.0428
     19 C           5.9141   -0.5367    0.2358 C.ar    1  UNL1        0.0430
     20 C           7.3074   -0.6125    0.5660 C.1     1  UNL1       -0.0645
     21 C           8.5047   -0.6566    0.8508 C.1     1  UNL1       -0.0936
     22 C           9.9264   -0.7266    1.1705 C.3     1  UNL1        0.0211
     23 C          10.3843   -1.7327    2.1983 C.3     1  UNL1       -0.0382
     24 C          10.7166   -1.9470    0.7455 C.3     1  UNL1       -0.0382
     25 C           5.3809    0.5005   -0.4881 C.ar    1  UNL1        0.0437
     26 N           4.0645    0.5436   -0.8055 N.ar    1  UNL1       -0.2515
     27 C          -0.5566    1.0045   -3.0793 C.ar    1  UNL1       -0.0518
     28 C          -1.8580    1.0258   -3.5271 C.ar    1  UNL1       -0.0255
     29 C          -2.8491    0.5637   -2.6554 C.ar    1  UNL1        0.1289
     30 F          -4.1475    0.5824   -3.1033 F       1  UNL1       -0.2051
     31 N          -3.1178   -0.8120    0.7438 N.2     1  UNL1       -0.2521
     32 C          -3.3404   -0.3979    1.9019 C.2     1  UNL1        0.1485
     33 N          -2.7319   -1.0022    3.0185 N.pl3   1  UNL1       -0.3380
     34 S          -4.4424    0.9776    2.1526 S.3     1  UNL1       -0.0746
     35 H          -8.9411    2.5766    2.1302 H       1  UNL1        0.0426
     36 H          -9.2609    1.7926    0.5617 H       1  UNL1        0.0426
     37 H          -9.5152    0.8373    2.0459 H       1  UNL1        0.0426
     38 H          -7.1391    0.4626    2.2068 H       1  UNL1        0.1484
     39 H          -4.8158    2.7280   -1.2046 H       1  UNL1        0.0287
     40 H          -3.2974    2.2761   -0.2486 H       1  UNL1        0.0287
     41 H          -5.5533    0.3521   -1.3527 H       1  UNL1        0.0346
     42 H          -4.7831   -2.1833   -0.5396 H       1  UNL1        0.0256
     43 H          -3.1746   -2.3758   -1.2722 H       1  UNL1        0.0256
     44 H          -4.5412   -1.4956   -2.1651 H       1  UNL1        0.0256
     45 H          -0.9340   -0.2526    0.0006 H       1  UNL1        0.0628
     46 H           1.7939    1.4073   -1.8258 H       1  UNL1        0.0653
     47 H           3.0128   -2.2615    0.6009 H       1  UNL1        0.0640
     48 H           5.4129   -2.3864    1.2065 H       1  UNL1        0.0631
     49 H          10.4580    0.2511    1.1192 H       1  UNL1        0.0433
     50 H           9.5658   -2.3689    2.6027 H       1  UNL1        0.0277
     51 H          11.2735   -1.5211    2.8319 H       1  UNL1        0.0277
     52 H          10.1576   -2.7327    0.1914 H       1  UNL1        0.0277
     53 H          11.7461   -1.8251    0.3869 H       1  UNL1        0.0277
     54 H           6.0711    1.2897   -0.7954 H       1  UNL1        0.0842
     55 H           0.2368    1.3649   -3.7533 H       1  UNL1        0.0624
     56 H          -2.1328    1.3808   -4.5100 H       1  UNL1        0.0646
     57 H          -1.7043   -1.0153    3.1713 H       1  UNL1        0.1442
     58 H          -3.3318   -1.4610    3.7313 H       1  UNL1        0.1442
@<TRIPOS>BOND
     1     1     2    1
     2     2     3   am
     3     3     4    2
     4     5     3    1
     5     5     6    1
     6     6     7    1
     7     7     8    1
     8     8     9    1
     9     8    10    1
    10    10    11   ar
    11    11    12   ar
    12    12    13    1
    13    13    14    2
    14    14    15    1
    15    14    16    1
    16    16    17   ar
    17    17    18   ar
    18    18    19   ar
    19    19    20    1
    20    20    21    3
    21    21    22    1
    22    22    23    1
    23    23    24    1
    24    19    25   ar
    25    25    26   ar
    26    12    27   ar
    27    27    28   ar
    28    28    29   ar
    29    29    30    1
    30     8    31    1
    31    31    32    2
    32    32    33    1
    33    32    34    1
    34     7     5    1
    35    29    10   ar
    36    34     5    1
    37    26    16   ar
    38    24    22    1
    39     1    35    1
    40     1    36    1
    41     1    37    1
    42     2    38    1
    43     6    39    1
    44     6    40    1
    45     7    41    1
    46     9    42    1
    47     9    43    1
    48     9    44    1
    49    11    45    1
    50    13    46    1
    51    17    47    1
    52    18    48    1
    53    22    49    1
    54    23    50    1
    55    23    51    1
    56    24    52    1
    57    24    53    1
    58    25    54    1
    59    27    55    1
    60    28    56    1
    61    33    57    1
    62    33    58    1
