
     RDKit          3D

 58 62  0  0  0  0  0  0  0  0999 V2000
   -8.8688    1.6067    1.6042 C   0  0  0  0  0  0  0  0  0  0  0  0
   -7.4797    1.2003    1.5440 N   0  0  0  0  0  0  0  0  0  0  0  0
   -6.5847    1.7751    0.6142 C   0  0  0  0  0  0  0  0  0  0  0  0
   -7.0321    2.6559   -0.1641 O   0  0  0  0  0  0  0  0  0  0  0  0
   -5.1354    1.3666    0.5330 C   0  0  2  0  0  0  0  0  0  0  0  0
   -4.3473    2.0425   -0.4953 C   0  0  0  0  0  0  0  0  0  0  0  0
   -4.7416    0.5381   -0.5783 C   0  0  1  0  0  0  0  0  0  0  0  0
   -3.6007   -0.3788   -0.5169 C   0  0  1  0  0  0  0  0  0  0  0  0
   -4.0506   -1.6843   -1.2137 C   0  0  0  0  0  0  0  0  0  0  0  0
   -2.4870    0.1151   -1.4069 C   0  0  0  0  0  0  0  0  0  0  0  0
   -1.1778    0.0998   -0.9712 C   0  0  0  0  0  0  0  0  0  0  0  0
   -0.2073    0.5485   -1.8168 C   0  0  0  0  0  0  0  0  0  0  0  0
    1.2121    0.5689   -1.4817 C   0  0  0  0  0  0  0  0  0  0  0  0
    1.8082   -0.3687   -0.7922 C   0  0  0  0  0  0  0  0  0  0  0  0
    1.0000   -1.4054   -0.3873 F   0  0  0  0  0  0  0  0  0  0  0  0
    3.2080   -0.4101   -0.4390 C   0  0  0  0  0  0  0  0  0  0  0  0
    3.6910   -1.4702    0.2885 C   0  0  0  0  0  0  0  0  0  0  0  0
    5.0343   -1.5518    0.6345 C   0  0  0  0  0  0  0  0  0  0  0  0
    5.9141   -0.5367    0.2358 C   0  0  0  0  0  0  0  0  0  0  0  0
    7.3074   -0.6125    0.5660 C   0  0  0  0  0  0  0  0  0  0  0  0
    8.5047   -0.6566    0.8508 C   0  0  0  0  0  0  0  0  0  0  0  0
    9.9264   -0.7266    1.1705 C   0  0  0  0  0  0  0  0  0  0  0  0
   10.3843   -1.7327    2.1983 C   0  0  0  0  0  0  0  0  0  0  0  0
   10.7166   -1.9470    0.7455 C   0  0  0  0  0  0  0  0  0  0  0  0
    5.3809    0.5005   -0.4881 C   0  0  0  0  0  0  0  0  0  0  0  0
    4.0645    0.5436   -0.8055 N   0  0  0  0  0  0  0  0  0  0  0  0
   -0.5566    1.0045   -3.0793 C   0  0  0  0  0  0  0  0  0  0  0  0
   -1.8580    1.0258   -3.5271 C   0  0  0  0  0  0  0  0  0  0  0  0
   -2.8491    0.5637   -2.6554 C   0  0  0  0  0  0  0  0  0  0  0  0
   -4.1475    0.5824   -3.1033 F   0  0  0  0  0  0  0  0  0  0  0  0
   -3.1178   -0.8120    0.7438 N   0  0  0  0  0  0  0  0  0  0  0  0
   -3.3404   -0.3979    1.9019 C   0  0  0  0  0  0  0  0  0  0  0  0
   -2.7319   -1.0022    3.0185 N   0  0  0  0  0  0  0  0  0  0  0  0
   -4.4424    0.9776    2.1526 S   0  0  0  0  0  0  0  0  0  0  0  0
   -8.9411    2.5766    2.1302 H   0  0  0  0  0  0  0  0  0  0  0  0
   -9.2609    1.7926    0.5617 H   0  0  0  0  0  0  0  0  0  0  0  0
   -9.5152    0.8373    2.0459 H   0  0  0  0  0  0  0  0  0  0  0  0
   -7.1391    0.4626    2.2068 H   0  0  0  0  0  0  0  0  0  0  0  0
   -4.8158    2.7280   -1.2046 H   0  0  0  0  0  0  0  0  0  0  0  0
   -3.2974    2.2761   -0.2486 H   0  0  0  0  0  0  0  0  0  0  0  0
   -5.5533    0.3521   -1.3527 H   0  0  0  0  0  0  0  0  0  0  0  0
   -4.7831   -2.1833   -0.5396 H   0  0  0  0  0  0  0  0  0  0  0  0
   -3.1746   -2.3758   -1.2722 H   0  0  0  0  0  0  0  0  0  0  0  0
   -4.5412   -1.4956   -2.1651 H   0  0  0  0  0  0  0  0  0  0  0  0
   -0.9340   -0.2526    0.0006 H   0  0  0  0  0  0  0  0  0  0  0  0
    1.7939    1.4073   -1.8258 H   0  0  0  0  0  0  0  0  0  0  0  0
    3.0128   -2.2615    0.6009 H   0  0  0  0  0  0  0  0  0  0  0  0
    5.4129   -2.3864    1.2065 H   0  0  0  0  0  0  0  0  0  0  0  0
   10.4580    0.2511    1.1192 H   0  0  0  0  0  0  0  0  0  0  0  0
    9.5658   -2.3689    2.6027 H   0  0  0  0  0  0  0  0  0  0  0  0
   11.2735   -1.5211    2.8319 H   0  0  0  0  0  0  0  0  0  0  0  0
   10.1576   -2.7327    0.1914 H   0  0  0  0  0  0  0  0  0  0  0  0
   11.7461   -1.8251    0.3869 H   0  0  0  0  0  0  0  0  0  0  0  0
    6.0711    1.2897   -0.7954 H   0  0  0  0  0  0  0  0  0  0  0  0
    0.2368    1.3649   -3.7533 H   0  0  0  0  0  0  0  0  0  0  0  0
   -2.1328    1.3808   -4.5100 H   0  0  0  0  0  0  0  0  0  0  0  0
   -1.7043   -1.0153    3.1713 H   0  0  0  0  0  0  0  0  0  0  0  0
   -3.3318   -1.4610    3.7313 H   0  0  0  0  0  0  0  0  0  0  0  0
  1  2  1  0
  2  3  1  0
  3  4  2  0
  5  3  1  1
  5  6  1  0
  6  7  1  0
  7  8  1  0
  8  9  1  6
  8 10  1  0
 10 11  2  0
 11 12  1  0
 12 13  1  0
 13 14  2  0
 14 15  1  0
 14 16  1  0
 16 17  2  0
 17 18  1  0
 18 19  2  0
 19 20  1  0
 20 21  3  0
 21 22  1  0
 22 23  1  0
 23 24  1  0
 19 25  1  0
 25 26  2  0
 12 27  2  0
 27 28  1  0
 28 29  2  0
 29 30  1  0
  8 31  1  0
 31 32  2  0
 32 33  1  0
 32 34  1  0
  7  5  1  0
 29 10  1  0
 34  5  1  0
 26 16  1  0
 24 22  1  0
  1 35  1  0
  1 36  1  0
  1 37  1  0
  2 38  1  0
  6 39  1  0
  6 40  1  0
  7 41  1  6
  9 42  1  0
  9 43  1  0
  9 44  1  0
 11 45  1  0
 13 46  1  0
 17 47  1  0
 18 48  1  0
 22 49  1  0
 23 50  1  0
 23 51  1  0
 24 52  1  0
 24 53  1  0
 25 54  1  0
 27 55  1  0
 28 56  1  0
 33 57  1  0
 33 58  1  0
M  END
$$$$
