@<TRIPOS>MOLECULE
*****
 30 30 0 0 0
SMALL
GASTEIGER

@<TRIPOS>ATOM
      1 C           5.5528    0.3459   -0.4760 C.3     1  UNL1        0.0121
      2 C           4.0737    0.2795   -0.6058 C.2     1  UNL1        0.2099
      3 O           3.6473   -0.5767   -1.4126 O.2     1  UNL1       -0.2761
      4 N           3.1796    1.1028    0.1094 N.am    1  UNL1       -0.3152
      5 C           1.7384    1.0589    0.0019 C.3     1  UNL1        0.0156
      6 C           1.2423   -0.2956    0.3865 C.3     1  UNL1       -0.0121
      7 C          -0.2311   -0.4115    0.2991 C.ar    1  UNL1       -0.0458
      8 C          -1.0637   -0.1193    1.3683 C.ar    1  UNL1       -0.0567
      9 C          -2.4469   -0.2454    1.2319 C.ar    1  UNL1       -0.0351
     10 C          -2.9627   -0.6645    0.0172 C.ar    1  UNL1        0.1050
     11 C          -2.1606   -0.9687   -1.0839 C.ar    1  UNL1       -0.0351
     12 C          -0.7970   -0.8257   -0.8910 C.ar    1  UNL1       -0.0567
     13 S          -4.6935   -0.8482   -0.2345 S.O2    1  UNL1        0.0559
     14 N          -5.3687    0.6499   -0.8179 N.3     1  UNL1       -0.2035
     15 O          -5.3851   -1.2461    1.0510 O.2     1  UNL1       -0.1533
     16 O          -4.9838   -1.8914   -1.2538 O.2     1  UNL1       -0.1533
     17 H           5.8304    0.7979    0.5018 H       1  UNL1        0.0322
     18 H           5.9447   -0.6834   -0.4695 H       1  UNL1        0.0322
     19 H           5.9708    0.9582   -1.3035 H       1  UNL1        0.0322
     20 H           3.6877    1.7784    0.7539 H       1  UNL1        0.1487
     21 H           1.3420    1.8105    0.7249 H       1  UNL1        0.0465
     22 H           1.4207    1.3206   -1.0408 H       1  UNL1        0.0465
     23 H           1.5686   -0.4769    1.4459 H       1  UNL1        0.0328
     24 H           1.6663   -1.0580   -0.2695 H       1  UNL1        0.0328
     25 H          -0.6152    0.2063    2.3029 H       1  UNL1        0.0621
     26 H          -3.1057   -0.0188    2.0633 H       1  UNL1        0.0637
     27 H          -2.5613   -1.2951   -2.0300 H       1  UNL1        0.0637
     28 H          -0.1766   -1.0678   -1.7639 H       1  UNL1        0.0621
     29 H          -4.5944    1.1684   -1.2975 H       1  UNL1        0.1442
     30 H          -5.7191    1.2159   -0.0222 H       1  UNL1        0.1442
@<TRIPOS>BOND
     1     1     2    1
     2     2     3    2
     3     2     4   am
     4     4     5    1
     5     5     6    1
     6     6     7    1
     7     7     8   ar
     8     8     9   ar
     9     9    10   ar
    10    10    11   ar
    11    11    12   ar
    12    10    13    1
    13    13    14    1
    14    13    15    2
    15    13    16    2
    16    12     7   ar
    17     1    17    1
    18     1    18    1
    19     1    19    1
    20     4    20    1
    21     5    21    1
    22     5    22    1
    23     6    23    1
    24     6    24    1
    25     8    25    1
    26     9    26    1
    27    11    27    1
    28    12    28    1
    29    14    29    1
    30    14    30    1
