
     RDKit          3D

 30 30  0  0  0  0  0  0  0  0999 V2000
    5.5528    0.3459   -0.4760 C   0  0  0  0  0  0  0  0  0  0  0  0
    4.0737    0.2795   -0.6058 C   0  0  0  0  0  0  0  0  0  0  0  0
    3.6473   -0.5767   -1.4126 O   0  0  0  0  0  0  0  0  0  0  0  0
    3.1796    1.1028    0.1094 N   0  0  0  0  0  0  0  0  0  0  0  0
    1.7384    1.0589    0.0019 C   0  0  0  0  0  0  0  0  0  0  0  0
    1.2423   -0.2956    0.3865 C   0  0  0  0  0  0  0  0  0  0  0  0
   -0.2311   -0.4115    0.2991 C   0  0  0  0  0  0  0  0  0  0  0  0
   -1.0637   -0.1193    1.3683 C   0  0  0  0  0  0  0  0  0  0  0  0
   -2.4469   -0.2454    1.2319 C   0  0  0  0  0  0  0  0  0  0  0  0
   -2.9627   -0.6645    0.0172 C   0  0  0  0  0  0  0  0  0  0  0  0
   -2.1606   -0.9687   -1.0839 C   0  0  0  0  0  0  0  0  0  0  0  0
   -0.7970   -0.8257   -0.8910 C   0  0  0  0  0  0  0  0  0  0  0  0
   -4.6935   -0.8482   -0.2345 S   0  0  0  0  0  0  0  0  0  0  0  0
   -5.3687    0.6499   -0.8179 N   0  0  0  0  0  0  0  0  0  0  0  0
   -5.3851   -1.2461    1.0510 O   0  0  0  0  0  0  0  0  0  0  0  0
   -4.9838   -1.8914   -1.2538 O   0  0  0  0  0  0  0  0  0  0  0  0
    5.8304    0.7979    0.5018 H   0  0  0  0  0  0  0  0  0  0  0  0
    5.9447   -0.6834   -0.4695 H   0  0  0  0  0  0  0  0  0  0  0  0
    5.9708    0.9582   -1.3035 H   0  0  0  0  0  0  0  0  0  0  0  0
    3.6877    1.7784    0.7539 H   0  0  0  0  0  0  0  0  0  0  0  0
    1.3420    1.8105    0.7249 H   0  0  0  0  0  0  0  0  0  0  0  0
    1.4207    1.3206   -1.0408 H   0  0  0  0  0  0  0  0  0  0  0  0
    1.5686   -0.4769    1.4459 H   0  0  0  0  0  0  0  0  0  0  0  0
    1.6663   -1.0580   -0.2695 H   0  0  0  0  0  0  0  0  0  0  0  0
   -0.6152    0.2063    2.3029 H   0  0  0  0  0  0  0  0  0  0  0  0
   -3.1057   -0.0188    2.0633 H   0  0  0  0  0  0  0  0  0  0  0  0
   -2.5613   -1.2951   -2.0300 H   0  0  0  0  0  0  0  0  0  0  0  0
   -0.1766   -1.0678   -1.7639 H   0  0  0  0  0  0  0  0  0  0  0  0
   -4.5944    1.1684   -1.2975 H   0  0  0  0  0  0  0  0  0  0  0  0
   -5.7191    1.2159   -0.0222 H   0  0  0  0  0  0  0  0  0  0  0  0
  1  2  1  0
  2  3  2  0
  2  4  1  0
  4  5  1  0
  5  6  1  0
  6  7  1  0
  7  8  2  0
  8  9  1  0
  9 10  2  0
 10 11  1  0
 11 12  2  0
 10 13  1  0
 13 14  1  0
 13 15  2  0
 13 16  2  0
 12  7  1  0
  1 17  1  0
  1 18  1  0
  1 19  1  0
  4 20  1  0
  5 21  1  0
  5 22  1  0
  6 23  1  0
  6 24  1  0
  8 25  1  0
  9 26  1  0
 11 27  1  0
 12 28  1  0
 14 29  1  0
 14 30  1  0
M  END
$$$$
