@<TRIPOS>MOLECULE
*****
 44 46 0 0 0
SMALL
GASTEIGER

@<TRIPOS>ATOM
      1 C          -2.0396   -0.9115   -1.8803 C.3     1  UNL1       -0.0541
      2 C          -1.8847   -0.6730   -0.3742 C.3     1  UNL1        0.0088
      3 C          -2.8618    0.4075   -0.0553 C.ar    1  UNL1       -0.0400
      4 C          -4.1166    0.0538    0.3539 C.ar    1  UNL1       -0.0580
      5 C          -5.0295    1.0679    0.6459 C.ar    1  UNL1       -0.0615
      6 C          -4.6892    2.3974    0.5293 C.ar    1  UNL1       -0.0617
      7 C          -3.4106    2.7006    0.1126 C.ar    1  UNL1       -0.0615
      8 C          -2.4774    1.7384   -0.1862 C.ar    1  UNL1       -0.0580
      9 C          -2.3380   -1.9172    0.3437 C.3     1  UNL1       -0.0408
     10 C          -1.3401   -3.0488    0.2038 C.3     1  UNL1       -0.0363
     11 C          -0.0532   -2.6245    0.8525 C.3     1  UNL1        0.0162
     12 N           0.3586   -1.3066    0.4680 N.am    1  UNL1       -0.2845
     13 C           1.7558   -0.9830    0.6215 C.2     1  UNL1        0.3065
     14 O           2.5223   -1.8544    1.0742 O.2     1  UNL1       -0.2523
     15 N           2.2815    0.2635    0.2840 N.am    1  UNL1       -0.2693
     16 C           3.6201    0.7151    0.3813 C.ar    1  UNL1        0.0349
     17 C           4.6813   -0.0206    0.8435 C.ar    1  UNL1       -0.0391
     18 C           5.9857    0.4884    0.9139 C.ar    1  UNL1       -0.0416
     19 C           6.2505    1.7628    0.5157 C.ar    1  UNL1        0.0411
     20 CL          7.8893    2.3538    0.6213 Cl      1  UNL1       -0.0835
     21 C           5.2095    2.5292    0.0466 C.ar    1  UNL1       -0.0416
     22 C           3.9374    2.0232   -0.0186 C.ar    1  UNL1       -0.0391
     23 C          -0.4870   -0.2879   -0.0520 C.3     1  UNL1        0.0255
     24 H          -1.0048   -1.0363   -2.2994 H       1  UNL1        0.0239
     25 H          -2.4773   -0.0333   -2.3893 H       1  UNL1        0.0239
     26 H          -2.5724   -1.8539   -2.0649 H       1  UNL1        0.0239
     27 H          -4.4998   -0.9432    0.4850 H       1  UNL1        0.0620
     28 H          -6.0402    0.8041    0.9753 H       1  UNL1        0.0618
     29 H          -5.4383    3.1316    0.7694 H       1  UNL1        0.0618
     30 H          -3.1467    3.7495    0.0223 H       1  UNL1        0.0618
     31 H          -1.4680    1.9865   -0.5173 H       1  UNL1        0.0620
     32 H          -3.2580   -2.3022   -0.1897 H       1  UNL1        0.0275
     33 H          -2.5226   -1.7370    1.4024 H       1  UNL1        0.0275
     34 H          -1.7474   -3.9073    0.7605 H       1  UNL1        0.0281
     35 H          -1.1556   -3.3324   -0.8435 H       1  UNL1        0.0281
     36 H          -0.1371   -2.6848    1.9551 H       1  UNL1        0.0465
     37 H           0.7328   -3.3591    0.5542 H       1  UNL1        0.0465
     38 H           1.5776    0.9686   -0.0982 H       1  UNL1        0.1564
     39 H           4.5227   -1.0408    1.1725 H       1  UNL1        0.0636
     40 H           6.7662   -0.1857    1.3007 H       1  UNL1        0.0633
     41 H           5.4512    3.5400   -0.2631 H       1  UNL1        0.0633
     42 H           3.1279    2.6550   -0.3961 H       1  UNL1        0.0636
     43 H          -0.0108    0.0736   -1.0112 H       1  UNL1        0.0474
     44 H          -0.4635    0.6330    0.6046 H       1  UNL1        0.0474
@<TRIPOS>BOND
     1     1     2    1
     2     2     3    1
     3     3     4   ar
     4     4     5   ar
     5     5     6   ar
     6     6     7   ar
     7     7     8   ar
     8     2     9    1
     9     9    10    1
    10    10    11    1
    11    11    12    1
    12    12    13   am
    13    13    14    2
    14    13    15   am
    15    15    16    1
    16    16    17   ar
    17    17    18   ar
    18    18    19   ar
    19    19    20    1
    20    19    21   ar
    21    21    22   ar
    22    12    23    1
    23    23     2    1
    24     8     3   ar
    25    22    16   ar
    26     1    24    1
    27     1    25    1
    28     1    26    1
    29     4    27    1
    30     5    28    1
    31     6    29    1
    32     7    30    1
    33     8    31    1
    34     9    32    1
    35     9    33    1
    36    10    34    1
    37    10    35    1
    38    11    36    1
    39    11    37    1
    40    15    38    1
    41    17    39    1
    42    18    40    1
    43    21    41    1
    44    22    42    1
    45    23    43    1
    46    23    44    1
