@<TRIPOS>MOLECULE
*****
 54 57 0 0 0
SMALL
GASTEIGER

@<TRIPOS>ATOM
      1 C           4.5094   -0.4085   -1.2690 C.3     1  UNL1       -0.0274
      2 C           3.8084   -0.0773    0.0633 C.3     1  UNL1        0.1037
      3 O           2.4889   -0.1049   -0.0214 O.3     1  UNL1       -0.4725
      4 C           1.3314    0.5028    0.0694 C.ar    1  UNL1        0.2265
      5 N           0.1667   -0.1940   -0.1811 N.ar    1  UNL1       -0.2121
      6 C          -1.0376    0.3201   -0.1175 C.ar    1  UNL1        0.0798
      7 C          -2.2419   -0.4730   -0.3955 C.ar    1  UNL1        0.0380
      8 C          -2.2908   -1.8046   -0.7464 C.ar    1  UNL1        0.0586
      9 N          -3.5926   -2.1180   -0.9048 N.ar    1  UNL1       -0.1785
     10 N          -4.3727   -1.0863   -0.6810 N.ar    1  UNL1       -0.2655
     11 C          -5.8360   -1.0375   -0.7542 C.3     1  UNL1        0.0553
     12 C          -6.3550   -2.0284   -1.7757 C.3     1  UNL1       -0.0403
     13 C          -6.4724   -1.3362    0.5685 C.3     1  UNL1       -0.0403
     14 C          -6.2885    0.3475   -1.1960 C.3     1  UNL1       -0.0403
     15 C          -3.5557   -0.0593   -0.3646 C.ar    1  UNL1        0.0353
     16 C          -1.1948    1.6336    0.2165 C.ar    1  UNL1       -0.0076
     17 C          -0.0836    2.4028    0.4828 C.ar    1  UNL1        0.0999
     18 N           0.0644    3.7116    0.8336 N.ar    1  UNL1       -0.1712
     19 N           1.3401    3.9747    0.9773 N.ar    1  UNL1       -0.2732
     20 C           1.9381    5.2576    1.3477 C.3     1  UNL1        0.0302
     21 C           2.0561    2.8491    0.7252 C.ar    1  UNL1        0.0380
     22 C           1.1680    1.8447    0.4105 C.ar    1  UNL1        0.0812
     23 C           4.3924   -1.0418    1.1187 C.3     1  UNL1        0.0196
     24 C           4.1470   -2.4694    0.7559 C.3     1  UNL1        0.0182
     25 N           5.3078   -2.9074    0.0296 N.am    1  UNL1       -0.3149
     26 C           6.3776   -1.9956    0.2695 C.2     1  UNL1        0.2135
     27 O           7.5720   -2.0772   -0.1522 O.2     1  UNL1       -0.2758
     28 C           5.8775   -0.8868    1.1200 C.3     1  UNL1        0.0315
     29 H           5.5691   -0.1634   -1.1675 H       1  UNL1        0.0265
     30 H           4.0577    0.2667   -2.0295 H       1  UNL1        0.0265
     31 H           4.3028   -1.4552   -1.5657 H       1  UNL1        0.0265
     32 H           4.2318    0.9053    0.3447 H       1  UNL1        0.0734
     33 H          -1.4145   -2.4398   -0.8610 H       1  UNL1        0.0854
     34 H          -5.6462   -2.8918   -1.7741 H       1  UNL1        0.0253
     35 H          -6.3373   -1.5872   -2.7963 H       1  UNL1        0.0253
     36 H          -7.3500   -2.4358   -1.5071 H       1  UNL1        0.0253
     37 H          -5.8909   -2.0704    1.1714 H       1  UNL1        0.0253
     38 H          -7.4552   -1.8216    0.3710 H       1  UNL1        0.0253
     39 H          -6.7078   -0.4096    1.1515 H       1  UNL1        0.0253
     40 H          -7.2849    0.2325   -1.6369 H       1  UNL1        0.0253
     41 H          -5.5523    0.7070   -1.9443 H       1  UNL1        0.0253
     42 H          -6.2685    1.0335   -0.3140 H       1  UNL1        0.0253
     43 H          -3.8728    0.9495   -0.1196 H       1  UNL1        0.0833
     44 H          -2.1754    2.0997    0.2807 H       1  UNL1        0.0661
     45 H           2.8067    5.0263    1.9961 H       1  UNL1        0.0473
     46 H           2.2958    5.7538    0.4059 H       1  UNL1        0.0473
     47 H           1.2186    5.8958    1.8715 H       1  UNL1        0.0473
     48 H           3.1255    2.8017    0.7756 H       1  UNL1        0.0834
     49 H           3.9248   -0.7432    2.0867 H       1  UNL1        0.0356
     50 H           4.1088   -3.0821    1.6963 H       1  UNL1        0.0466
     51 H           3.2360   -2.6270    0.1467 H       1  UNL1        0.0466
     52 H           5.3858   -3.7479   -0.5798 H       1  UNL1        0.1487
     53 H           6.2688   -1.0383    2.1593 H       1  UNL1        0.0363
     54 H           6.1994    0.1031    0.7540 H       1  UNL1        0.0363
@<TRIPOS>BOND
     1     1     2    1
     2     2     3    1
     3     3     4    1
     4     4     5   ar
     5     5     6   ar
     6     6     7    1
     7     7     8   ar
     8     8     9   ar
     9     9    10   ar
    10    10    11    1
    11    11    12    1
    12    11    13    1
    13    11    14    1
    14    10    15   ar
    15     6    16   ar
    16    16    17   ar
    17    17    18   ar
    18    18    19   ar
    19    19    20    1
    20    19    21   ar
    21    21    22   ar
    22     2    23    1
    23    23    24    1
    24    24    25    1
    25    25    26   am
    26    26    27    2
    27    26    28    1
    28    22     4   ar
    29    28    23    1
    30    15     7   ar
    31    22    17   ar
    32     1    29    1
    33     1    30    1
    34     1    31    1
    35     2    32    1
    36     8    33    1
    37    12    34    1
    38    12    35    1
    39    12    36    1
    40    13    37    1
    41    13    38    1
    42    13    39    1
    43    14    40    1
    44    14    41    1
    45    14    42    1
    46    15    43    1
    47    16    44    1
    48    20    45    1
    49    20    46    1
    50    20    47    1
    51    21    48    1
    52    23    49    1
    53    24    50    1
    54    24    51    1
    55    25    52    1
    56    28    53    1
    57    28    54    1
