
     RDKit          3D

 54 57  0  0  0  0  0  0  0  0999 V2000
    4.5094   -0.4085   -1.2690 C   0  0  0  0  0  0  0  0  0  0  0  0
    3.8084   -0.0773    0.0633 C   0  0  1  0  0  0  0  0  0  0  0  0
    2.4889   -0.1049   -0.0214 O   0  0  0  0  0  0  0  0  0  0  0  0
    1.3314    0.5028    0.0694 C   0  0  0  0  0  0  0  0  0  0  0  0
    0.1667   -0.1940   -0.1811 N   0  0  0  0  0  0  0  0  0  0  0  0
   -1.0376    0.3201   -0.1175 C   0  0  0  0  0  0  0  0  0  0  0  0
   -2.2419   -0.4730   -0.3955 C   0  0  0  0  0  0  0  0  0  0  0  0
   -2.2908   -1.8046   -0.7464 C   0  0  0  0  0  0  0  0  0  0  0  0
   -3.5926   -2.1180   -0.9048 N   0  0  0  0  0  0  0  0  0  0  0  0
   -4.3727   -1.0863   -0.6810 N   0  0  0  0  0  0  0  0  0  0  0  0
   -5.8360   -1.0375   -0.7542 C   0  0  0  0  0  0  0  0  0  0  0  0
   -6.3550   -2.0284   -1.7757 C   0  0  0  0  0  0  0  0  0  0  0  0
   -6.4724   -1.3362    0.5685 C   0  0  0  0  0  0  0  0  0  0  0  0
   -6.2885    0.3475   -1.1960 C   0  0  0  0  0  0  0  0  0  0  0  0
   -3.5557   -0.0593   -0.3646 C   0  0  0  0  0  0  0  0  0  0  0  0
   -1.1948    1.6336    0.2165 C   0  0  0  0  0  0  0  0  0  0  0  0
   -0.0836    2.4028    0.4828 C   0  0  0  0  0  0  0  0  0  0  0  0
    0.0644    3.7116    0.8336 N   0  0  0  0  0  0  0  0  0  0  0  0
    1.3401    3.9747    0.9773 N   0  0  0  0  0  0  0  0  0  0  0  0
    1.9381    5.2576    1.3477 C   0  0  0  0  0  0  0  0  0  0  0  0
    2.0561    2.8491    0.7252 C   0  0  0  0  0  0  0  0  0  0  0  0
    1.1680    1.8447    0.4105 C   0  0  0  0  0  0  0  0  0  0  0  0
    4.3924   -1.0418    1.1187 C   0  0  1  0  0  0  0  0  0  0  0  0
    4.1470   -2.4694    0.7559 C   0  0  0  0  0  0  0  0  0  0  0  0
    5.3078   -2.9074    0.0296 N   0  0  0  0  0  0  0  0  0  0  0  0
    6.3776   -1.9956    0.2695 C   0  0  0  0  0  0  0  0  0  0  0  0
    7.5720   -2.0772   -0.1522 O   0  0  0  0  0  0  0  0  0  0  0  0
    5.8775   -0.8868    1.1200 C   0  0  0  0  0  0  0  0  0  0  0  0
    5.5691   -0.1634   -1.1675 H   0  0  0  0  0  0  0  0  0  0  0  0
    4.0577    0.2667   -2.0295 H   0  0  0  0  0  0  0  0  0  0  0  0
    4.3028   -1.4552   -1.5657 H   0  0  0  0  0  0  0  0  0  0  0  0
    4.2318    0.9053    0.3447 H   0  0  0  0  0  0  0  0  0  0  0  0
   -1.4145   -2.4398   -0.8610 H   0  0  0  0  0  0  0  0  0  0  0  0
   -5.6462   -2.8918   -1.7741 H   0  0  0  0  0  0  0  0  0  0  0  0
   -6.3373   -1.5872   -2.7963 H   0  0  0  0  0  0  0  0  0  0  0  0
   -7.3500   -2.4358   -1.5071 H   0  0  0  0  0  0  0  0  0  0  0  0
   -5.8909   -2.0704    1.1714 H   0  0  0  0  0  0  0  0  0  0  0  0
   -7.4552   -1.8216    0.3710 H   0  0  0  0  0  0  0  0  0  0  0  0
   -6.7078   -0.4096    1.1515 H   0  0  0  0  0  0  0  0  0  0  0  0
   -7.2849    0.2325   -1.6369 H   0  0  0  0  0  0  0  0  0  0  0  0
   -5.5523    0.7070   -1.9443 H   0  0  0  0  0  0  0  0  0  0  0  0
   -6.2685    1.0335   -0.3140 H   0  0  0  0  0  0  0  0  0  0  0  0
   -3.8728    0.9495   -0.1196 H   0  0  0  0  0  0  0  0  0  0  0  0
   -2.1754    2.0997    0.2807 H   0  0  0  0  0  0  0  0  0  0  0  0
    2.8067    5.0263    1.9961 H   0  0  0  0  0  0  0  0  0  0  0  0
    2.2958    5.7538    0.4059 H   0  0  0  0  0  0  0  0  0  0  0  0
    1.2186    5.8958    1.8715 H   0  0  0  0  0  0  0  0  0  0  0  0
    3.1255    2.8017    0.7756 H   0  0  0  0  0  0  0  0  0  0  0  0
    3.9248   -0.7432    2.0867 H   0  0  0  0  0  0  0  0  0  0  0  0
    4.1088   -3.0821    1.6963 H   0  0  0  0  0  0  0  0  0  0  0  0
    3.2360   -2.6270    0.1467 H   0  0  0  0  0  0  0  0  0  0  0  0
    5.3858   -3.7479   -0.5798 H   0  0  0  0  0  0  0  0  0  0  0  0
    6.2688   -1.0383    2.1593 H   0  0  0  0  0  0  0  0  0  0  0  0
    6.1994    0.1031    0.7540 H   0  0  0  0  0  0  0  0  0  0  0  0
  1  2  1  0
  2  3  1  0
  3  4  1  0
  4  5  2  0
  5  6  1  0
  6  7  1  0
  7  8  1  0
  8  9  2  0
  9 10  1  0
 10 11  1  0
 11 12  1  0
 11 13  1  0
 11 14  1  0
 10 15  1  0
  6 16  2  0
 16 17  1  0
 17 18  2  0
 18 19  1  0
 19 20  1  0
 19 21  1  0
 21 22  2  0
  2 23  1  0
 23 24  1  0
 24 25  1  0
 25 26  1  0
 26 27  2  0
 26 28  1  0
 22  4  1  0
 28 23  1  0
 15  7  2  0
 22 17  1  0
  1 29  1  0
  1 30  1  0
  1 31  1  0
  2 32  1  1
  8 33  1  0
 12 34  1  0
 12 35  1  0
 12 36  1  0
 13 37  1  0
 13 38  1  0
 13 39  1  0
 14 40  1  0
 14 41  1  0
 14 42  1  0
 15 43  1  0
 16 44  1  0
 20 45  1  0
 20 46  1  0
 20 47  1  0
 21 48  1  0
 23 49  1  1
 24 50  1  0
 24 51  1  0
 25 52  1  0
 28 53  1  0
 28 54  1  0
M  END
$$$$
