@<TRIPOS>MOLECULE
*****
 66 69 0 0 0
SMALL
GASTEIGER

@<TRIPOS>ATOM
      1 C           0.2491    1.9699    3.1428 C.3     1  UNL1       -0.0421
      2 C           0.2232    1.8449    1.6281 C.3     1  UNL1        0.0515
      3 C           1.5405    1.3997    1.1031 C.ar    1  UNL1       -0.0271
      4 C           2.4013    2.3234    0.4882 C.ar    1  UNL1       -0.0562
      5 C           3.6359    1.9885   -0.0039 C.ar    1  UNL1       -0.0523
      6 C           4.1198    0.6742    0.0812 C.ar    1  UNL1        0.0004
      7 C           5.4335    0.3495   -0.4506 C.ar    1  UNL1        0.0710
      8 C           5.9148   -0.9265   -0.3751 C.ar    1  UNL1       -0.0350
      9 C           7.1818   -1.2605   -0.8845 C.ar    1  UNL1       -0.0462
     10 C           7.9440   -0.2788   -1.4678 C.ar    1  UNL1        0.0546
     11 C           9.2738   -0.5741   -2.0155 C.2     1  UNL1        0.2430
     12 N           9.8229   -1.8624   -1.9745 N.am    1  UNL1       -0.3253
     13 O           9.9260    0.3651   -2.5327 O.2     1  UNL1       -0.2704
     14 C           7.4290    1.0035   -1.5292 C.ar    1  UNL1        0.0403
     15 N           6.2055    1.2831   -1.0273 N.ar    1  UNL1       -0.2542
     16 C           3.2828   -0.2294    0.6807 C.ar    1  UNL1       -0.0523
     17 C           2.0170    0.1207    1.1838 C.ar    1  UNL1       -0.0562
     18 N          -0.9119    1.1081    1.1589 N.am    1  UNL1       -0.2605
     19 C          -1.1514   -0.2569    1.5008 C.3     1  UNL1        0.0224
     20 C          -2.6279   -0.5482    1.7219 C.3     1  UNL1        0.0076
     21 C          -3.4450   -0.1502    0.5044 C.3     1  UNL1        0.1440
     22 C          -4.8818   -0.0829    0.9211 C.3     1  UNL1        0.0199
     23 C          -5.7684    0.3247   -0.2023 C.3     1  UNL1        0.0645
     24 C          -5.3954    1.6965   -0.7381 C.3     1  UNL1       -0.0362
     25 C          -7.1897    0.4616    0.3603 C.3     1  UNL1       -0.0362
     26 O          -5.8400   -0.5932   -1.2196 O.3     1  UNL1       -0.3890
     27 C          -3.2635   -1.2077   -0.5341 C.ar    1  UNL1       -0.0040
     28 C          -2.3574   -1.0436   -1.5647 C.ar    1  UNL1       -0.0548
     29 C          -2.1878   -2.0394   -2.4906 C.ar    1  UNL1       -0.0614
     30 C          -2.9198   -3.2008   -2.3926 C.ar    1  UNL1       -0.0617
     31 C          -3.8183   -3.3781   -1.3811 C.ar    1  UNL1       -0.0614
     32 C          -3.9808   -2.3573   -0.4462 C.ar    1  UNL1       -0.0548
     33 O          -3.0743    1.1085    0.0224 O.3     1  UNL1       -0.4387
     34 C          -1.9059    1.7430    0.3258 C.2     1  UNL1        0.4042
     35 O          -1.6310    2.9181   -0.1052 O.2     1  UNL1       -0.2262
     36 H           0.1995    1.0018    3.6468 H       1  UNL1        0.0251
     37 H           1.2457    2.4399    3.3853 H       1  UNL1        0.0251
     38 H          -0.5047    2.7041    3.5011 H       1  UNL1        0.0251
     39 H           0.0811    2.9155    1.2523 H       1  UNL1        0.0549
     40 H           2.0346    3.3371    0.4204 H       1  UNL1        0.0621
     41 H           4.2761    2.7233   -0.4725 H       1  UNL1        0.0624
     42 H           5.3912   -1.7532    0.0615 H       1  UNL1        0.0639
     43 H           7.5631   -2.2764   -0.8233 H       1  UNL1        0.0626
     44 H           9.2183   -2.6539   -2.3314 H       1  UNL1        0.1453
     45 H          10.7677   -2.0175   -1.6132 H       1  UNL1        0.1453
     46 H           8.0590    1.7506   -1.9964 H       1  UNL1        0.0837
     47 H           3.6089   -1.2701    0.7746 H       1  UNL1        0.0624
     48 H           1.4335   -0.6611    1.6501 H       1  UNL1        0.0621
     49 H          -0.7085   -0.9512    0.7816 H       1  UNL1        0.0467
     50 H          -0.6929   -0.4435    2.5102 H       1  UNL1        0.0467
     51 H          -2.7370   -1.6436    1.8399 H       1  UNL1        0.0322
     52 H          -2.9976   -0.0689    2.6453 H       1  UNL1        0.0322
     53 H          -4.9239    0.7712    1.6773 H       1  UNL1        0.0335
     54 H          -5.2415   -0.9903    1.4580 H       1  UNL1        0.0335
     55 H          -5.0510    2.3395    0.0932 H       1  UNL1        0.0257
     56 H          -4.6859    1.6465   -1.5647 H       1  UNL1        0.0257
     57 H          -6.3206    2.1888   -1.1484 H       1  UNL1        0.0257
     58 H          -7.1263    0.6956    1.4531 H       1  UNL1        0.0257
     59 H          -7.7557   -0.4913    0.2326 H       1  UNL1        0.0257
     60 H          -7.7547    1.2289   -0.1846 H       1  UNL1        0.0257
     61 H          -6.4325   -0.2502   -1.9144 H       1  UNL1        0.2101
     62 H          -1.7876   -0.1394   -1.6404 H       1  UNL1        0.0622
     63 H          -1.4826   -1.9574   -3.3258 H       1  UNL1        0.0618
     64 H          -2.8089   -4.0071   -3.1085 H       1  UNL1        0.0618
     65 H          -4.4004   -4.2932   -1.2969 H       1  UNL1        0.0618
     66 H          -4.7171   -2.5678    0.3391 H       1  UNL1        0.0622
@<TRIPOS>BOND
     1     1     2    1
     2     2     3    1
     3     3     4   ar
     4     4     5   ar
     5     5     6   ar
     6     6     7    1
     7     7     8   ar
     8     8     9   ar
     9     9    10   ar
    10    10    11    1
    11    11    12   am
    12    11    13    2
    13    10    14   ar
    14    14    15   ar
    15     6    16   ar
    16    16    17   ar
    17     2    18    1
    18    18    19    1
    19    19    20    1
    20    20    21    1
    21    21    22    1
    22    22    23    1
    23    23    24    1
    24    23    25    1
    25    23    26    1
    26    21    27    1
    27    27    28   ar
    28    28    29   ar
    29    29    30   ar
    30    30    31   ar
    31    31    32   ar
    32    21    33    1
    33    33    34    1
    34    34    35    2
    35    17     3   ar
    36    34    18   am
    37    15     7   ar
    38    32    27   ar
    39     1    36    1
    40     1    37    1
    41     1    38    1
    42     2    39    1
    43     4    40    1
    44     5    41    1
    45     8    42    1
    46     9    43    1
    47    12    44    1
    48    12    45    1
    49    14    46    1
    50    16    47    1
    51    17    48    1
    52    19    49    1
    53    19    50    1
    54    20    51    1
    55    20    52    1
    56    22    53    1
    57    22    54    1
    58    24    55    1
    59    24    56    1
    60    24    57    1
    61    25    58    1
    62    25    59    1
    63    25    60    1
    64    26    61    1
    65    28    62    1
    66    29    63    1
    67    30    64    1
    68    31    65    1
    69    32    66    1
