@<TRIPOS>MOLECULE
*****
 75 77 0 0 0
SMALL
GASTEIGER

@<TRIPOS>ATOM
      1 C          -7.9231   -0.3438    2.5024 C.3     1  UNL1       -0.0415
      2 C          -8.7283   -1.1777    1.5492 C.3     1  UNL1        0.0482
      3 O          -7.9107   -1.8245    0.6453 O.3     1  UNL1       -0.3474
      4 C          -6.9862   -2.6802    1.1625 C.3     1  UNL1        0.1853
      5 O          -7.4670   -3.9782    0.7229 O.3     1  UNL1       -0.3474
      6 C          -7.8050   -4.7598    1.8028 C.3     1  UNL1        0.0482
      7 C          -8.3200   -6.0808    1.2239 C.3     1  UNL1       -0.0415
      8 C          -5.6200   -2.5080    0.6127 C.ar    1  UNL1        0.0079
      9 C          -5.3896   -2.6105   -0.7550 C.ar    1  UNL1       -0.0532
     10 C          -4.1481   -2.4856   -1.3231 C.ar    1  UNL1       -0.0542
     11 C          -3.0502   -2.2420   -0.4762 C.ar    1  UNL1       -0.0246
     12 C          -1.7262   -2.1684   -1.0691 C.2     1  UNL1       -0.0465
     13 C          -0.8110   -1.2832   -0.8443 C.2     1  UNL1        0.0141
     14 C          -1.0325   -0.1739    0.1031 C.3     1  UNL1        0.0277
     15 N          -0.2653    1.0025   -0.3308 N.3     1  UNL1       -0.2968
     16 C          -0.6776    1.4943   -1.6100 C.3     1  UNL1       -0.0121
     17 C           1.1525    0.7249   -0.2591 C.3     1  UNL1        0.0277
     18 C           1.4870   -0.3347   -1.2289 C.2     1  UNL1        0.0141
     19 C           2.6535   -0.4305   -1.8628 C.2     1  UNL1       -0.0465
     20 C           3.6837    0.5452   -1.6203 C.ar    1  UNL1       -0.0246
     21 C           3.5811    1.8873   -1.8783 C.ar    1  UNL1       -0.0542
     22 C           4.6074    2.7503   -1.5837 C.ar    1  UNL1       -0.0532
     23 C           5.7684    2.2927   -1.0200 C.ar    1  UNL1        0.0079
     24 C           6.8784    3.2370   -0.7236 C.3     1  UNL1        0.1853
     25 O           6.3242    4.4710   -0.4254 O.3     1  UNL1       -0.3474
     26 C           6.5134    4.8902    0.8739 C.3     1  UNL1        0.0482
     27 C           5.8566    3.9347    1.8661 C.3     1  UNL1       -0.0415
     28 O           7.7761    3.3711   -1.7522 O.3     1  UNL1       -0.3474
     29 C           9.0706    3.0545   -1.3600 C.3     1  UNL1        0.0482
     30 C          10.0400    3.2034   -2.5125 C.3     1  UNL1       -0.0415
     31 C           5.9133    0.9547   -0.7450 C.ar    1  UNL1       -0.0532
     32 C           4.8613    0.0812   -1.0498 C.ar    1  UNL1       -0.0542
     33 C           0.4780   -1.3443   -1.5218 C.2     1  UNL1        0.1878
     34 O           0.7277   -2.2590   -2.3556 O.2     1  UNL1       -0.2872
     35 C          -3.2594   -2.1361    0.8813 C.ar    1  UNL1       -0.0542
     36 C          -4.5300   -2.2668    1.4202 C.ar    1  UNL1       -0.0532
     37 H          -6.9251   -0.1063    2.1026 H       1  UNL1        0.0252
     38 H          -8.4424    0.6465    2.6644 H       1  UNL1        0.0252
     39 H          -7.8286   -0.8589    3.4918 H       1  UNL1        0.0252
     40 H          -9.4171   -0.4872    1.0023 H       1  UNL1        0.0558
     41 H          -9.3748   -1.8710    2.1349 H       1  UNL1        0.0558
     42 H          -7.0316   -2.6998    2.2643 H       1  UNL1        0.0964
     43 H          -6.9773   -5.0229    2.4601 H       1  UNL1        0.0558
     44 H          -8.6017   -4.2935    2.4381 H       1  UNL1        0.0558
     45 H          -7.5000   -6.5138    0.6289 H       1  UNL1        0.0252
     46 H          -9.1254   -5.8213    0.4969 H       1  UNL1        0.0252
     47 H          -8.6712   -6.7381    2.0192 H       1  UNL1        0.0252
     48 H          -6.2761   -2.7990   -1.3735 H       1  UNL1        0.0622
     49 H          -3.9887   -2.5669   -2.3937 H       1  UNL1        0.0624
     50 H          -1.4769   -2.9615   -1.7996 H       1  UNL1        0.0628
     51 H          -0.6612   -0.3649    1.1331 H       1  UNL1        0.0477
     52 H          -2.0894    0.1331    0.0569 H       1  UNL1        0.0477
     53 H          -1.8053    1.5250   -1.6098 H       1  UNL1        0.0391
     54 H          -0.3629    2.5448   -1.7640 H       1  UNL1        0.0391
     55 H          -0.3863    0.8341   -2.4367 H       1  UNL1        0.0391
     56 H           1.2930    0.2471    0.7598 H       1  UNL1        0.0477
     57 H           1.7016    1.6564   -0.3407 H       1  UNL1        0.0477
     58 H           2.7962   -1.2673   -2.5595 H       1  UNL1        0.0628
     59 H           2.6819    2.2881   -2.3392 H       1  UNL1        0.0624
     60 H           4.5210    3.8344   -1.7948 H       1  UNL1        0.0622
     61 H           7.4027    2.9082    0.2236 H       1  UNL1        0.0964
     62 H           6.1356    5.9156    0.9718 H       1  UNL1        0.0558
     63 H           7.5892    4.9300    1.1391 H       1  UNL1        0.0558
     64 H           5.3914    4.4477    2.7149 H       1  UNL1        0.0252
     65 H           6.5679    3.1597    2.2069 H       1  UNL1        0.0252
     66 H           5.0691    3.4028    1.2667 H       1  UNL1        0.0252
     67 H           9.1212    2.0090   -0.9360 H       1  UNL1        0.0558
     68 H           9.3503    3.7701   -0.5432 H       1  UNL1        0.0558
     69 H          10.5552    4.1828   -2.3864 H       1  UNL1        0.0252
     70 H           9.4544    3.2619   -3.4462 H       1  UNL1        0.0252
     71 H          10.7974    2.3866   -2.5152 H       1  UNL1        0.0252
     72 H           6.8223    0.5789   -0.3023 H       1  UNL1        0.0622
     73 H           4.9863   -0.9787   -0.8265 H       1  UNL1        0.0624
     74 H          -2.3937   -1.9489    1.4860 H       1  UNL1        0.0624
     75 H          -4.6242   -2.1700    2.5025 H       1  UNL1        0.0622
@<TRIPOS>BOND
     1     1     2    1
     2     2     3    1
     3     3     4    1
     4     4     5    1
     5     5     6    1
     6     6     7    1
     7     4     8    1
     8     8     9   ar
     9     9    10   ar
    10    10    11   ar
    11    11    12    1
    12    12    13    2
    13    13    14    1
    14    14    15    1
    15    15    16    1
    16    15    17    1
    17    17    18    1
    18    18    19    2
    19    19    20    1
    20    20    21   ar
    21    21    22   ar
    22    22    23   ar
    23    23    24    1
    24    24    25    1
    25    25    26    1
    26    26    27    1
    27    24    28    1
    28    28    29    1
    29    29    30    1
    30    23    31   ar
    31    31    32   ar
    32    18    33    1
    33    33    34    2
    34    11    35   ar
    35    35    36   ar
    36    36     8   ar
    37    33    13    1
    38    32    20   ar
    39     1    37    1
    40     1    38    1
    41     1    39    1
    42     2    40    1
    43     2    41    1
    44     4    42    1
    45     6    43    1
    46     6    44    1
    47     7    45    1
    48     7    46    1
    49     7    47    1
    50     9    48    1
    51    10    49    1
    52    12    50    1
    53    14    51    1
    54    14    52    1
    55    16    53    1
    56    16    54    1
    57    16    55    1
    58    17    56    1
    59    17    57    1
    60    19    58    1
    61    21    59    1
    62    22    60    1
    63    24    61    1
    64    26    62    1
    65    26    63    1
    66    27    64    1
    67    27    65    1
    68    27    66    1
    69    29    67    1
    70    29    68    1
    71    30    69    1
    72    30    70    1
    73    30    71    1
    74    31    72    1
    75    32    73    1
    76    35    74    1
    77    36    75    1
