@<TRIPOS>MOLECULE
*****
 47 48 0 0 0
SMALL
GASTEIGER

@<TRIPOS>ATOM
      1 C          -7.9849    1.1891    1.2723 C.3     1  UNL1        0.0790
      2 O          -7.4961   -0.1570    1.3150 O.3     1  UNL1       -0.4914
      3 C          -6.1258   -0.2999    1.2069 C.ar    1  UNL1        0.1618
      4 C          -5.2460    0.7317    1.0608 C.ar    1  UNL1       -0.0092
      5 C          -3.8557    0.5999    0.9509 C.ar    1  UNL1       -0.0212
      6 C          -3.0583    1.7635    0.8425 C.2     1  UNL1       -0.0512
      7 C          -1.8784    2.1012    0.5981 C.2     1  UNL1       -0.0182
      8 C          -0.6117    1.5649    0.2794 C.2     1  UNL1        0.1635
      9 O           0.3661    2.4471    0.1152 O.2     1  UNL1       -0.2922
     10 C          -0.2158    0.2038    0.1000 C.3     1  UNL1        0.0724
     11 C           1.2566    0.0961   -0.3880 C.2     1  UNL1        0.1635
     12 O           1.8060    1.1801   -0.5835 O.2     1  UNL1       -0.2922
     13 C           1.7228   -1.2412   -0.5231 C.2     1  UNL1       -0.0182
     14 C           2.8142   -1.8214   -0.8451 C.2     1  UNL1       -0.0512
     15 C           4.1247   -1.4309   -1.2281 C.ar    1  UNL1       -0.0212
     16 C           5.0089   -2.4180   -1.7210 C.ar    1  UNL1       -0.0509
     17 C           6.3112   -2.1597   -2.0671 C.ar    1  UNL1       -0.0160
     18 C           6.8196   -0.9031   -1.9469 C.ar    1  UNL1        0.1585
     19 O           8.1192   -0.5896   -2.2807 O.3     1  UNL1       -0.5033
     20 C           5.9938    0.1162   -1.4650 C.ar    1  UNL1        0.1618
     21 O           6.5401    1.3778   -1.3540 O.3     1  UNL1       -0.4914
     22 C           5.7718    2.4538   -0.8745 C.3     1  UNL1        0.0790
     23 C           4.6694   -0.1749   -1.1187 C.ar    1  UNL1       -0.0092
     24 C          -3.4041   -0.6774    1.0012 C.ar    1  UNL1       -0.0509
     25 C          -4.2862   -1.7737    1.1512 C.ar    1  UNL1       -0.0160
     26 C          -5.6250   -1.5940    1.2530 C.ar    1  UNL1        0.1585
     27 O          -6.4822   -2.6600    1.3977 O.3     1  UNL1       -0.5033
     28 H          -7.4319    1.7422    2.0615 H       1  UNL1        0.0660
     29 H          -7.6782    1.5901    0.2703 H       1  UNL1        0.0660
     30 H          -9.0758    1.2086    1.4248 H       1  UNL1        0.0660
     31 H          -5.6656    1.7188    1.0228 H       1  UNL1        0.0661
     32 H          -3.6965    2.7542    1.0751 H       1  UNL1        0.0625
     33 H          -1.8086    3.3041    0.6569 H       1  UNL1        0.0653
     34 H          -0.1955   -0.3968    1.0611 H       1  UNL1        0.0426
     35 H          -0.8380   -0.3558   -0.6208 H       1  UNL1        0.0426
     36 H           0.8803   -2.0014   -0.2729 H       1  UNL1        0.0653
     37 H           2.7266   -2.9910   -0.8040 H       1  UNL1        0.0625
     38 H           4.6541   -3.4224   -1.8393 H       1  UNL1        0.0625
     39 H           6.9774   -2.9266   -2.4446 H       1  UNL1        0.0655
     40 H           8.8399   -0.8707   -1.6012 H       1  UNL1        0.2923
     41 H           6.4461    3.3026   -0.5381 H       1  UNL1        0.0660
     42 H           5.1988    2.8953   -1.7395 H       1  UNL1        0.0660
     43 H           5.1093    2.1757   -0.0318 H       1  UNL1        0.0660
     44 H           4.0888    0.6337   -0.7387 H       1  UNL1        0.0661
     45 H          -2.3743   -0.9541    0.9597 H       1  UNL1        0.0625
     46 H          -3.8717   -2.7591    1.1817 H       1  UNL1        0.0655
     47 H          -7.3394   -2.5718    1.9454 H       1  UNL1        0.2923
@<TRIPOS>BOND
     1     1     2    1
     2     2     3    1
     3     3     4   ar
     4     4     5   ar
     5     5     6    1
     6     6     7    2
     7     7     8    1
     8     8     9    2
     9     8    10    1
    10    10    11    1
    11    11    12    2
    12    11    13    1
    13    13    14    2
    14    14    15    1
    15    15    16   ar
    16    16    17   ar
    17    17    18   ar
    18    18    19    1
    19    18    20   ar
    20    20    21    1
    21    21    22    1
    22    20    23   ar
    23     5    24   ar
    24    24    25   ar
    25    25    26   ar
    26    26    27    1
    27    26     3   ar
    28    23    15   ar
    29     1    28    1
    30     1    29    1
    31     1    30    1
    32     4    31    1
    33     6    32    1
    34     7    33    1
    35    10    34    1
    36    10    35    1
    37    13    36    1
    38    14    37    1
    39    16    38    1
    40    17    39    1
    41    19    40    1
    42    22    41    1
    43    22    42    1
    44    22    43    1
    45    23    44    1
    46    24    45    1
    47    25    46    1
    48    27    47    1
