@<TRIPOS>MOLECULE
*****
 37 39 0 0 0
SMALL
GASTEIGER

@<TRIPOS>ATOM
      1 C           6.1494   -1.4850    0.0371 C.3     1  UNL1       -0.0397
      2 C           5.2185   -0.3355    0.3106 C.ar    1  UNL1       -0.0487
      3 C           5.6175    0.6747    1.1581 C.ar    1  UNL1       -0.0587
      4 C           4.7848    1.7264    1.4178 C.ar    1  UNL1       -0.0598
      5 C           3.5296    1.7389    0.7997 C.ar    1  UNL1       -0.0405
      6 C           3.1493    0.7168   -0.0461 C.ar    1  UNL1        0.0339
      7 N           1.8401    0.8292   -0.6270 N.am    1  UNL1       -0.2813
      8 C           0.6858    0.3157   -0.0463 C.2     1  UNL1        0.2552
      9 O           0.8653   -0.2856    1.0783 O.2     1  UNL1       -0.2696
     10 C          -0.6714    0.3633   -0.5255 C.ar    1  UNL1        0.1219
     11 C          -1.7163   -0.2173    0.2066 C.ar    1  UNL1       -0.0320
     12 C          -3.0094   -0.1638   -0.2644 C.ar    1  UNL1        0.0186
     13 C          -4.0299   -0.7389    0.4650 C.ar    1  UNL1       -0.0481
     14 C          -5.3491   -0.7275    0.0616 C.ar    1  UNL1       -0.0497
     15 C          -6.4042   -1.3655    0.8932 C.3     1  UNL1       -0.0397
     16 C          -5.6225   -0.0974   -1.1418 C.ar    1  UNL1       -0.0553
     17 C          -4.6137    0.4825   -1.8831 C.ar    1  UNL1       -0.0184
     18 C          -3.2921    0.4597   -1.4586 C.ar    1  UNL1        0.1391
     19 O          -2.3189    0.9844   -2.1119 O.2     1  UNL1       -0.4216
     20 C          -1.0443    0.9580   -1.6945 C.ar    1  UNL1        0.3495
     21 O          -0.1908    1.5115   -2.4340 O.2     1  UNL1       -0.2443
     22 C           3.9920   -0.3301   -0.2978 C.ar    1  UNL1       -0.0376
     23 H           5.7990   -2.0525   -0.8502 H       1  UNL1        0.0278
     24 H           7.1425   -1.0421   -0.2206 H       1  UNL1        0.0278
     25 H           6.2061   -2.1806    0.8796 H       1  UNL1        0.0278
     26 H           6.6123    0.6241    1.6218 H       1  UNL1        0.0620
     27 H           5.1072    2.5023    2.0766 H       1  UNL1        0.0618
     28 H           2.9028    2.5871    1.0315 H       1  UNL1        0.0636
     29 H           1.7882    1.3255   -1.5273 H       1  UNL1        0.1551
     30 H          -1.4673   -0.7045    1.1480 H       1  UNL1        0.0634
     31 H          -3.8175   -1.2409    1.4223 H       1  UNL1        0.0627
     32 H          -7.1453   -1.8916    0.2229 H       1  UNL1        0.0278
     33 H          -5.9203   -2.1270    1.5341 H       1  UNL1        0.0278
     34 H          -6.9218   -0.6276    1.5534 H       1  UNL1        0.0278
     35 H          -6.6572   -0.0628   -1.5040 H       1  UNL1        0.0621
     36 H          -4.8380    0.9809   -2.8372 H       1  UNL1        0.0654
     37 H           3.6395   -1.1048   -0.9709 H       1  UNL1        0.0639
@<TRIPOS>BOND
     1     1     2    1
     2     2     3   ar
     3     3     4   ar
     4     4     5   ar
     5     5     6   ar
     6     6     7    1
     7     7     8   am
     8     8     9    2
     9     8    10    1
    10    10    11   ar
    11    11    12   ar
    12    12    13   ar
    13    13    14   ar
    14    14    15    1
    15    14    16   ar
    16    16    17   ar
    17    17    18   ar
    18    18    19   ar
    19    19    20   ar
    20    20    21    2
    21     6    22   ar
    22    22     2   ar
    23    20    10   ar
    24    18    12   ar
    25     1    23    1
    26     1    24    1
    27     1    25    1
    28     3    26    1
    29     4    27    1
    30     5    28    1
    31     7    29    1
    32    11    30    1
    33    13    31    1
    34    15    32    1
    35    15    33    1
    36    15    34    1
    37    16    35    1
    38    17    36    1
    39    22    37    1
