
     RDKit          3D

 43 46  0  0  0  0  0  0  0  0999 V2000
   -2.8359    3.0606    1.4523 C   0  0  0  0  0  0  0  0  0  0  0  0
   -2.4131    1.9622    0.5711 N   0  0  0  0  0  0  0  0  0  0  0  0
   -1.5573    0.8753    0.8926 C   0  0  0  0  0  0  0  0  0  0  0  0
   -1.0509    0.7650    2.0585 O   0  0  0  0  0  0  0  0  0  0  0  0
   -1.4243    0.0327   -0.2940 C   0  0  0  0  0  0  0  0  0  0  0  0
   -1.9544   -1.3377   -0.0589 C   0  0  0  0  0  0  0  0  0  0  0  0
   -2.3370   -1.8137    1.1769 C   0  0  0  0  0  0  0  0  0  0  0  0
   -2.8178   -3.0946    1.3259 C   0  0  0  0  0  0  0  0  0  0  0  0
   -2.9297   -3.9187    0.2802 N   0  0  0  0  0  0  0  0  0  0  0  0
   -2.5712   -3.4946   -0.9228 C   0  0  0  0  0  0  0  0  0  0  0  0
   -2.0862   -2.2228   -1.1158 C   0  0  0  0  0  0  0  0  0  0  0  0
   -0.0395    0.0139   -0.8350 C   0  0  0  0  0  0  0  0  0  0  0  0
    0.1493   -0.0030   -2.1998 C   0  0  0  0  0  0  0  0  0  0  0  0
    1.4396   -0.0245   -2.7365 C   0  0  0  0  0  0  0  0  0  0  0  0
    2.5144   -0.0284   -1.8749 C   0  0  0  0  0  0  0  0  0  0  0  0
    2.3608   -0.0117   -0.4952 C   0  0  0  0  0  0  0  0  0  0  0  0
    3.5050   -0.0164    0.4081 C   0  0  0  0  0  0  0  0  0  0  0  0
    3.5962   -0.8178    1.5245 C   0  0  0  0  0  0  0  0  0  0  0  0
    4.7268   -0.7685    2.3439 C   0  0  0  0  0  0  0  0  0  0  0  0
    5.7714    0.0820    2.0512 C   0  0  0  0  0  0  0  0  0  0  0  0
    5.6657    0.8571    0.9581 N   0  0  0  0  0  0  0  0  0  0  0  0
    4.5677    0.8210    0.1471 C   0  0  0  0  0  0  0  0  0  0  0  0
    4.4913    1.6183   -0.9517 F   0  0  0  0  0  0  0  0  0  0  0  0
    1.0646    0.0092   -0.0294 C   0  0  0  0  0  0  0  0  0  0  0  0
   -2.2548    0.7264   -1.2836 N   0  0  0  0  0  0  0  0  0  0  0  0
   -2.7840    1.7764   -0.7857 C   0  0  0  0  0  0  0  0  0  0  0  0
   -3.6498    2.6611   -1.5118 N   0  0  0  0  0  0  0  0  0  0  0  0
   -3.9493    3.0156    1.5739 H   0  0  0  0  0  0  0  0  0  0  0  0
   -2.3932    2.8959    2.4426 H   0  0  0  0  0  0  0  0  0  0  0  0
   -2.5039    4.0326    1.0683 H   0  0  0  0  0  0  0  0  0  0  0  0
   -2.2685   -1.1918    2.0502 H   0  0  0  0  0  0  0  0  0  0  0  0
   -3.1217   -3.4738    2.3053 H   0  0  0  0  0  0  0  0  0  0  0  0
   -2.6662   -4.1780   -1.7752 H   0  0  0  0  0  0  0  0  0  0  0  0
   -1.8196   -1.9628   -2.1255 H   0  0  0  0  0  0  0  0  0  0  0  0
   -0.6986    0.0021   -2.8874 H   0  0  0  0  0  0  0  0  0  0  0  0
    1.5206   -0.0373   -3.8147 H   0  0  0  0  0  0  0  0  0  0  0  0
    3.5058   -0.0447   -2.2739 H   0  0  0  0  0  0  0  0  0  0  0  0
    2.7616   -1.4767    1.7311 H   0  0  0  0  0  0  0  0  0  0  0  0
    4.7877   -1.4105    3.2285 H   0  0  0  0  0  0  0  0  0  0  0  0
    6.6556    0.1295    2.6800 H   0  0  0  0  0  0  0  0  0  0  0  0
    0.9168    0.0224    1.0383 H   0  0  0  0  0  0  0  0  0  0  0  0
   -3.2467    3.1086   -2.3600 H   0  0  0  0  0  0  0  0  0  0  0  0
   -4.6276    2.8600   -1.2277 H   0  0  0  0  0  0  0  0  0  0  0  0
  1  2  1  0
  2  3  1  0
  3  4  2  0
  3  5  1  0
  5  6  1  0
  6  7  2  0
  7  8  1  0
  8  9  2  0
  9 10  1  0
 10 11  2  0
  5 12  1  0
 12 13  2  0
 13 14  1  0
 14 15  2  0
 15 16  1  0
 16 17  1  0
 17 18  2  0
 18 19  1  0
 19 20  2  0
 20 21  1  0
 21 22  2  0
 22 23  1  0
 16 24  2  0
  5 25  1  0
 25 26  2  0
 26 27  1  0
 26  2  1  0
 11  6  1  0
 24 12  1  0
 22 17  1  0
  1 28  1  0
  1 29  1  0
  1 30  1  0
  7 31  1  0
  8 32  1  0
 10 33  1  0
 11 34  1  0
 13 35  1  0
 14 36  1  0
 15 37  1  0
 18 38  1  0
 19 39  1  0
 20 40  1  0
 24 41  1  0
 27 42  1  0
 27 43  1  0
M  END
$$$$
