@<TRIPOS>MOLECULE
*****
 43 46 0 0 0
SMALL
GASTEIGER

@<TRIPOS>ATOM
      1 C          -2.8359    3.0606    1.4523 C.3     1  UNL1        0.0573
      2 N          -2.4131    1.9622    0.5711 N.am    1  UNL1       -0.1614
      3 C          -1.5573    0.8753    0.8926 C.2     1  UNL1        0.3303
      4 O          -1.0509    0.7650    2.0585 O.2     1  UNL1       -0.2520
      5 C          -1.4243    0.0327   -0.2940 C.3     1  UNL1        0.2647
      6 C          -1.9544   -1.3377   -0.0589 C.ar    1  UNL1        0.0135
      7 C          -2.3370   -1.8137    1.1769 C.ar    1  UNL1       -0.0359
      8 C          -2.8178   -3.0946    1.3259 C.ar    1  UNL1        0.0280
      9 N          -2.9297   -3.9187    0.2802 N.ar    1  UNL1       -0.2632
     10 C          -2.5712   -3.4946   -0.9228 C.ar    1  UNL1        0.0280
     11 C          -2.0862   -2.2228   -1.1158 C.ar    1  UNL1       -0.0359
     12 C          -0.0395    0.0139   -0.8350 C.ar    1  UNL1        0.0112
     13 C           0.1493   -0.0030   -2.1998 C.ar    1  UNL1       -0.0540
     14 C           1.4396   -0.0245   -2.7365 C.ar    1  UNL1       -0.0608
     15 C           2.5144   -0.0284   -1.8749 C.ar    1  UNL1       -0.0539
     16 C           2.3608   -0.0117   -0.4952 C.ar    1  UNL1       -0.0132
     17 C           3.5050   -0.0164    0.4081 C.ar    1  UNL1        0.0365
     18 C           3.5962   -0.8178    1.5245 C.ar    1  UNL1       -0.0483
     19 C           4.7268   -0.7685    2.3439 C.ar    1  UNL1       -0.0428
     20 C           5.7714    0.0820    2.0512 C.ar    1  UNL1        0.0307
     21 N           5.6657    0.8571    0.9581 N.ar    1  UNL1       -0.2271
     22 C           4.5677    0.8210    0.1471 C.ar    1  UNL1        0.2209
     23 F           4.4913    1.6183   -0.9517 F       1  UNL1       -0.1832
     24 C           1.0646    0.0092   -0.0294 C.ar    1  UNL1       -0.0462
     25 N          -2.2548    0.7264   -1.2836 N.2     1  UNL1       -0.0891
     26 C          -2.7840    1.7764   -0.7857 C.2     1  UNL1        0.3731
     27 N          -3.6498    2.6611   -1.5118 N.pl3   1  UNL1       -0.2512
     28 H          -3.9493    3.0156    1.5739 H       1  UNL1        0.0602
     29 H          -2.3932    2.8959    2.4426 H       1  UNL1        0.0602
     30 H          -2.5039    4.0326    1.0683 H       1  UNL1        0.0602
     31 H          -2.2685   -1.1918    2.0502 H       1  UNL1        0.0637
     32 H          -3.1217   -3.4738    2.3053 H       1  UNL1        0.0829
     33 H          -2.6662   -4.1780   -1.7752 H       1  UNL1        0.0829
     34 H          -1.8196   -1.9628   -2.1255 H       1  UNL1        0.0637
     35 H          -0.6986    0.0021   -2.8874 H       1  UNL1        0.0622
     36 H           1.5206   -0.0373   -3.8147 H       1  UNL1        0.0618
     37 H           3.5058   -0.0447   -2.2739 H       1  UNL1        0.0624
     38 H           2.7616   -1.4767    1.7311 H       1  UNL1        0.0625
     39 H           4.7877   -1.4105    3.2285 H       1  UNL1        0.0633
     40 H           6.6556    0.1295    2.6800 H       1  UNL1        0.0830
     41 H           0.9168    0.0224    1.0383 H       1  UNL1        0.0628
     42 H          -3.2467    3.1086   -2.3600 H       1  UNL1        0.2412
     43 H          -4.6276    2.8600   -1.2277 H       1  UNL1        0.2412
@<TRIPOS>BOND
     1     1     2    1
     2     2     3   am
     3     3     4    2
     4     3     5    1
     5     5     6    1
     6     6     7   ar
     7     7     8   ar
     8     8     9   ar
     9     9    10   ar
    10    10    11   ar
    11     5    12    1
    12    12    13   ar
    13    13    14   ar
    14    14    15   ar
    15    15    16   ar
    16    16    17    1
    17    17    18   ar
    18    18    19   ar
    19    19    20   ar
    20    20    21   ar
    21    21    22   ar
    22    22    23    1
    23    16    24   ar
    24     5    25    1
    25    25    26    2
    26    26    27    1
    27    26     2    1
    28    11     6   ar
    29    24    12   ar
    30    22    17   ar
    31     1    28    1
    32     1    29    1
    33     1    30    1
    34     7    31    1
    35     8    32    1
    36    10    33    1
    37    11    34    1
    38    13    35    1
    39    14    36    1
    40    15    37    1
    41    18    38    1
    42    19    39    1
    43    20    40    1
    44    24    41    1
    45    27    42    1
    46    27    43    1
