@<TRIPOS>MOLECULE
*****
 39 41 0 0 0
SMALL
GASTEIGER

@<TRIPOS>ATOM
      1 C           5.2550    2.2535    0.4761 C.3     1  UNL1        0.0790
      2 O           4.4888    1.0975    0.6731 O.3     1  UNL1       -0.4915
      3 C           3.1782    0.9443    0.2537 C.ar    1  UNL1        0.1615
      4 C           2.4750    1.9147   -0.4079 C.ar    1  UNL1       -0.0157
      5 C           1.1782    1.6756   -0.7857 C.ar    1  UNL1       -0.0491
      6 C           0.5005    0.4737   -0.5358 C.ar    1  UNL1        0.0017
      7 C          -0.8661    0.3170   -1.0357 C.2     1  UNL1        0.0706
      8 N          -1.2712    1.2794   -1.7760 N.2     1  UNL1       -0.1840
      9 N          -2.4751    1.4414   -2.4005 N.am    1  UNL1       -0.2065
     10 C          -3.4259    0.3754   -2.1994 C.2     1  UNL1        0.2362
     11 O          -4.3430    0.2064   -3.0010 O.2     1  UNL1       -0.2737
     12 C          -3.2260   -0.4543   -1.0200 C.3     1  UNL1        0.0491
     13 C          -3.7978    0.2607    0.2363 C.3     1  UNL1       -0.0230
     14 C          -3.9503   -0.8651    1.1926 C.2     1  UNL1       -0.0872
     15 C          -2.8993   -1.6295    1.3612 C.2     1  UNL1       -0.0873
     16 C          -1.6298   -1.3828    0.6422 C.3     1  UNL1       -0.0257
     17 C          -1.7843   -0.7950   -0.7083 C.3     1  UNL1        0.0182
     18 C           1.2388   -0.4671    0.1244 C.ar    1  UNL1       -0.0074
     19 C           2.5731   -0.2582    0.5295 C.ar    1  UNL1        0.1621
     20 O           3.2523   -1.2663    1.1978 O.3     1  UNL1       -0.4914
     21 C           2.7052   -2.5078    1.5112 C.3     1  UNL1        0.0790
     22 H           5.5830    2.2933   -0.5679 H       1  UNL1        0.0660
     23 H           6.1803    2.1465    1.1096 H       1  UNL1        0.0660
     24 H           4.7656    3.1830    0.8204 H       1  UNL1        0.0660
     25 H           2.9398    2.8593   -0.6292 H       1  UNL1        0.0655
     26 H           0.6715    2.4941   -1.3107 H       1  UNL1        0.0625
     27 H          -2.7008    2.2729   -2.9839 H       1  UNL1        0.1772
     28 H          -3.8286   -1.3786   -1.1191 H       1  UNL1        0.0404
     29 H          -3.0252    0.9586    0.6285 H       1  UNL1        0.0315
     30 H          -4.7380    0.7407   -0.0309 H       1  UNL1        0.0315
     31 H          -4.8821   -1.0184    1.7019 H       1  UNL1        0.0569
     32 H          -2.9622   -2.5000    2.0755 H       1  UNL1        0.0569
     33 H          -1.0739   -0.6414    1.2887 H       1  UNL1        0.0314
     34 H          -1.0929   -2.3732    0.6243 H       1  UNL1        0.0314
     35 H          -1.5482   -1.6391   -1.4480 H       1  UNL1        0.0375
     36 H           0.8172   -1.4154    0.3207 H       1  UNL1        0.0662
     37 H           1.6602   -2.4232    1.8801 H       1  UNL1        0.0660
     38 H           3.3385   -3.0381    2.2446 H       1  UNL1        0.0660
     39 H           2.7197   -3.1345    0.5859 H       1  UNL1        0.0660
@<TRIPOS>BOND
     1     1     2    1
     2     2     3    1
     3     3     4   ar
     4     4     5   ar
     5     5     6   ar
     6     6     7    1
     7     7     8    2
     8     8     9    1
     9     9    10   am
    10    10    11    2
    11    10    12    1
    12    12    13    1
    13    13    14    1
    14    14    15    2
    15    15    16    1
    16    16    17    1
    17     6    18   ar
    18    18    19   ar
    19    19    20    1
    20    20    21    1
    21    19     3   ar
    22    17     7    1
    23    17    12    1
    24     1    22    1
    25     1    23    1
    26     1    24    1
    27     4    25    1
    28     5    26    1
    29     9    27    1
    30    12    28    1
    31    13    29    1
    32    13    30    1
    33    14    31    1
    34    15    32    1
    35    16    33    1
    36    16    34    1
    37    17    35    1
    38    18    36    1
    39    21    37    1
    40    21    38    1
    41    21    39    1
