
     RDKit          3D

 39 41  0  0  0  0  0  0  0  0999 V2000
    5.2550    2.2535    0.4761 C   0  0  0  0  0  0  0  0  0  0  0  0
    4.4888    1.0975    0.6731 O   0  0  0  0  0  0  0  0  0  0  0  0
    3.1782    0.9443    0.2537 C   0  0  0  0  0  0  0  0  0  0  0  0
    2.4750    1.9147   -0.4079 C   0  0  0  0  0  0  0  0  0  0  0  0
    1.1782    1.6756   -0.7857 C   0  0  0  0  0  0  0  0  0  0  0  0
    0.5005    0.4737   -0.5358 C   0  0  0  0  0  0  0  0  0  0  0  0
   -0.8661    0.3170   -1.0357 C   0  0  0  0  0  0  0  0  0  0  0  0
   -1.2712    1.2794   -1.7760 N   0  0  0  0  0  0  0  0  0  0  0  0
   -2.4751    1.4414   -2.4005 N   0  0  0  0  0  0  0  0  0  0  0  0
   -3.4259    0.3754   -2.1994 C   0  0  0  0  0  0  0  0  0  0  0  0
   -4.3430    0.2064   -3.0010 O   0  0  0  0  0  0  0  0  0  0  0  0
   -3.2260   -0.4543   -1.0200 C   0  0  2  0  0  0  0  0  0  0  0  0
   -3.7978    0.2607    0.2363 C   0  0  0  0  0  0  0  0  0  0  0  0
   -3.9503   -0.8651    1.1926 C   0  0  0  0  0  0  0  0  0  0  0  0
   -2.8993   -1.6295    1.3612 C   0  0  0  0  0  0  0  0  0  0  0  0
   -1.6298   -1.3828    0.6422 C   0  0  0  0  0  0  0  0  0  0  0  0
   -1.7843   -0.7950   -0.7083 C   0  0  2  0  0  0  0  0  0  0  0  0
    1.2388   -0.4671    0.1244 C   0  0  0  0  0  0  0  0  0  0  0  0
    2.5731   -0.2582    0.5295 C   0  0  0  0  0  0  0  0  0  0  0  0
    3.2523   -1.2663    1.1978 O   0  0  0  0  0  0  0  0  0  0  0  0
    2.7052   -2.5078    1.5112 C   0  0  0  0  0  0  0  0  0  0  0  0
    5.5830    2.2933   -0.5679 H   0  0  0  0  0  0  0  0  0  0  0  0
    6.1803    2.1465    1.1096 H   0  0  0  0  0  0  0  0  0  0  0  0
    4.7656    3.1830    0.8204 H   0  0  0  0  0  0  0  0  0  0  0  0
    2.9398    2.8593   -0.6292 H   0  0  0  0  0  0  0  0  0  0  0  0
    0.6715    2.4941   -1.3107 H   0  0  0  0  0  0  0  0  0  0  0  0
   -2.7008    2.2729   -2.9839 H   0  0  0  0  0  0  0  0  0  0  0  0
   -3.8286   -1.3786   -1.1191 H   0  0  0  0  0  0  0  0  0  0  0  0
   -3.0252    0.9586    0.6285 H   0  0  0  0  0  0  0  0  0  0  0  0
   -4.7380    0.7407   -0.0309 H   0  0  0  0  0  0  0  0  0  0  0  0
   -4.8821   -1.0184    1.7019 H   0  0  0  0  0  0  0  0  0  0  0  0
   -2.9622   -2.5000    2.0755 H   0  0  0  0  0  0  0  0  0  0  0  0
   -1.0739   -0.6414    1.2887 H   0  0  0  0  0  0  0  0  0  0  0  0
   -1.0929   -2.3732    0.6243 H   0  0  0  0  0  0  0  0  0  0  0  0
   -1.5482   -1.6391   -1.4480 H   0  0  0  0  0  0  0  0  0  0  0  0
    0.8172   -1.4154    0.3207 H   0  0  0  0  0  0  0  0  0  0  0  0
    1.6602   -2.4232    1.8801 H   0  0  0  0  0  0  0  0  0  0  0  0
    3.3385   -3.0381    2.2446 H   0  0  0  0  0  0  0  0  0  0  0  0
    2.7197   -3.1345    0.5859 H   0  0  0  0  0  0  0  0  0  0  0  0
  1  2  1  0
  2  3  1  0
  3  4  2  0
  4  5  1  0
  5  6  2  0
  6  7  1  0
  7  8  2  0
  8  9  1  0
  9 10  1  0
 10 11  2  0
 10 12  1  0
 12 13  1  0
 13 14  1  0
 14 15  2  0
 15 16  1  0
 16 17  1  0
  6 18  1  0
 18 19  2  0
 19 20  1  0
 20 21  1  0
 19  3  1  0
 17  7  1  0
 17 12  1  0
  1 22  1  0
  1 23  1  0
  1 24  1  0
  4 25  1  0
  5 26  1  0
  9 27  1  0
 12 28  1  6
 13 29  1  0
 13 30  1  0
 14 31  1  0
 15 32  1  0
 16 33  1  0
 16 34  1  0
 17 35  1  6
 18 36  1  0
 21 37  1  0
 21 38  1  0
 21 39  1  0
M  END
$$$$
