
     RDKit          3D

 53 57  0  0  0  0  0  0  0  0999 V2000
   -0.6740    4.7686   -1.3478 C   0  0  0  0  0  0  0  0  0  0  0  0
   -0.2006    3.6608   -0.5342 N   0  0  0  0  0  0  0  0  0  0  0  0
   -0.0351    2.3204   -0.9499 C   0  0  0  0  0  0  0  0  0  0  0  0
   -0.2645    1.8584   -2.0776 O   0  0  0  0  0  0  0  0  0  0  0  0
    0.4646    1.5749    0.2202 C   0  0  0  0  0  0  0  0  0  0  0  0
    1.8283    1.0827   -0.0365 C   0  0  0  0  0  0  0  0  0  0  0  0
    2.7692    2.0190   -0.4409 C   0  0  0  0  0  0  0  0  0  0  0  0
    4.0706    1.6359   -0.7004 C   0  0  0  0  0  0  0  0  0  0  0  0
    4.4258    0.3162   -0.5541 C   0  0  0  0  0  0  0  0  0  0  0  0
    3.5178   -0.6537   -0.1521 C   0  0  0  0  0  0  0  0  0  0  0  0
    3.8988   -2.0505    0.0015 C   0  0  0  0  0  0  0  0  0  0  0  0
    3.2953   -2.8672    0.9345 C   0  0  0  0  0  0  0  0  0  0  0  0
    3.6931   -4.1514    1.0269 N   0  0  0  0  0  0  0  0  0  0  0  0
    4.6499   -4.6969    0.2620 C   0  0  0  0  0  0  0  0  0  0  0  0
    5.2451   -3.8939   -0.6572 N   0  0  0  0  0  0  0  0  0  0  0  0
    4.8834   -2.5980   -0.7911 C   0  0  0  0  0  0  0  0  0  0  0  0
    2.2214   -0.2197    0.0971 C   0  0  0  0  0  0  0  0  0  0  0  0
   -0.4730    0.5476    0.6931 C   0  0  0  0  0  0  0  0  0  0  0  0
   -0.3296   -0.1521    1.8721 C   0  0  0  0  0  0  0  0  0  0  0  0
   -1.3768   -0.9891    1.9554 N   0  0  0  0  0  0  0  0  0  0  0  0
   -2.1699   -0.8542    0.8948 N   0  0  0  0  0  0  0  0  0  0  0  0
   -3.3735   -1.6139    0.6997 C   0  0  0  0  0  0  0  0  0  0  0  0
   -3.2693   -2.6447   -0.4059 C   0  0  0  0  0  0  0  0  0  0  0  0
   -4.7399   -3.0584   -0.5346 C   0  0  0  0  0  0  0  0  0  0  0  0
   -5.5025   -1.7752   -0.3195 C   0  0  0  0  0  0  0  0  0  0  0  0
   -4.5090   -0.7476    0.1727 C   0  0  0  0  0  0  0  0  0  0  0  0
   -1.6310    0.0835    0.1107 C   0  0  0  0  0  0  0  0  0  0  0  0
    0.5588    2.5857    1.2853 N   0  0  0  0  0  0  0  0  0  0  0  0
    0.1879    3.7341    0.8540 C   0  0  0  0  0  0  0  0  0  0  0  0
    0.1558    4.9288    1.6250 N   0  0  0  0  0  0  0  0  0  0  0  0
   -0.8990    5.6212   -0.6764 H   0  0  0  0  0  0  0  0  0  0  0  0
   -1.6488    4.4934   -1.8276 H   0  0  0  0  0  0  0  0  0  0  0  0
    0.0747    5.0878   -2.0918 H   0  0  0  0  0  0  0  0  0  0  0  0
    2.4752    3.0625   -0.5532 H   0  0  0  0  0  0  0  0  0  0  0  0
    4.7620    2.4041   -1.0115 H   0  0  0  0  0  0  0  0  0  0  0  0
    5.4351    0.0240   -0.7561 H   0  0  0  0  0  0  0  0  0  0  0  0
    2.5164   -2.5187    1.5943 H   0  0  0  0  0  0  0  0  0  0  0  0
    4.9765   -5.7237    0.3276 H   0  0  0  0  0  0  0  0  0  0  0  0
    5.4012   -2.0212   -1.5436 H   0  0  0  0  0  0  0  0  0  0  0  0
    1.4904   -0.9513    0.4121 H   0  0  0  0  0  0  0  0  0  0  0  0
    0.4429   -0.0921    2.6251 H   0  0  0  0  0  0  0  0  0  0  0  0
   -3.7039   -2.1156    1.6158 H   0  0  0  0  0  0  0  0  0  0  0  0
   -2.9459   -2.0997   -1.3275 H   0  0  0  0  0  0  0  0  0  0  0  0
   -2.6309   -3.4895   -0.1498 H   0  0  0  0  0  0  0  0  0  0  0  0
   -4.9530   -3.5616   -1.4754 H   0  0  0  0  0  0  0  0  0  0  0  0
   -4.9353   -3.7392    0.3234 H   0  0  0  0  0  0  0  0  0  0  0  0
   -6.3106   -1.9565    0.4408 H   0  0  0  0  0  0  0  0  0  0  0  0
   -6.0282   -1.4624   -1.2403 H   0  0  0  0  0  0  0  0  0  0  0  0
   -4.1376   -0.2130   -0.7443 H   0  0  0  0  0  0  0  0  0  0  0  0
   -4.9135   -0.0611    0.9198 H   0  0  0  0  0  0  0  0  0  0  0  0
   -2.0154    0.4332   -0.8192 H   0  0  0  0  0  0  0  0  0  0  0  0
    0.8515    5.6976    1.5457 H   0  0  0  0  0  0  0  0  0  0  0  0
   -0.6211    5.0314    2.3134 H   0  0  0  0  0  0  0  0  0  0  0  0
  1  2  1  0
  2  3  1  0
  3  4  2  0
  3  5  1  0
  5  6  1  0
  6  7  2  0
  7  8  1  0
  8  9  2  0
  9 10  1  0
 10 11  1  0
 11 12  2  0
 12 13  1  0
 13 14  2  0
 14 15  1  0
 15 16  2  0
 10 17  2  0
  5 18  1  0
 18 19  1  0
 19 20  2  0
 20 21  1  0
 21 22  1  0
 22 23  1  0
 23 24  1  0
 24 25  1  0
 25 26  1  0
 21 27  1  0
  5 28  1  0
 28 29  2  0
 29 30  1  0
 29  2  1  0
 17  6  1  0
 27 18  2  0
 16 11  1  0
 26 22  1  0
  1 31  1  0
  1 32  1  0
  1 33  1  0
  7 34  1  0
  8 35  1  0
  9 36  1  0
 12 37  1  0
 14 38  1  0
 16 39  1  0
 17 40  1  0
 19 41  1  0
 22 42  1  0
 23 43  1  0
 23 44  1  0
 24 45  1  0
 24 46  1  0
 25 47  1  0
 25 48  1  0
 26 49  1  0
 26 50  1  0
 27 51  1  0
 30 52  1  0
 30 53  1  0
M  END
$$$$
