@<TRIPOS>MOLECULE
*****
 53 57 0 0 0
SMALL
GASTEIGER

@<TRIPOS>ATOM
      1 C          -0.6740    4.7686   -1.3478 C.3     1  UNL1        0.0573
      2 N          -0.2006    3.6608   -0.5342 N.am    1  UNL1       -0.1614
      3 C          -0.0351    2.3204   -0.9499 C.2     1  UNL1        0.3304
      4 O          -0.2645    1.8584   -2.0776 O.2     1  UNL1       -0.2520
      5 C           0.4646    1.5749    0.2202 C.3     1  UNL1        0.2674
      6 C           1.8283    1.0827   -0.0365 C.ar    1  UNL1        0.0113
      7 C           2.7692    2.0190   -0.4409 C.ar    1  UNL1       -0.0540
      8 C           4.0706    1.6359   -0.7004 C.ar    1  UNL1       -0.0608
      9 C           4.4258    0.3162   -0.5541 C.ar    1  UNL1       -0.0539
     10 C           3.5178   -0.6537   -0.1521 C.ar    1  UNL1       -0.0146
     11 C           3.8988   -2.0505    0.0015 C.ar    1  UNL1        0.0183
     12 C           3.2953   -2.8672    0.9345 C.ar    1  UNL1        0.0385
     13 N           3.6931   -4.1514    1.0269 N.ar    1  UNL1       -0.2431
     14 C           4.6499   -4.6969    0.2620 C.ar    1  UNL1        0.1159
     15 N           5.2451   -3.8939   -0.6572 N.ar    1  UNL1       -0.2431
     16 C           4.8834   -2.5980   -0.7911 C.ar    1  UNL1        0.0385
     17 C           2.2214   -0.2197    0.0971 C.ar    1  UNL1       -0.0462
     18 C          -0.4730    0.5476    0.6931 C.ar    1  UNL1        0.0481
     19 C          -0.3296   -0.1521    1.8721 C.ar    1  UNL1        0.0571
     20 N          -1.3768   -0.9891    1.9554 N.ar    1  UNL1       -0.1790
     21 N          -2.1699   -0.8542    0.8948 N.ar    1  UNL1       -0.2680
     22 C          -3.3735   -1.6139    0.6997 C.3     1  UNL1        0.0527
     23 C          -3.2693   -2.6447   -0.4059 C.3     1  UNL1       -0.0305
     24 C          -4.7399   -3.0584   -0.5346 C.3     1  UNL1       -0.0511
     25 C          -5.5025   -1.7752   -0.3195 C.3     1  UNL1       -0.0511
     26 C          -4.5090   -0.7476    0.1727 C.3     1  UNL1       -0.0305
     27 C          -1.6310    0.0835    0.1107 C.ar    1  UNL1        0.0335
     28 N           0.5588    2.5857    1.2853 N.2     1  UNL1       -0.0890
     29 C           0.1879    3.7341    0.8540 C.2     1  UNL1        0.3731
     30 N           0.1558    4.9288    1.6250 N.pl3   1  UNL1       -0.2512
     31 H          -0.8990    5.6212   -0.6764 H       1  UNL1        0.0602
     32 H          -1.6488    4.4934   -1.8276 H       1  UNL1        0.0602
     33 H           0.0747    5.0878   -2.0918 H       1  UNL1        0.0602
     34 H           2.4752    3.0625   -0.5532 H       1  UNL1        0.0622
     35 H           4.7620    2.4041   -1.0115 H       1  UNL1        0.0618
     36 H           5.4351    0.0240   -0.7561 H       1  UNL1        0.0624
     37 H           2.5164   -2.5187    1.5943 H       1  UNL1        0.0837
     38 H           4.9765   -5.7237    0.3276 H       1  UNL1        0.1047
     39 H           5.4012   -2.0212   -1.5436 H       1  UNL1        0.0837
     40 H           1.4904   -0.9513    0.4121 H       1  UNL1        0.0628
     41 H           0.4429   -0.0921    2.6251 H       1  UNL1        0.0852
     42 H          -3.7039   -2.1156    1.6158 H       1  UNL1        0.0545
     43 H          -2.9459   -2.0997   -1.3275 H       1  UNL1        0.0286
     44 H          -2.6309   -3.4895   -0.1498 H       1  UNL1        0.0286
     45 H          -4.9530   -3.5616   -1.4754 H       1  UNL1        0.0266
     46 H          -4.9353   -3.7392    0.3234 H       1  UNL1        0.0266
     47 H          -6.3106   -1.9565    0.4408 H       1  UNL1        0.0266
     48 H          -6.0282   -1.4624   -1.2403 H       1  UNL1        0.0266
     49 H          -4.1376   -0.2130   -0.7443 H       1  UNL1        0.0286
     50 H          -4.9135   -0.0611    0.9198 H       1  UNL1        0.0286
     51 H          -2.0154    0.4332   -0.8192 H       1  UNL1        0.0830
     52 H           0.8515    5.6976    1.5457 H       1  UNL1        0.2412
     53 H          -0.6211    5.0314    2.3134 H       1  UNL1        0.2412
@<TRIPOS>BOND
     1     1     2    1
     2     2     3   am
     3     3     4    2
     4     3     5    1
     5     5     6    1
     6     6     7   ar
     7     7     8   ar
     8     8     9   ar
     9     9    10   ar
    10    10    11    1
    11    11    12   ar
    12    12    13   ar
    13    13    14   ar
    14    14    15   ar
    15    15    16   ar
    16    10    17   ar
    17     5    18    1
    18    18    19   ar
    19    19    20   ar
    20    20    21   ar
    21    21    22    1
    22    22    23    1
    23    23    24    1
    24    24    25    1
    25    25    26    1
    26    21    27   ar
    27     5    28    1
    28    28    29    2
    29    29    30    1
    30    29     2    1
    31    17     6   ar
    32    27    18   ar
    33    16    11   ar
    34    26    22    1
    35     1    31    1
    36     1    32    1
    37     1    33    1
    38     7    34    1
    39     8    35    1
    40     9    36    1
    41    12    37    1
    42    14    38    1
    43    16    39    1
    44    17    40    1
    45    19    41    1
    46    22    42    1
    47    23    43    1
    48    23    44    1
    49    24    45    1
    50    24    46    1
    51    25    47    1
    52    25    48    1
    53    26    49    1
    54    26    50    1
    55    27    51    1
    56    30    52    1
    57    30    53    1
