
     RDKit          3D

 39 42  0  0  0  0  0  0  0  0999 V2000
    4.0790   -2.5876   -2.3993 C   0  0  0  0  0  3  0  0  0  0  0  0
    3.9908   -1.9804   -1.3059 N   0  0  0  0  0  4  0  0  0  0  0  0
    3.8806   -1.3505   -0.1377 C   0  0  0  0  0  0  0  0  0  0  0  0
    4.8124   -1.3189    0.9056 C   0  0  0  0  0  0  0  0  0  0  0  0
    4.2795   -0.6120    1.9043 N   0  0  0  0  0  0  0  0  0  0  0  0
    3.0452   -0.1817    1.5539 C   0  0  0  0  0  0  0  0  0  0  0  0
    2.0940    0.5638    2.2790 C   0  0  0  0  0  0  0  0  0  0  0  0
    0.9101    0.8054    1.6432 C   0  0  0  0  0  0  0  0  0  0  0  0
    0.6105    0.3642    0.3363 C   0  0  0  0  0  0  0  0  0  0  0  0
   -0.6652    0.8157   -0.2236 C   0  0  0  0  0  0  0  0  0  0  0  0
   -1.8291    0.1344   -0.3889 C   0  0  0  0  0  0  0  0  0  0  0  0
   -2.2903   -1.2161   -0.1157 C   0  0  0  0  0  0  0  0  0  0  0  0
   -2.4218   -2.2092   -1.0488 C   0  0  0  0  0  0  0  0  0  0  0  0
   -2.9567   -3.4271   -0.7215 C   0  0  0  0  0  0  0  0  0  0  0  0
   -3.3907   -3.6935    0.5864 C   0  0  0  0  0  0  0  0  0  0  0  0
   -3.9362   -4.9007    0.9070 F   0  0  0  0  0  0  0  0  0  0  0  0
   -3.2594   -2.6911    1.5572 C   0  0  0  0  0  0  0  0  0  0  0  0
   -2.7046   -1.4609    1.1682 C   0  0  0  0  0  0  0  0  0  0  0  0
   -2.5860   -0.5427    2.1864 F   0  0  0  0  0  0  0  0  0  0  0  0
   -2.7409    1.0535   -0.8698 N   0  0  0  0  0  0  0  0  0  0  0  0
   -2.1128    2.2131   -0.9598 C   0  0  0  0  0  0  0  0  0  0  0  0
   -0.8338    2.1172   -0.5679 N   0  0  0  0  0  0  0  0  0  0  0  0
    0.1422    3.1506   -0.6421 C   0  0  0  0  0  0  0  0  0  0  0  0
   -0.0118    4.1305   -1.7903 C   0  0  0  0  0  0  0  0  0  0  0  0
    1.0011    5.0719   -1.7108 F   0  0  0  0  0  0  0  0  0  0  0  0
   -1.2013    4.8957   -1.5293 F   0  0  0  0  0  0  0  0  0  0  0  0
    1.6066   -0.3526   -0.2724 C   0  0  0  0  0  0  0  0  0  0  0  0
    2.8051   -0.6270    0.3193 N   0  0  0  0  0  0  0  0  0  0  0  0
    5.7862   -1.7803    0.9106 H   0  0  0  0  0  0  0  0  0  0  0  0
    2.3131    0.9482    3.2430 H   0  0  0  0  0  0  0  0  0  0  0  0
    0.1064    1.3780    2.0998 H   0  0  0  0  0  0  0  0  0  0  0  0
   -2.0944   -2.0101   -2.0851 H   0  0  0  0  0  0  0  0  0  0  0  0
   -3.0806   -4.2402   -1.4073 H   0  0  0  0  0  0  0  0  0  0  0  0
   -3.5834   -2.8978    2.5474 H   0  0  0  0  0  0  0  0  0  0  0  0
   -2.5670    3.1295   -1.3065 H   0  0  0  0  0  0  0  0  0  0  0  0
    0.2944    3.7088    0.2863 H   0  0  0  0  0  0  0  0  0  0  0  0
    1.1606    2.6461   -0.9009 H   0  0  0  0  0  0  0  0  0  0  0  0
   -0.1342    3.6766   -2.7814 H   0  0  0  0  0  0  0  0  0  0  0  0
    1.4825   -0.7228   -1.2691 H   0  0  0  0  0  0  0  0  0  0  0  0
  1  2  3  0
  2  3  1  0
  3  4  2  0
  4  5  1  0
  5  6  2  0
  6  7  1  0
  7  8  2  0
  8  9  1  0
  9 10  1  0
 10 11  2  0
 11 12  1  0
 12 13  2  0
 13 14  1  0
 14 15  2  0
 15 16  1  0
 15 17  1  0
 17 18  2  0
 18 19  1  0
 11 20  1  0
 20 21  2  0
 21 22  1  0
 22 23  1  0
 23 24  1  0
 24 25  1  0
 24 26  1  0
  9 27  2  0
 27 28  1  0
 28  3  1  0
 28  6  1  0
 22 10  1  0
 18 12  1  0
  4 29  1  0
  7 30  1  0
  8 31  1  0
 13 32  1  0
 14 33  1  0
 17 34  1  0
 21 35  1  0
 23 36  1  0
 23 37  1  0
 24 38  1  0
 27 39  1  0
M  CHG  2   1  -1   2   1
M  END
$$$$
