@<TRIPOS>MOLECULE
*****
 39 42 0 0 0
SMALL
GASTEIGER

@<TRIPOS>ATOM
      1 C           4.0790   -2.5876   -2.3993 C.2     1  UNL1       -0.2255
      2 N           3.9908   -1.9804   -1.3059 N.1     1  UNL1       -0.2446
      3 C           3.8806   -1.3505   -0.1377 C.ar    1  UNL1        0.3915
      4 C           4.8124   -1.3189    0.9056 C.ar    1  UNL1        0.1355
      5 N           4.2795   -0.6120    1.9043 N.ar    1  UNL1       -0.2280
      6 C           3.0452   -0.1817    1.5539 C.ar    1  UNL1        0.1433
      7 C           2.0940    0.5638    2.2790 C.ar    1  UNL1       -0.0180
      8 C           0.9101    0.8054    1.6432 C.ar    1  UNL1       -0.0477
      9 C           0.6105    0.3642    0.3363 C.ar    1  UNL1        0.0175
     10 C          -0.6652    0.8157   -0.2236 C.ar    1  UNL1        0.0781
     11 C          -1.8291    0.1344   -0.3889 C.ar    1  UNL1        0.0995
     12 C          -2.2903   -1.2161   -0.1157 C.ar    1  UNL1        0.0378
     13 C          -2.4218   -2.2092   -1.0488 C.ar    1  UNL1       -0.0470
     14 C          -2.9567   -3.4271   -0.7215 C.ar    1  UNL1       -0.0257
     15 C          -3.3907   -3.6935    0.5864 C.ar    1  UNL1        0.1262
     16 F          -3.9362   -4.9007    0.9070 F       1  UNL1       -0.2054
     17 C          -3.2594   -2.6911    1.5572 C.ar    1  UNL1        0.0095
     18 C          -2.7046   -1.4609    1.1682 C.ar    1  UNL1        0.1353
     19 F          -2.5860   -0.5427    2.1864 F       1  UNL1       -0.2047
     20 N          -2.7409    1.0535   -0.8698 N.ar    1  UNL1       -0.2350
     21 C          -2.1128    2.2131   -0.9598 C.ar    1  UNL1        0.0972
     22 N          -0.8338    2.1172   -0.5679 N.ar    1  UNL1       -0.3241
     23 C           0.1422    3.1506   -0.6421 C.3     1  UNL1        0.0852
     24 C          -0.0118    4.1305   -1.7903 C.3     1  UNL1        0.2569
     25 F           1.0011    5.0719   -1.7108 F       1  UNL1       -0.2073
     26 F          -1.2013    4.8957   -1.5293 F       1  UNL1       -0.2073
     27 C           1.6066   -0.3526   -0.2724 C.ar    1  UNL1        0.0272
     28 N           2.8051   -0.6270    0.3193 N.ar    1  UNL1       -0.2339
     29 H           5.7862   -1.7803    0.9106 H       1  UNL1        0.0927
     30 H           2.3131    0.9482    3.2430 H       1  UNL1        0.0654
     31 H           0.1064    1.3780    2.0998 H       1  UNL1        0.0626
     32 H          -2.0944   -2.0101   -2.0851 H       1  UNL1        0.0626
     33 H          -3.0806   -4.2402   -1.4073 H       1  UNL1        0.0646
     34 H          -3.5834   -2.8978    2.5474 H       1  UNL1        0.0675
     35 H          -2.5670    3.1295   -1.3065 H       1  UNL1        0.1029
     36 H           0.2944    3.7088    0.2863 H       1  UNL1        0.0548
     37 H           1.1606    2.6461   -0.9009 H       1  UNL1        0.0548
     38 H          -0.1342    3.6766   -2.7814 H       1  UNL1        0.1037
     39 H           1.4825   -0.7228   -1.2691 H       1  UNL1        0.0822
@<TRIPOS>UNITY_ATOM_ATTR
1 1
charge -1
2 1
charge 1
@<TRIPOS>BOND
     1     1     2    3
     2     2     3    1
     3     3     4   ar
     4     4     5   ar
     5     5     6   ar
     6     6     7   ar
     7     7     8   ar
     8     8     9   ar
     9     9    10    1
    10    10    11   ar
    11    11    12    1
    12    12    13   ar
    13    13    14   ar
    14    14    15   ar
    15    15    16    1
    16    15    17   ar
    17    17    18   ar
    18    18    19    1
    19    11    20   ar
    20    20    21   ar
    21    21    22   ar
    22    22    23    1
    23    23    24    1
    24    24    25    1
    25    24    26    1
    26     9    27   ar
    27    27    28   ar
    28    28     3   ar
    29    28     6   ar
    30    22    10   ar
    31    18    12   ar
    32     4    29    1
    33     7    30    1
    34     8    31    1
    35    13    32    1
    36    14    33    1
    37    17    34    1
    38    21    35    1
    39    23    36    1
    40    23    37    1
    41    24    38    1
    42    27    39    1
