@<TRIPOS>MOLECULE
*****
 34 35 0 0 0
SMALL
GASTEIGER

@<TRIPOS>ATOM
      1 O           1.2400   -1.5281   -1.5368 O.2     1  UNL1       -0.2860
      2 C           1.2771   -0.7441   -0.5596 C.2     1  UNL1        0.2012
      3 C           0.1913    0.2297   -0.3577 C.2     1  UNL1        0.0724
      4 S          -1.1911    0.2570   -1.4553 S.3     1  UNL1       -0.1180
      5 C          -1.3172   -1.2326   -2.4259 C.3     1  UNL1        0.0217
      6 C          -1.7337   -2.4601   -1.6360 C.3     1  UNL1        0.0535
      7 O          -3.0044   -2.2207   -1.0878 O.3     1  UNL1       -0.3942
      8 C           0.2013    1.0857    0.6697 C.2     1  UNL1        0.0724
      9 S          -1.0646    2.2736    0.9668 S.3     1  UNL1       -0.1180
     10 C          -2.3586    2.2804   -0.2417 C.3     1  UNL1        0.0217
     11 C          -3.4055    3.3785    0.1354 C.3     1  UNL1        0.0535
     12 O          -3.9286    3.0900    1.3791 O.3     1  UNL1       -0.3942
     13 C           1.3436    1.0524    1.6423 C.2     1  UNL1        0.2012
     14 O           1.3324    1.8672    2.6036 O.2     1  UNL1       -0.2860
     15 C           2.3967    0.1084    1.4503 C.ar    1  UNL1        0.0336
     16 C           3.4590    0.0633    2.3391 C.ar    1  UNL1       -0.0502
     17 C           4.4478   -0.8603    2.1144 C.ar    1  UNL1       -0.0610
     18 C           4.4382   -1.7394    1.0567 C.ar    1  UNL1       -0.0610
     19 C           3.3821   -1.6888    0.1799 C.ar    1  UNL1       -0.0502
     20 C           2.3787   -0.7649    0.3922 C.ar    1  UNL1        0.0336
     21 H          -0.4185   -1.5164   -3.0047 H       1  UNL1        0.0402
     22 H          -2.1286   -1.0540   -3.2274 H       1  UNL1        0.0402
     23 H          -1.7367   -3.3075   -2.3509 H       1  UNL1        0.0565
     24 H          -1.0257   -2.5982   -0.8102 H       1  UNL1        0.0565
     25 H          -3.3144   -3.0830   -0.6840 H       1  UNL1        0.2094
     26 H          -2.0345    2.4901   -1.2922 H       1  UNL1        0.0402
     27 H          -2.9546    1.3447   -0.2677 H       1  UNL1        0.0402
     28 H          -2.8594    4.3323    0.1829 H       1  UNL1        0.0565
     29 H          -4.1581    3.3434   -0.6498 H       1  UNL1        0.0565
     30 H          -4.7853    2.5720    1.2803 H       1  UNL1        0.2094
     31 H           3.4613    0.7439    3.1531 H       1  UNL1        0.0625
     32 H           5.2867   -0.9122    2.7968 H       1  UNL1        0.0618
     33 H           5.2630   -2.4621    0.9265 H       1  UNL1        0.0618
     34 H           3.3201   -2.3402   -0.6526 H       1  UNL1        0.0625
@<TRIPOS>BOND
     1     1     2    2
     2     2     3    1
     3     3     4    1
     4     4     5    1
     5     5     6    1
     6     6     7    1
     7     3     8    2
     8     8     9    1
     9     9    10    1
    10    10    11    1
    11    11    12    1
    12     8    13    1
    13    13    14    2
    14    13    15    1
    15    15    16   ar
    16    16    17   ar
    17    17    18   ar
    18    18    19   ar
    19    19    20   ar
    20    20     2    1
    21    20    15   ar
    22     5    21    1
    23     5    22    1
    24     6    23    1
    25     6    24    1
    26     7    25    1
    27    10    26    1
    28    10    27    1
    29    11    28    1
    30    11    29    1
    31    12    30    1
    32    16    31    1
    33    17    32    1
    34    18    33    1
    35    19    34    1
