@<TRIPOS>MOLECULE
*****
 54 56 0 0 0
SMALL
GASTEIGER

@<TRIPOS>ATOM
      1 C          -1.8819    0.1122   -0.0671 C.3     1  UNL1       -0.0065
      2 C          -2.7080   -0.7409    0.8596 C.3     1  UNL1       -0.0049
      3 C          -4.1019   -0.7577    0.3647 C.ar    1  UNL1        0.0440
      4 N          -4.3493   -1.7664   -0.5106 N.ar    1  UNL1       -0.2373
      5 C          -5.5650   -1.9333   -1.0584 C.ar    1  UNL1        0.1167
      6 N          -5.8149   -2.9989   -1.9762 N.pl3   1  UNL1       -0.3431
      7 C          -6.5947   -1.0746   -0.7389 C.ar    1  UNL1       -0.0192
      8 C          -6.3700   -0.0399    0.1496 C.ar    1  UNL1       -0.0455
      9 C          -7.4270    0.9065    0.5272 C.3     1  UNL1       -0.0395
     10 C          -5.1055    0.1234    0.7111 C.ar    1  UNL1       -0.0373
     11 C          -2.3808    1.5383   -0.1310 C.3     1  UNL1        0.0006
     12 N          -2.0619    1.9779    1.2122 N.3     1  UNL1       -0.3142
     13 C          -0.6940    1.5235    1.3753 C.3     1  UNL1        0.0116
     14 C          -0.4857    0.3457    0.4774 C.3     1  UNL1        0.0245
     15 N           0.3320    0.6189   -0.6716 N.3     1  UNL1       -0.3105
     16 C           1.7340    0.8076   -0.3795 C.3     1  UNL1        0.0087
     17 C           2.3834   -0.4849    0.0857 C.3     1  UNL1        0.0087
     18 N           3.7921   -0.3405    0.3849 N.3     1  UNL1       -0.3108
     19 C           4.5734   -0.0919   -0.8046 C.3     1  UNL1        0.0213
     20 C           6.0274    0.0153   -0.4991 C.ar    1  UNL1       -0.0322
     21 C           6.6369   -1.2371   -0.5753 C.ar    1  UNL1       -0.0390
     22 C           7.9826   -1.4204   -0.3366 C.ar    1  UNL1        0.0413
     23 CL          8.7891   -2.9727   -0.4193 Cl      1  UNL1       -0.0835
     24 C           8.7190   -0.2790   -0.0100 C.ar    1  UNL1       -0.0434
     25 C           8.1182    0.9580    0.0653 C.ar    1  UNL1       -0.0601
     26 C           6.7556    1.1210   -0.1801 C.ar    1  UNL1       -0.0573
     27 H          -1.8287   -0.3481   -1.0803 H       1  UNL1        0.0332
     28 H          -2.6597   -0.2892    1.8748 H       1  UNL1        0.0332
     29 H          -2.2599   -1.7405    0.8946 H       1  UNL1        0.0332
     30 H          -6.3232   -3.9179   -1.8393 H       1  UNL1        0.1437
     31 H          -5.5161   -3.0385   -2.9837 H       1  UNL1        0.1437
     32 H          -7.5627   -1.2303   -1.1918 H       1  UNL1        0.0654
     33 H          -8.1141    1.0924   -0.3342 H       1  UNL1        0.0278
     34 H          -7.0197    1.9300    0.7747 H       1  UNL1        0.0278
     35 H          -8.0170    0.6242    1.4125 H       1  UNL1        0.0278
     36 H          -4.8274    0.8874    1.4028 H       1  UNL1        0.0638
     37 H          -1.7498    2.1178   -0.8091 H       1  UNL1        0.0427
     38 H          -3.4284    1.6240   -0.4120 H       1  UNL1        0.0427
     39 H          -2.1756    3.0065    1.3511 H       1  UNL1        0.1220
     40 H          -0.0298    2.3854    1.1822 H       1  UNL1        0.0439
     41 H          -0.5346    1.2138    2.4297 H       1  UNL1        0.0439
     42 H          -0.1910   -0.5613    1.0445 H       1  UNL1        0.0476
     43 H           0.2810   -0.2293   -1.2824 H       1  UNL1        0.1223
     44 H           1.9506    1.6442    0.3085 H       1  UNL1        0.0437
     45 H           2.2155    1.0765   -1.3431 H       1  UNL1        0.0437
     46 H           2.3266   -1.2657   -0.7055 H       1  UNL1        0.0437
     47 H           1.8225   -0.8915    0.9399 H       1  UNL1        0.0437
     48 H           3.9459    0.4606    1.0385 H       1  UNL1        0.1223
     49 H           4.2683    0.9347   -1.1598 H       1  UNL1        0.0473
     50 H           4.3476   -0.7722   -1.6451 H       1  UNL1        0.0473
     51 H           6.1431   -2.1859   -0.8228 H       1  UNL1        0.0635
     52 H           9.7858   -0.3447    0.1932 H       1  UNL1        0.0632
     53 H           8.6602    1.8678    0.3161 H       1  UNL1        0.0618
     54 H           6.1873    2.0397   -0.1486 H       1  UNL1        0.0621
@<TRIPOS>BOND
     1     1     2    1
     2     2     3    1
     3     3     4   ar
     4     4     5   ar
     5     5     6    1
     6     5     7   ar
     7     7     8   ar
     8     8     9    1
     9     8    10   ar
    10     1    11    1
    11    11    12    1
    12    12    13    1
    13    13    14    1
    14    14    15    1
    15    15    16    1
    16    16    17    1
    17    17    18    1
    18    18    19    1
    19    19    20    1
    20    20    21   ar
    21    21    22   ar
    22    22    23    1
    23    22    24   ar
    24    24    25   ar
    25    25    26   ar
    26    14     1    1
    27    26    20   ar
    28    10     3   ar
    29     1    27    1
    30     2    28    1
    31     2    29    1
    32     6    30    1
    33     6    31    1
    34     7    32    1
    35     9    33    1
    36     9    34    1
    37     9    35    1
    38    10    36    1
    39    11    37    1
    40    11    38    1
    41    12    39    1
    42    13    40    1
    43    13    41    1
    44    14    42    1
    45    15    43    1
    46    16    44    1
    47    16    45    1
    48    17    46    1
    49    17    47    1
    50    18    48    1
    51    19    49    1
    52    19    50    1
    53    21    51    1
    54    24    52    1
    55    25    53    1
    56    26    54    1
