
     RDKit          3D

 66 70  0  0  0  0  0  0  0  0999 V2000
    0.9469    0.7928    1.2465 N   0  0  0  0  0  0  0  0  0  0  0  0
    1.3112    0.3130   -0.0651 C   0  0  0  0  0  0  0  0  0  0  0  0
    0.1335    0.3774   -0.9954 C   0  0  0  0  0  0  0  0  0  0  0  0
    0.2349    0.0352   -2.2013 O   0  0  0  0  0  0  0  0  0  0  0  0
   -1.1450    0.8242   -0.5630 N   0  0  0  0  0  0  0  0  0  0  0  0
   -2.2849    0.8847   -1.4717 C   0  0  1  0  0  0  0  0  0  0  0  0
   -3.2910   -0.1758   -1.0706 C   0  0  0  0  0  0  0  0  0  0  0  0
   -3.8027   -0.0217    0.3243 C   0  0  0  0  0  0  0  0  0  0  0  0
   -4.7578   -1.1049    0.5503 N   0  0  0  0  0  0  0  0  0  0  0  0
   -4.0972   -2.3881    0.5857 C   0  0  0  0  0  0  0  0  0  0  0  0
   -5.0182   -3.3201    1.3383 C   0  0  0  0  0  0  0  0  0  0  0  0
   -5.9848   -2.3961    2.0457 C   0  0  0  0  0  0  0  0  0  0  0  0
   -5.3679   -1.0121    1.8662 C   0  0  0  0  0  0  0  0  0  0  0  0
   -2.8867    2.2362   -1.5116 C   0  0  0  0  0  0  0  0  0  0  0  0
   -4.2410    2.4353   -1.5636 C   0  0  0  0  0  0  0  0  0  0  0  0
   -4.7801    3.7264   -1.5887 C   0  0  0  0  0  0  0  0  0  0  0  0
   -3.9713    4.8423   -1.5624 C   0  0  0  0  0  0  0  0  0  0  0  0
   -4.6278    6.4764   -1.5935 Cl  0  0  0  0  0  0  0  0  0  0  0  0
   -2.6087    4.6393   -1.5105 C   0  0  0  0  0  0  0  0  0  0  0  0
   -2.0755    3.3637   -1.4856 C   0  0  0  0  0  0  0  0  0  0  0  0
    2.3809    1.1854   -0.6309 C   0  0  0  0  0  0  0  0  0  0  0  0
    3.7750    0.8569   -0.0687 C   0  0  0  0  0  0  0  0  0  0  0  0
    4.1114   -0.4584   -0.5376 N   0  0  0  0  0  0  0  0  0  0  0  0
    5.4388   -0.9248   -0.7208 C   0  0  0  0  0  0  0  0  0  0  0  0
    5.9062   -1.2794   -1.9392 N   0  0  0  0  0  0  0  0  0  0  0  0
    7.1536   -1.7201   -2.1481 C   0  0  0  0  0  0  0  0  0  0  0  0
    8.0396   -1.8410   -1.1409 N   0  0  0  0  0  0  0  0  0  0  0  0
    7.6243   -1.5005    0.0953 C   0  0  0  0  0  0  0  0  0  0  0  0
    8.2464   -1.5036    1.3122 N   0  0  0  0  0  0  0  0  0  0  0  0
    7.4116   -1.0761    2.2595 C   0  0  0  0  0  0  0  0  0  0  0  0
    6.2012   -0.7766    1.6807 C   0  0  0  0  0  0  0  0  0  0  0  0
    6.3409   -1.0425    0.3377 C   0  0  0  0  0  0  0  0  0  0  0  0
    3.0185   -1.3597   -0.8414 C   0  0  0  0  0  0  0  0  0  0  0  0
    1.8246   -1.0933    0.0655 C   0  0  0  0  0  0  0  0  0  0  0  0
    0.8766    1.8338    1.2919 H   0  0  0  0  0  0  0  0  0  0  0  0
    0.1256    0.3090    1.6591 H   0  0  0  0  0  0  0  0  0  0  0  0
   -1.2927    1.1186    0.4168 H   0  0  0  0  0  0  0  0  0  0  0  0
   -1.9041    0.5542   -2.4708 H   0  0  0  0  0  0  0  0  0  0  0  0
   -4.0937   -0.2671   -1.8229 H   0  0  0  0  0  0  0  0  0  0  0  0
   -2.7300   -1.1518   -1.1032 H   0  0  0  0  0  0  0  0  0  0  0  0
   -4.2042    0.9657    0.5806 H   0  0  0  0  0  0  0  0  0  0  0  0
   -2.9868   -0.2161    1.0824 H   0  0  0  0  0  0  0  0  0  0  0  0
   -3.0945   -2.3509    1.0434 H   0  0  0  0  0  0  0  0  0  0  0  0
   -4.0096   -2.7652   -0.4519 H   0  0  0  0  0  0  0  0  0  0  0  0
   -5.5412   -4.0398    0.6633 H   0  0  0  0  0  0  0  0  0  0  0  0
   -4.4063   -3.9196    2.0260 H   0  0  0  0  0  0  0  0  0  0  0  0
   -6.9990   -2.4341    1.5939 H   0  0  0  0  0  0  0  0  0  0  0  0
   -5.9912   -2.6737    3.1070 H   0  0  0  0  0  0  0  0  0  0  0  0
   -4.5753   -0.8235    2.5996 H   0  0  0  0  0  0  0  0  0  0  0  0
   -6.1521   -0.2494    1.8206 H   0  0  0  0  0  0  0  0  0  0  0  0
   -4.9137    1.5870   -1.5918 H   0  0  0  0  0  0  0  0  0  0  0  0
   -5.8561    3.8858   -1.6299 H   0  0  0  0  0  0  0  0  0  0  0  0
   -1.9648    5.5323   -1.4898 H   0  0  0  0  0  0  0  0  0  0  0  0
   -1.0106    3.2074   -1.4449 H   0  0  0  0  0  0  0  0  0  0  0  0
    2.4239    1.0977   -1.7357 H   0  0  0  0  0  0  0  0  0  0  0  0
    2.1422    2.2345   -0.3752 H   0  0  0  0  0  0  0  0  0  0  0  0
    3.6481    0.8827    1.0176 H   0  0  0  0  0  0  0  0  0  0  0  0
    4.4388    1.6450   -0.4779 H   0  0  0  0  0  0  0  0  0  0  0  0
    7.5017   -2.0008   -3.1589 H   0  0  0  0  0  0  0  0  0  0  0  0
    9.2350   -1.8041    1.4468 H   0  0  0  0  0  0  0  0  0  0  0  0
    7.5803   -0.9551    3.3338 H   0  0  0  0  0  0  0  0  0  0  0  0
    5.2943   -0.4071    2.1410 H   0  0  0  0  0  0  0  0  0  0  0  0
    3.3347   -2.3940   -0.7060 H   0  0  0  0  0  0  0  0  0  0  0  0
    2.7203   -1.2455   -1.9154 H   0  0  0  0  0  0  0  0  0  0  0  0
    1.0557   -1.8490   -0.2128 H   0  0  0  0  0  0  0  0  0  0  0  0
    2.1894   -1.3013    1.1094 H   0  0  0  0  0  0  0  0  0  0  0  0
  1  2  1  0
  2  3  1  0
  3  4  2  0
  3  5  1  0
  5  6  1  0
  6  7  1  0
  7  8  1  0
  8  9  1  0
  9 10  1  0
 10 11  1  0
 11 12  1  0
 12 13  1  0
  6 14  1  0
 14 15  2  0
 15 16  1  0
 16 17  2  0
 17 18  1  0
 17 19  1  0
 19 20  2  0
  2 21  1  0
 21 22  1  0
 22 23  1  0
 23 24  1  0
 24 25  2  0
 25 26  1  0
 26 27  2  0
 27 28  1  0
 28 29  1  0
 29 30  1  0
 30 31  2  0
 31 32  1  0
 23 33  1  0
 33 34  1  0
 34  2  1  0
 13  9  1  0
 20 14  1  0
 32 24  1  0
 32 28  2  0
  1 35  1  0
  1 36  1  0
  5 37  1  0
  6 38  1  6
  7 39  1  0
  7 40  1  0
  8 41  1  0
  8 42  1  0
 10 43  1  0
 10 44  1  0
 11 45  1  0
 11 46  1  0
 12 47  1  0
 12 48  1  0
 13 49  1  0
 13 50  1  0
 15 51  1  0
 16 52  1  0
 19 53  1  0
 20 54  1  0
 21 55  1  0
 21 56  1  0
 22 57  1  0
 22 58  1  0
 26 59  1  0
 29 60  1  0
 30 61  1  0
 31 62  1  0
 33 63  1  0
 33 64  1  0
 34 65  1  0
 34 66  1  0
M  END
$$$$
