@<TRIPOS>MOLECULE
*****
 66 70 0 0 0
SMALL
GASTEIGER

@<TRIPOS>ATOM
      1 N           0.9469    0.7928    1.2465 N.3     1  UNL1       -0.3173
      2 C           1.3112    0.3130   -0.0651 C.3     1  UNL1        0.0965
      3 C           0.1335    0.3774   -0.9954 C.2     1  UNL1        0.2336
      4 O           0.2349    0.0352   -2.2013 O.2     1  UNL1       -0.2738
      5 N          -1.1450    0.8242   -0.5630 N.am    1  UNL1       -0.3069
      6 C          -2.2849    0.8847   -1.4717 C.3     1  UNL1        0.0496
      7 C          -3.2910   -0.1758   -1.0706 C.3     1  UNL1       -0.0175
      8 C          -3.8027   -0.0217    0.3243 C.3     1  UNL1        0.0009
      9 N          -4.7578   -1.1049    0.5503 N.3     1  UNL1       -0.3022
     10 C          -4.0972   -2.3881    0.5857 C.3     1  UNL1       -0.0011
     11 C          -5.0182   -3.3201    1.3383 C.3     1  UNL1       -0.0390
     12 C          -5.9848   -2.3961    2.0457 C.3     1  UNL1       -0.0390
     13 C          -5.3679   -1.0121    1.8662 C.3     1  UNL1       -0.0011
     14 C          -2.8867    2.2362   -1.5116 C.ar    1  UNL1       -0.0271
     15 C          -4.2410    2.4353   -1.5636 C.ar    1  UNL1       -0.0554
     16 C          -4.7801    3.7264   -1.5887 C.ar    1  UNL1       -0.0431
     17 C          -3.9713    4.8423   -1.5624 C.ar    1  UNL1        0.0410
     18 CL         -4.6278    6.4764   -1.5935 Cl      1  UNL1       -0.0835
     19 C          -2.6087    4.6393   -1.5105 C.ar    1  UNL1       -0.0431
     20 C          -2.0755    3.3637   -1.4856 C.ar    1  UNL1       -0.0554
     21 C           2.3809    1.1854   -0.6309 C.3     1  UNL1       -0.0104
     22 C           3.7750    0.8569   -0.0687 C.3     1  UNL1        0.0156
     23 N           4.1114   -0.4584   -0.5376 N.pl3   1  UNL1       -0.3144
     24 C           5.4388   -0.9248   -0.7208 C.ar    1  UNL1        0.1337
     25 N           5.9062   -1.2794   -1.9392 N.ar    1  UNL1       -0.2200
     26 C           7.1536   -1.7201   -2.1481 C.ar    1  UNL1        0.1204
     27 N           8.0396   -1.8410   -1.1409 N.ar    1  UNL1       -0.2178
     28 C           7.6243   -1.5005    0.0953 C.ar    1  UNL1        0.1432
     29 N           8.2464   -1.5036    1.3122 N.ar    1  UNL1       -0.3457
     30 C           7.4116   -1.0761    2.2595 C.ar    1  UNL1        0.0042
     31 C           6.2012   -0.7766    1.6807 C.ar    1  UNL1       -0.0318
     32 C           6.3409   -1.0425    0.3377 C.ar    1  UNL1        0.0585
     33 C           3.0185   -1.3597   -0.8414 C.3     1  UNL1        0.0156
     34 C           1.8246   -1.0933    0.0655 C.3     1  UNL1       -0.0104
     35 H           0.8766    1.8338    1.2919 H       1  UNL1        0.1192
     36 H           0.1256    0.3090    1.6591 H       1  UNL1        0.1192
     37 H          -1.2927    1.1186    0.4168 H       1  UNL1        0.1493
     38 H          -1.9041    0.5542   -2.4708 H       1  UNL1        0.0549
     39 H          -4.0937   -0.2671   -1.8229 H       1  UNL1        0.0299
     40 H          -2.7300   -1.1518   -1.1032 H       1  UNL1        0.0299
     41 H          -4.2042    0.9657    0.5806 H       1  UNL1        0.0427
     42 H          -2.9868   -0.2161    1.0824 H       1  UNL1        0.0427
     43 H          -3.0945   -2.3509    1.0434 H       1  UNL1        0.0426
     44 H          -4.0096   -2.7652   -0.4519 H       1  UNL1        0.0426
     45 H          -5.5412   -4.0398    0.6633 H       1  UNL1        0.0278
     46 H          -4.4063   -3.9196    2.0260 H       1  UNL1        0.0278
     47 H          -6.9990   -2.4341    1.5939 H       1  UNL1        0.0278
     48 H          -5.9912   -2.6737    3.1070 H       1  UNL1        0.0278
     49 H          -4.5753   -0.8235    2.5996 H       1  UNL1        0.0426
     50 H          -6.1521   -0.2494    1.8206 H       1  UNL1        0.0426
     51 H          -4.9137    1.5870   -1.5918 H       1  UNL1        0.0621
     52 H          -5.8561    3.8858   -1.6299 H       1  UNL1        0.0632
     53 H          -1.9648    5.5323   -1.4898 H       1  UNL1        0.0632
     54 H          -1.0106    3.2074   -1.4449 H       1  UNL1        0.0621
     55 H           2.4239    1.0977   -1.7357 H       1  UNL1        0.0303
     56 H           2.1422    2.2345   -0.3752 H       1  UNL1        0.0303
     57 H           3.6481    0.8827    1.0176 H       1  UNL1        0.0465
     58 H           4.4388    1.6450   -0.4779 H       1  UNL1        0.0465
     59 H           7.5017   -2.0008   -3.1589 H       1  UNL1        0.1048
     60 H           9.2350   -1.8041    1.4468 H       1  UNL1        0.1668
     61 H           7.5803   -0.9551    3.3338 H       1  UNL1        0.0807
     62 H           5.2943   -0.4071    2.1410 H       1  UNL1        0.0640
     63 H           3.3347   -2.3940   -0.7060 H       1  UNL1        0.0465
     64 H           2.7203   -1.2455   -1.9154 H       1  UNL1        0.0465
     65 H           1.0557   -1.8490   -0.2128 H       1  UNL1        0.0303
     66 H           2.1894   -1.3013    1.1094 H       1  UNL1        0.0303
@<TRIPOS>BOND
     1     1     2    1
     2     2     3    1
     3     3     4    2
     4     3     5   am
     5     5     6    1
     6     6     7    1
     7     7     8    1
     8     8     9    1
     9     9    10    1
    10    10    11    1
    11    11    12    1
    12    12    13    1
    13     6    14    1
    14    14    15   ar
    15    15    16   ar
    16    16    17   ar
    17    17    18    1
    18    17    19   ar
    19    19    20   ar
    20     2    21    1
    21    21    22    1
    22    22    23    1
    23    23    24    1
    24    24    25   ar
    25    25    26   ar
    26    26    27   ar
    27    27    28   ar
    28    28    29   ar
    29    29    30   ar
    30    30    31   ar
    31    31    32   ar
    32    23    33    1
    33    33    34    1
    34    34     2    1
    35    13     9    1
    36    20    14   ar
    37    32    24   ar
    38    32    28   ar
    39     1    35    1
    40     1    36    1
    41     5    37    1
    42     6    38    1
    43     7    39    1
    44     7    40    1
    45     8    41    1
    46     8    42    1
    47    10    43    1
    48    10    44    1
    49    11    45    1
    50    11    46    1
    51    12    47    1
    52    12    48    1
    53    13    49    1
    54    13    50    1
    55    15    51    1
    56    16    52    1
    57    19    53    1
    58    20    54    1
    59    21    55    1
    60    21    56    1
    61    22    57    1
    62    22    58    1
    63    26    59    1
    64    29    60    1
    65    30    61    1
    66    31    62    1
    67    33    63    1
    68    33    64    1
    69    34    65    1
    70    34    66    1
