
     RDKit          3D

 60 65  0  0  0  0  0  0  0  0999 V2000
    0.9421    0.4077    0.3752 C   0  0  2  0  0  0  0  0  0  0  0  0
    1.7954    1.4563    0.8964 C   0  0  0  0  0  0  0  0  0  0  0  0
    3.1068    0.6699    1.1014 C   0  0  0  0  0  0  0  0  0  0  0  0
    3.0201   -0.5148    0.1278 C   0  0  2  0  0  0  0  0  0  0  0  0
    2.9074   -1.8259    0.8312 C   0  0  0  0  0  0  0  0  0  0  0  0
    4.3470   -2.3261    0.8718 C   0  0  0  0  0  0  0  0  0  0  0  0
    4.9887   -1.6349   -0.2697 C   0  0  0  0  0  0  0  0  0  0  0  0
    6.0607   -1.9743   -0.8720 O   0  0  0  0  0  0  0  0  0  0  0  0
    4.2371   -0.5381   -0.5974 O   0  0  0  0  0  0  0  0  0  0  0  0
    1.8626   -0.1409   -0.7307 C   0  0  2  0  0  0  0  0  0  0  0  0
    2.3423    1.0197   -1.6096 C   0  0  0  0  0  0  0  0  0  0  0  0
    1.2316   -1.2019   -1.5370 C   0  0  0  0  0  0  0  0  0  0  0  0
   -0.1201   -1.6814   -1.0590 C   0  0  1  0  0  0  0  0  0  0  0  0
   -0.3282   -1.8822    0.2982 O   0  0  0  0  0  0  0  0  0  0  0  0
   -0.9489   -0.8175   -0.3548 C   0  0  1  0  0  0  0  0  0  0  0  0
   -0.3744    0.5968   -0.1940 C   0  0  1  0  0  0  0  0  0  0  0  0
   -1.3536    1.5016    0.4840 C   0  0  1  0  0  0  0  0  0  0  0  0
   -2.2052    0.8004    1.5260 C   0  0  0  0  0  0  0  0  0  0  0  0
   -3.0649   -0.1558    0.7559 C   0  0  0  0  0  0  0  0  0  0  0  0
   -4.3012   -0.3853    1.1330 C   0  0  0  0  0  0  0  0  0  0  0  0
   -5.0817   -1.3303    0.3342 C   0  0  0  0  0  0  0  0  0  0  0  0
   -6.3323   -1.2576    0.2717 O   0  0  0  0  0  0  0  0  0  0  0  0
   -4.3962   -2.3877   -0.4123 C   0  0  0  0  0  0  0  0  0  0  0  0
   -2.8951   -2.2604   -0.3480 C   0  0  0  0  0  0  0  0  0  0  0  0
   -2.4433   -0.8157   -0.4386 C   0  0  2  0  0  0  0  0  0  0  0  0
   -2.9383   -0.2564   -1.7370 C   0  0  0  0  0  0  0  0  0  0  0  0
   -0.8178    2.7767    0.9564 C   0  0  0  0  0  0  0  0  0  0  0  0
   -0.9011    2.9922    2.2149 O   0  0  0  0  0  0  0  0  0  0  0  0
   -0.2640    3.6580    0.0356 O   0  0  0  0  0  0  0  0  0  0  0  0
    0.2662    4.9006    0.4384 C   0  0  0  0  0  0  0  0  0  0  0  0
    0.9269   -0.4295    1.1282 H   0  0  0  0  0  0  0  0  0  0  0  0
    2.0898    2.2667    0.2046 H   0  0  0  0  0  0  0  0  0  0  0  0
    1.5812    1.8639    1.9044 H   0  0  0  0  0  0  0  0  0  0  0  0
    3.9925    1.2829    0.9382 H   0  0  0  0  0  0  0  0  0  0  0  0
    3.1134    0.2114    2.1222 H   0  0  0  0  0  0  0  0  0  0  0  0
    2.4855   -1.7252    1.8576 H   0  0  0  0  0  0  0  0  0  0  0  0
    2.3308   -2.5828    0.2987 H   0  0  0  0  0  0  0  0  0  0  0  0
    4.4301   -3.4196    0.7883 H   0  0  0  0  0  0  0  0  0  0  0  0
    4.7958   -1.9344    1.7993 H   0  0  0  0  0  0  0  0  0  0  0  0
    3.2822    1.4595   -1.2629 H   0  0  0  0  0  0  0  0  0  0  0  0
    2.5261    0.5746   -2.6158 H   0  0  0  0  0  0  0  0  0  0  0  0
    1.5578    1.7746   -1.7610 H   0  0  0  0  0  0  0  0  0  0  0  0
    1.0406   -0.7922   -2.5645 H   0  0  0  0  0  0  0  0  0  0  0  0
    1.9268   -2.0706   -1.7277 H   0  0  0  0  0  0  0  0  0  0  0  0
   -0.5100   -2.4930   -1.7084 H   0  0  0  0  0  0  0  0  0  0  0  0
   -0.2572    0.9372   -1.2571 H   0  0  0  0  0  0  0  0  0  0  0  0
   -2.1221    1.7789   -0.3025 H   0  0  0  0  0  0  0  0  0  0  0  0
   -1.5126    0.2518    2.1847 H   0  0  0  0  0  0  0  0  0  0  0  0
   -2.7987    1.5889    2.0172 H   0  0  0  0  0  0  0  0  0  0  0  0
   -4.7573    0.0864    1.9932 H   0  0  0  0  0  0  0  0  0  0  0  0
   -4.6835   -2.4393   -1.4917 H   0  0  0  0  0  0  0  0  0  0  0  0
   -4.6881   -3.3710    0.0280 H   0  0  0  0  0  0  0  0  0  0  0  0
   -2.3947   -2.9178   -1.0568 H   0  0  0  0  0  0  0  0  0  0  0  0
   -2.5749   -2.5905    0.6768 H   0  0  0  0  0  0  0  0  0  0  0  0
   -2.1310    0.3356   -2.2222 H   0  0  0  0  0  0  0  0  0  0  0  0
   -3.8872    0.3190   -1.6237 H   0  0  0  0  0  0  0  0  0  0  0  0
   -3.1756   -1.0833   -2.4606 H   0  0  0  0  0  0  0  0  0  0  0  0
    0.0122    5.6421   -0.3617 H   0  0  0  0  0  0  0  0  0  0  0  0
    1.3530    4.8769    0.6207 H   0  0  0  0  0  0  0  0  0  0  0  0
   -0.2934    5.2059    1.3626 H   0  0  0  0  0  0  0  0  0  0  0  0
  1  2  1  0
  2  3  1  0
  3  4  1  0
  4  5  1  0
  5  6  1  0
  6  7  1  0
  7  8  2  0
  7  9  1  0
  4 10  1  0
 10 11  1  6
 10 12  1  0
 12 13  1  0
 13 14  1  0
 15 14  1  1
 15 16  1  0
 16 17  1  0
 17 18  1  0
 18 19  1  0
 19 20  2  0
 20 21  1  0
 21 22  2  0
 21 23  1  0
 23 24  1  0
 24 25  1  0
 25 26  1  6
 17 27  1  0
 27 28  2  0
 27 29  1  0
 29 30  1  0
 10  1  1  0
 15 13  1  0
 25 15  1  0
 16  1  1  0
 25 19  1  0
  4  9  1  6
  1 31  1  1
  2 32  1  0
  2 33  1  0
  3 34  1  0
  3 35  1  0
  5 36  1  0
  5 37  1  0
  6 38  1  0
  6 39  1  0
 11 40  1  0
 11 41  1  0
 11 42  1  0
 12 43  1  0
 12 44  1  0
 13 45  1  6
 16 46  1  6
 17 47  1  6
 18 48  1  0
 18 49  1  0
 20 50  1  0
 23 51  1  0
 23 52  1  0
 24 53  1  0
 24 54  1  0
 26 55  1  0
 26 56  1  0
 26 57  1  0
 30 58  1  0
 30 59  1  0
 30 60  1  0
M  END
$$$$
