@<TRIPOS>MOLECULE
*****
 60 65 0 0 0
SMALL
GASTEIGER

@<TRIPOS>ATOM
      1 C           0.9421    0.4077    0.3752 C.3     1  UNL1       -0.0255
      2 C           1.7954    1.4563    0.8964 C.3     1  UNL1       -0.0456
      3 C           3.1068    0.6699    1.1014 C.3     1  UNL1       -0.0120
      4 C           3.0201   -0.5148    0.1278 C.3     1  UNL1        0.1197
      5 C           2.9074   -1.8259    0.8312 C.3     1  UNL1       -0.0022
      6 C           4.3470   -2.3261    0.8718 C.3     1  UNL1        0.0486
      7 C           4.9887   -1.6349   -0.2697 C.2     1  UNL1        0.3077
      8 O           6.0607   -1.9743   -0.8720 O.2     1  UNL1       -0.2508
      9 O           4.2371   -0.5381   -0.5974 O.3     1  UNL1       -0.4575
     10 C           1.8626   -0.1409   -0.7307 C.3     1  UNL1        0.0134
     11 C           2.3423    1.0197   -1.6096 C.3     1  UNL1       -0.0556
     12 C           1.2316   -1.2019   -1.5370 C.3     1  UNL1       -0.0145
     13 C          -0.1201   -1.6814   -1.0590 C.3     1  UNL1        0.0902
     14 O          -0.3282   -1.8822    0.2982 O.3     1  UNL1       -0.3635
     15 C          -0.9489   -0.8175   -0.3548 C.3     1  UNL1        0.1088
     16 C          -0.3744    0.5968   -0.1940 C.3     1  UNL1        0.0080
     17 C          -1.3536    1.5016    0.4840 C.3     1  UNL1        0.0659
     18 C          -2.2052    0.8004    1.5260 C.3     1  UNL1       -0.0174
     19 C          -3.0649   -0.1558    0.7559 C.2     1  UNL1       -0.0567
     20 C          -4.3012   -0.3853    1.1330 C.2     1  UNL1       -0.0193
     21 C          -5.0817   -1.3303    0.3342 C.2     1  UNL1        0.1561
     22 O          -6.3323   -1.2576    0.2717 O.2     1  UNL1       -0.2927
     23 C          -4.3962   -2.3877   -0.4123 C.3     1  UNL1        0.0107
     24 C          -2.8951   -2.2604   -0.3480 C.3     1  UNL1       -0.0342
     25 C          -2.4433   -0.8157   -0.4386 C.3     1  UNL1        0.0215
     26 C          -2.9383   -0.2564   -1.7370 C.3     1  UNL1       -0.0531
     27 C          -0.8178    2.7767    0.9564 C.2     1  UNL1        0.3106
     28 O          -0.9011    2.9922    2.2149 O.2     1  UNL1       -0.2505
     29 O          -0.2640    3.6580    0.0356 O.3     1  UNL1       -0.4677
     30 C           0.2662    4.9006    0.4384 C.3     1  UNL1        0.0817
     31 H           0.9269   -0.4295    1.1282 H       1  UNL1        0.0311
     32 H           2.0898    2.2667    0.2046 H       1  UNL1        0.0269
     33 H           1.5812    1.8639    1.9044 H       1  UNL1        0.0269
     34 H           3.9925    1.2829    0.9382 H       1  UNL1        0.0304
     35 H           3.1134    0.2114    2.1222 H       1  UNL1        0.0304
     36 H           2.4855   -1.7252    1.8576 H       1  UNL1        0.0309
     37 H           2.3308   -2.5828    0.2987 H       1  UNL1        0.0309
     38 H           4.4301   -3.4196    0.7883 H       1  UNL1        0.0379
     39 H           4.7958   -1.9344    1.7993 H       1  UNL1        0.0379
     40 H           3.2822    1.4595   -1.2629 H       1  UNL1        0.0236
     41 H           2.5261    0.5746   -2.6158 H       1  UNL1        0.0236
     42 H           1.5578    1.7746   -1.7610 H       1  UNL1        0.0236
     43 H           1.0406   -0.7922   -2.5645 H       1  UNL1        0.0298
     44 H           1.9268   -2.0706   -1.7277 H       1  UNL1        0.0298
     45 H          -0.5100   -2.4930   -1.7084 H       1  UNL1        0.0625
     46 H          -0.2572    0.9372   -1.2571 H       1  UNL1        0.0341
     47 H          -2.1221    1.7789   -0.3025 H       1  UNL1        0.0420
     48 H          -1.5126    0.2518    2.1847 H       1  UNL1        0.0318
     49 H          -2.7987    1.5889    2.0172 H       1  UNL1        0.0318
     50 H          -4.7573    0.0864    1.9932 H       1  UNL1        0.0652
     51 H          -4.6835   -2.4393   -1.4917 H       1  UNL1        0.0345
     52 H          -4.6881   -3.3710    0.0280 H       1  UNL1        0.0345
     53 H          -2.3947   -2.9178   -1.0568 H       1  UNL1        0.0279
     54 H          -2.5749   -2.5905    0.6768 H       1  UNL1        0.0279
     55 H          -2.1310    0.3356   -2.2222 H       1  UNL1        0.0239
     56 H          -3.8872    0.3190   -1.6237 H       1  UNL1        0.0239
     57 H          -3.1756   -1.0833   -2.4606 H       1  UNL1        0.0239
     58 H           0.0122    5.6421   -0.3617 H       1  UNL1        0.0661
     59 H           1.3530    4.8769    0.6207 H       1  UNL1        0.0661
     60 H          -0.2934    5.2059    1.3626 H       1  UNL1        0.0661
@<TRIPOS>BOND
     1     1     2    1
     2     2     3    1
     3     3     4    1
     4     4     5    1
     5     5     6    1
     6     6     7    1
     7     7     8    2
     8     7     9    1
     9     4    10    1
    10    10    11    1
    11    10    12    1
    12    12    13    1
    13    13    14    1
    14    15    14    1
    15    15    16    1
    16    16    17    1
    17    17    18    1
    18    18    19    1
    19    19    20    2
    20    20    21    1
    21    21    22    2
    22    21    23    1
    23    23    24    1
    24    24    25    1
    25    25    26    1
    26    17    27    1
    27    27    28    2
    28    27    29    1
    29    29    30    1
    30    10     1    1
    31    15    13    1
    32    25    15    1
    33    16     1    1
    34    25    19    1
    35     4     9    1
    36     1    31    1
    37     2    32    1
    38     2    33    1
    39     3    34    1
    40     3    35    1
    41     5    36    1
    42     5    37    1
    43     6    38    1
    44     6    39    1
    45    11    40    1
    46    11    41    1
    47    11    42    1
    48    12    43    1
    49    12    44    1
    50    13    45    1
    51    16    46    1
    52    17    47    1
    53    18    48    1
    54    18    49    1
    55    20    50    1
    56    23    51    1
    57    23    52    1
    58    24    53    1
    59    24    54    1
    60    26    55    1
    61    26    56    1
    62    26    57    1
    63    30    58    1
    64    30    59    1
    65    30    60    1
