@<TRIPOS>MOLECULE
*****
 86 90 0 0 0
SMALL
GASTEIGER

@<TRIPOS>ATOM
      1 O           8.0246    1.7178    3.6326 O.2     1  UNL1       -0.2510
      2 C           9.1778    1.7617    3.1672 C.2     1  UNL1        0.3048
      3 O          10.1174    2.5589    3.8040 O.3     1  UNL1       -0.4806
      4 C           9.5495    0.9939    1.9739 C.3     1  UNL1        0.0478
      5 C           8.3726    0.3025    1.3824 C.3     1  UNL1       -0.0086
      6 C           7.3027    1.2177    0.8992 C.3     1  UNL1        0.0901
      7 O           6.2001    0.4851    0.3358 O.3     1  UNL1       -0.4917
      8 C           5.1231    1.1937   -0.1565 C.ar    1  UNL1        0.1239
      9 C           5.1102    2.5719   -0.1049 C.ar    1  UNL1       -0.0197
     10 C           4.0073    3.2293   -0.6113 C.ar    1  UNL1       -0.0580
     11 C           2.9432    2.5515   -1.1546 C.ar    1  UNL1       -0.0581
     12 C           2.9786    1.1523   -1.1958 C.ar    1  UNL1       -0.0407
     13 C           1.7733    0.4796   -1.7540 C.3     1  UNL1       -0.0273
     14 C           0.8498    0.0419   -0.6577 C.3     1  UNL1       -0.0490
     15 C          -0.4124   -0.6430   -1.1731 C.3     1  UNL1       -0.0527
     16 C          -0.0612   -1.8488   -1.9503 C.3     1  UNL1       -0.0500
     17 C          -1.2082   -2.6609   -2.4763 C.3     1  UNL1       -0.0186
     18 C          -2.0962   -1.8862   -3.3839 C.3     1  UNL1        0.0896
     19 O          -2.7111   -0.8292   -2.7773 O.3     1  UNL1       -0.4919
     20 C          -3.6408   -0.7503   -1.7735 C.ar    1  UNL1        0.1217
     21 C          -4.2283   -1.8104   -1.1288 C.ar    1  UNL1       -0.0122
     22 C          -5.1695   -1.6556   -0.1056 C.ar    1  UNL1       -0.0138
     23 C          -5.7248   -2.8467    0.5032 C.ar    1  UNL1       -0.0150
     24 C          -5.8796   -3.9797   -0.2685 C.ar    1  UNL1       -0.0539
     25 C          -6.4087   -5.1536    0.2701 C.ar    1  UNL1       -0.0585
     26 C          -6.7849   -5.1808    1.6027 C.ar    1  UNL1       -0.0264
     27 C          -6.6343   -4.0522    2.3841 C.ar    1  UNL1        0.1240
     28 F          -7.0110   -4.1178    3.6785 F       1  UNL1       -0.2055
     29 C          -6.1090   -2.9072    1.8257 C.ar    1  UNL1       -0.0187
     30 C          -5.5260   -0.3870    0.2746 C.ar    1  UNL1       -0.0461
     31 C          -4.9650    0.7365   -0.3430 C.ar    1  UNL1       -0.0137
     32 C          -5.3620    2.0777    0.0809 C.ar    1  UNL1       -0.0141
     33 C          -5.3543    3.0832   -0.8571 C.ar    1  UNL1       -0.0503
     34 C          -5.7278    4.3726   -0.4811 C.ar    1  UNL1       -0.0156
     35 C          -6.1054    4.6629    0.8125 C.ar    1  UNL1        0.1663
     36 C          -6.1123    3.6523    1.7518 C.ar    1  UNL1        0.1668
     37 C          -5.7427    2.3777    1.3787 C.ar    1  UNL1       -0.0084
     38 O          -6.5271    4.2040    2.9622 O.3     1  UNL1       -0.4526
     39 C          -7.2758    5.3848    2.6304 C.3     1  UNL1        0.2332
     40 O          -6.5237    5.8226    1.4893 O.3     1  UNL1       -0.4526
     41 C          -4.0525    0.5176   -1.3342 C.ar    1  UNL1       -0.0122
     42 C           4.0676    0.4723   -0.6983 C.ar    1  UNL1       -0.0020
     43 C           4.1672   -0.9889   -0.7392 C.3     1  UNL1       -0.0139
     44 C           5.1429   -1.4608   -1.8112 C.3     1  UNL1        0.0489
     45 C           5.1910   -2.9553   -1.7926 C.2     1  UNL1        0.3050
     46 O           5.9372   -3.5716   -2.5961 O.2     1  UNL1       -0.2510
     47 O           4.4343   -3.7068   -0.9113 O.3     1  UNL1       -0.4806
     48 H           9.8683    3.2900    4.4677 H       1  UNL1        0.2951
     49 H          10.3851    0.2670    2.2177 H       1  UNL1        0.0378
     50 H          10.0125    1.6549    1.2036 H       1  UNL1        0.0378
     51 H           8.7382   -0.2662    0.4971 H       1  UNL1        0.0303
     52 H           7.9567   -0.4887    2.0609 H       1  UNL1        0.0303
     53 H           6.9747    1.9012    1.6748 H       1  UNL1        0.0696
     54 H           7.7519    1.8719    0.0907 H       1  UNL1        0.0696
     55 H           5.9488    3.1042    0.3249 H       1  UNL1        0.0654
     56 H           4.0102    4.3172   -0.5661 H       1  UNL1        0.0619
     57 H           2.0757    3.0772   -1.5512 H       1  UNL1        0.0620
     58 H           1.2409    1.2165   -2.3824 H       1  UNL1        0.0313
     59 H           2.0635   -0.3549   -2.4306 H       1  UNL1        0.0313
     60 H           0.5175    0.9661   -0.0836 H       1  UNL1        0.0268
     61 H           1.3156   -0.6211    0.0687 H       1  UNL1        0.0268
     62 H          -0.9198    0.1366   -1.8032 H       1  UNL1        0.0265
     63 H          -1.0475   -0.8315   -0.2982 H       1  UNL1        0.0265
     64 H           0.5246   -1.5358   -2.8452 H       1  UNL1        0.0266
     65 H           0.5323   -2.5243   -1.2926 H       1  UNL1        0.0266
     66 H          -1.7605   -3.0391   -1.6152 H       1  UNL1        0.0298
     67 H          -0.7211   -3.5336   -3.0293 H       1  UNL1        0.0298
     68 H          -1.4936   -1.4933   -4.2662 H       1  UNL1        0.0696
     69 H          -2.8366   -2.5778   -3.9084 H       1  UNL1        0.0696
     70 H          -3.9777   -2.8059   -1.4294 H       1  UNL1        0.0660
     71 H          -5.6055   -4.0201   -1.3139 H       1  UNL1        0.0624
     72 H          -6.5136   -6.0195   -0.3666 H       1  UNL1        0.0619
     73 H          -7.1918   -6.1076    1.9829 H       1  UNL1        0.0646
     74 H          -6.0068   -2.0426    2.4658 H       1  UNL1        0.0652
     75 H          -6.2467   -0.2391    1.0572 H       1  UNL1        0.0630
     76 H          -5.0732    2.9402   -1.8876 H       1  UNL1        0.0625
     77 H          -5.7191    5.1655   -1.2294 H       1  UNL1        0.0655
     78 H          -5.7375    1.5677    2.0883 H       1  UNL1        0.0661
     79 H          -7.2789    6.1183    3.4363 H       1  UNL1        0.1166
     80 H          -8.2740    5.1090    2.2492 H       1  UNL1        0.1166
     81 H          -3.6101    1.3774   -1.8220 H       1  UNL1        0.0660
     82 H           4.4804   -1.4524    0.2166 H       1  UNL1        0.0320
     83 H           3.1790   -1.4411   -1.0005 H       1  UNL1        0.0320
     84 H           4.7684   -1.1653   -2.8106 H       1  UNL1        0.0381
     85 H           6.1405   -1.0355   -1.6752 H       1  UNL1        0.0381
     86 H           4.4135   -4.7144   -0.8874 H       1  UNL1        0.2951
@<TRIPOS>BOND
     1     1     2    2
     2     2     3    1
     3     2     4    1
     4     4     5    1
     5     5     6    1
     6     6     7    1
     7     7     8    1
     8     8     9   ar
     9     9    10   ar
    10    10    11   ar
    11    11    12   ar
    12    12    13    1
    13    13    14    1
    14    14    15    1
    15    15    16    1
    16    16    17    1
    17    17    18    1
    18    18    19    1
    19    19    20    1
    20    20    21   ar
    21    21    22   ar
    22    22    23    1
    23    23    24   ar
    24    24    25   ar
    25    25    26   ar
    26    26    27   ar
    27    27    28    1
    28    27    29   ar
    29    22    30   ar
    30    30    31   ar
    31    31    32    1
    32    32    33   ar
    33    33    34   ar
    34    34    35   ar
    35    35    36   ar
    36    36    37   ar
    37    36    38    1
    38    38    39    1
    39    39    40    1
    40    31    41   ar
    41    12    42   ar
    42    42    43    1
    43    43    44    1
    44    44    45    1
    45    45    46    2
    46    45    47    1
    47    42     8   ar
    48    41    20   ar
    49    29    23   ar
    50    37    32   ar
    51    40    35    1
    52     3    48    1
    53     4    49    1
    54     4    50    1
    55     5    51    1
    56     5    52    1
    57     6    53    1
    58     6    54    1
    59     9    55    1
    60    10    56    1
    61    11    57    1
    62    13    58    1
    63    13    59    1
    64    14    60    1
    65    14    61    1
    66    15    62    1
    67    15    63    1
    68    16    64    1
    69    16    65    1
    70    17    66    1
    71    17    67    1
    72    18    68    1
    73    18    69    1
    74    21    70    1
    75    24    71    1
    76    25    72    1
    77    26    73    1
    78    29    74    1
    79    30    75    1
    80    33    76    1
    81    34    77    1
    82    37    78    1
    83    39    79    1
    84    39    80    1
    85    41    81    1
    86    43    82    1
    87    43    83    1
    88    44    84    1
    89    44    85    1
    90    47    86    1
