
     RDKit          3D

 86 90  0  0  0  0  0  0  0  0999 V2000
    8.0246    1.7178    3.6326 O   0  0  0  0  0  0  0  0  0  0  0  0
    9.1778    1.7617    3.1672 C   0  0  0  0  0  0  0  0  0  0  0  0
   10.1174    2.5589    3.8040 O   0  0  0  0  0  0  0  0  0  0  0  0
    9.5495    0.9939    1.9739 C   0  0  0  0  0  0  0  0  0  0  0  0
    8.3726    0.3025    1.3824 C   0  0  0  0  0  0  0  0  0  0  0  0
    7.3027    1.2177    0.8992 C   0  0  0  0  0  0  0  0  0  0  0  0
    6.2001    0.4851    0.3358 O   0  0  0  0  0  0  0  0  0  0  0  0
    5.1231    1.1937   -0.1565 C   0  0  0  0  0  0  0  0  0  0  0  0
    5.1102    2.5719   -0.1049 C   0  0  0  0  0  0  0  0  0  0  0  0
    4.0073    3.2293   -0.6113 C   0  0  0  0  0  0  0  0  0  0  0  0
    2.9432    2.5515   -1.1546 C   0  0  0  0  0  0  0  0  0  0  0  0
    2.9786    1.1523   -1.1958 C   0  0  0  0  0  0  0  0  0  0  0  0
    1.7733    0.4796   -1.7540 C   0  0  0  0  0  0  0  0  0  0  0  0
    0.8498    0.0419   -0.6577 C   0  0  0  0  0  0  0  0  0  0  0  0
   -0.4124   -0.6430   -1.1731 C   0  0  0  0  0  0  0  0  0  0  0  0
   -0.0612   -1.8488   -1.9503 C   0  0  0  0  0  0  0  0  0  0  0  0
   -1.2082   -2.6609   -2.4763 C   0  0  0  0  0  0  0  0  0  0  0  0
   -2.0962   -1.8862   -3.3839 C   0  0  0  0  0  0  0  0  0  0  0  0
   -2.7111   -0.8292   -2.7773 O   0  0  0  0  0  0  0  0  0  0  0  0
   -3.6408   -0.7503   -1.7735 C   0  0  0  0  0  0  0  0  0  0  0  0
   -4.2283   -1.8104   -1.1288 C   0  0  0  0  0  0  0  0  0  0  0  0
   -5.1695   -1.6556   -0.1056 C   0  0  0  0  0  0  0  0  0  0  0  0
   -5.7248   -2.8467    0.5032 C   0  0  0  0  0  0  0  0  0  0  0  0
   -5.8796   -3.9797   -0.2685 C   0  0  0  0  0  0  0  0  0  0  0  0
   -6.4087   -5.1536    0.2701 C   0  0  0  0  0  0  0  0  0  0  0  0
   -6.7849   -5.1808    1.6027 C   0  0  0  0  0  0  0  0  0  0  0  0
   -6.6343   -4.0522    2.3841 C   0  0  0  0  0  0  0  0  0  0  0  0
   -7.0110   -4.1178    3.6785 F   0  0  0  0  0  0  0  0  0  0  0  0
   -6.1090   -2.9072    1.8257 C   0  0  0  0  0  0  0  0  0  0  0  0
   -5.5260   -0.3870    0.2746 C   0  0  0  0  0  0  0  0  0  0  0  0
   -4.9650    0.7365   -0.3430 C   0  0  0  0  0  0  0  0  0  0  0  0
   -5.3620    2.0777    0.0809 C   0  0  0  0  0  0  0  0  0  0  0  0
   -5.3543    3.0832   -0.8571 C   0  0  0  0  0  0  0  0  0  0  0  0
   -5.7278    4.3726   -0.4811 C   0  0  0  0  0  0  0  0  0  0  0  0
   -6.1054    4.6629    0.8125 C   0  0  0  0  0  0  0  0  0  0  0  0
   -6.1123    3.6523    1.7518 C   0  0  0  0  0  0  0  0  0  0  0  0
   -5.7427    2.3777    1.3787 C   0  0  0  0  0  0  0  0  0  0  0  0
   -6.5271    4.2040    2.9622 O   0  0  0  0  0  0  0  0  0  0  0  0
   -7.2758    5.3848    2.6304 C   0  0  0  0  0  0  0  0  0  0  0  0
   -6.5237    5.8226    1.4893 O   0  0  0  0  0  0  0  0  0  0  0  0
   -4.0525    0.5176   -1.3342 C   0  0  0  0  0  0  0  0  0  0  0  0
    4.0676    0.4723   -0.6983 C   0  0  0  0  0  0  0  0  0  0  0  0
    4.1672   -0.9889   -0.7392 C   0  0  0  0  0  0  0  0  0  0  0  0
    5.1429   -1.4608   -1.8112 C   0  0  0  0  0  0  0  0  0  0  0  0
    5.1910   -2.9553   -1.7926 C   0  0  0  0  0  0  0  0  0  0  0  0
    5.9372   -3.5716   -2.5961 O   0  0  0  0  0  0  0  0  0  0  0  0
    4.4343   -3.7068   -0.9113 O   0  0  0  0  0  0  0  0  0  0  0  0
    9.8683    3.2900    4.4677 H   0  0  0  0  0  0  0  0  0  0  0  0
   10.3851    0.2670    2.2177 H   0  0  0  0  0  0  0  0  0  0  0  0
   10.0125    1.6549    1.2036 H   0  0  0  0  0  0  0  0  0  0  0  0
    8.7382   -0.2662    0.4971 H   0  0  0  0  0  0  0  0  0  0  0  0
    7.9567   -0.4887    2.0609 H   0  0  0  0  0  0  0  0  0  0  0  0
    6.9747    1.9012    1.6748 H   0  0  0  0  0  0  0  0  0  0  0  0
    7.7519    1.8719    0.0907 H   0  0  0  0  0  0  0  0  0  0  0  0
    5.9488    3.1042    0.3249 H   0  0  0  0  0  0  0  0  0  0  0  0
    4.0102    4.3172   -0.5661 H   0  0  0  0  0  0  0  0  0  0  0  0
    2.0757    3.0772   -1.5512 H   0  0  0  0  0  0  0  0  0  0  0  0
    1.2409    1.2165   -2.3824 H   0  0  0  0  0  0  0  0  0  0  0  0
    2.0635   -0.3549   -2.4306 H   0  0  0  0  0  0  0  0  0  0  0  0
    0.5175    0.9661   -0.0836 H   0  0  0  0  0  0  0  0  0  0  0  0
    1.3156   -0.6211    0.0687 H   0  0  0  0  0  0  0  0  0  0  0  0
   -0.9198    0.1366   -1.8032 H   0  0  0  0  0  0  0  0  0  0  0  0
   -1.0475   -0.8315   -0.2982 H   0  0  0  0  0  0  0  0  0  0  0  0
    0.5246   -1.5358   -2.8452 H   0  0  0  0  0  0  0  0  0  0  0  0
    0.5323   -2.5243   -1.2926 H   0  0  0  0  0  0  0  0  0  0  0  0
   -1.7605   -3.0391   -1.6152 H   0  0  0  0  0  0  0  0  0  0  0  0
   -0.7211   -3.5336   -3.0293 H   0  0  0  0  0  0  0  0  0  0  0  0
   -1.4936   -1.4933   -4.2662 H   0  0  0  0  0  0  0  0  0  0  0  0
   -2.8366   -2.5778   -3.9084 H   0  0  0  0  0  0  0  0  0  0  0  0
   -3.9777   -2.8059   -1.4294 H   0  0  0  0  0  0  0  0  0  0  0  0
   -5.6055   -4.0201   -1.3139 H   0  0  0  0  0  0  0  0  0  0  0  0
   -6.5136   -6.0195   -0.3666 H   0  0  0  0  0  0  0  0  0  0  0  0
   -7.1918   -6.1076    1.9829 H   0  0  0  0  0  0  0  0  0  0  0  0
   -6.0068   -2.0426    2.4658 H   0  0  0  0  0  0  0  0  0  0  0  0
   -6.2467   -0.2391    1.0572 H   0  0  0  0  0  0  0  0  0  0  0  0
   -5.0732    2.9402   -1.8876 H   0  0  0  0  0  0  0  0  0  0  0  0
   -5.7191    5.1655   -1.2294 H   0  0  0  0  0  0  0  0  0  0  0  0
   -5.7375    1.5677    2.0883 H   0  0  0  0  0  0  0  0  0  0  0  0
   -7.2789    6.1183    3.4363 H   0  0  0  0  0  0  0  0  0  0  0  0
   -8.2740    5.1090    2.2492 H   0  0  0  0  0  0  0  0  0  0  0  0
   -3.6101    1.3774   -1.8220 H   0  0  0  0  0  0  0  0  0  0  0  0
    4.4804   -1.4524    0.2166 H   0  0  0  0  0  0  0  0  0  0  0  0
    3.1790   -1.4411   -1.0005 H   0  0  0  0  0  0  0  0  0  0  0  0
    4.7684   -1.1653   -2.8106 H   0  0  0  0  0  0  0  0  0  0  0  0
    6.1405   -1.0355   -1.6752 H   0  0  0  0  0  0  0  0  0  0  0  0
    4.4135   -4.7144   -0.8874 H   0  0  0  0  0  0  0  0  0  0  0  0
  1  2  2  0
  2  3  1  0
  2  4  1  0
  4  5  1  0
  5  6  1  0
  6  7  1  0
  7  8  1  0
  8  9  2  0
  9 10  1  0
 10 11  2  0
 11 12  1  0
 12 13  1  0
 13 14  1  0
 14 15  1  0
 15 16  1  0
 16 17  1  0
 17 18  1  0
 18 19  1  0
 19 20  1  0
 20 21  2  0
 21 22  1  0
 22 23  1  0
 23 24  2  0
 24 25  1  0
 25 26  2  0
 26 27  1  0
 27 28  1  0
 27 29  2  0
 22 30  2  0
 30 31  1  0
 31 32  1  0
 32 33  2  0
 33 34  1  0
 34 35  2  0
 35 36  1  0
 36 37  2  0
 36 38  1  0
 38 39  1  0
 39 40  1  0
 31 41  2  0
 12 42  2  0
 42 43  1  0
 43 44  1  0
 44 45  1  0
 45 46  2  0
 45 47  1  0
 42  8  1  0
 41 20  1  0
 29 23  1  0
 37 32  1  0
 40 35  1  0
  3 48  1  0
  4 49  1  0
  4 50  1  0
  5 51  1  0
  5 52  1  0
  6 53  1  0
  6 54  1  0
  9 55  1  0
 10 56  1  0
 11 57  1  0
 13 58  1  0
 13 59  1  0
 14 60  1  0
 14 61  1  0
 15 62  1  0
 15 63  1  0
 16 64  1  0
 16 65  1  0
 17 66  1  0
 17 67  1  0
 18 68  1  0
 18 69  1  0
 21 70  1  0
 24 71  1  0
 25 72  1  0
 26 73  1  0
 29 74  1  0
 30 75  1  0
 33 76  1  0
 34 77  1  0
 37 78  1  0
 39 79  1  0
 39 80  1  0
 41 81  1  0
 43 82  1  0
 43 83  1  0
 44 84  1  0
 44 85  1  0
 47 86  1  0
M  END
$$$$
