
     RDKit          3D

 62 64  0  0  0  0  0  0  0  0999 V2000
    2.0554   -2.0463   -0.9827 C   0  0  0  0  0  0  0  0  0  0  0  0
    2.2069   -2.0833    0.5085 C   0  0  0  0  0  0  0  0  0  0  0  0
    1.0334   -1.3754    1.0814 N   0  0  0  0  0  0  0  0  0  0  0  0
   -0.1462   -2.1494    1.3206 C   0  0  0  0  0  0  0  0  0  0  0  0
   -1.0561   -2.3769    0.1847 C   0  0  0  0  0  0  0  0  0  0  0  0
   -0.9244   -3.6340   -0.4648 C   0  0  0  0  0  0  0  0  0  0  0  0
   -1.7049   -4.0003   -1.5271 C   0  0  0  0  0  0  0  0  0  0  0  0
   -1.5471   -5.3172   -2.1937 C   0  0  0  0  0  0  0  0  0  0  0  0
   -0.7136   -6.1272   -1.4604 F   0  0  0  0  0  0  0  0  0  0  0  0
   -1.0006   -5.0892   -3.4298 F   0  0  0  0  0  0  0  0  0  0  0  0
   -2.7663   -5.9586   -2.3476 F   0  0  0  0  0  0  0  0  0  0  0  0
   -2.6612   -3.1147   -1.9896 C   0  0  0  0  0  0  0  0  0  0  0  0
   -2.8033   -1.8904   -1.3724 C   0  0  0  0  0  0  0  0  0  0  0  0
   -1.9941   -1.5176   -0.2765 C   0  0  0  0  0  0  0  0  0  0  0  0
   -2.2755   -0.1828    0.2259 C   0  0  0  0  0  0  0  0  0  0  0  0
   -1.8039    0.9285   -0.4203 C   0  0  0  0  0  0  0  0  0  0  0  0
   -2.1379    2.1746    0.0449 C   0  0  0  0  0  0  0  0  0  0  0  0
   -1.6308    3.4068   -0.6463 C   0  0  0  0  0  0  0  0  0  0  0  0
   -2.6104    3.7277   -1.7204 C   0  0  0  0  0  0  0  0  0  0  0  0
   -3.6551    3.0424   -1.9340 O   0  0  0  0  0  0  0  0  0  0  0  0
   -2.3997    4.8163   -2.5399 O   0  0  0  0  0  0  0  0  0  0  0  0
   -2.9329    2.3431    1.1421 C   0  0  0  0  0  0  0  0  0  0  0  0
   -3.4001    1.2070    1.7826 C   0  0  0  0  0  0  0  0  0  0  0  0
   -3.0741   -0.0500    1.3286 C   0  0  0  0  0  0  0  0  0  0  0  0
   -3.5557   -1.1818    1.9898 O   0  0  0  0  0  0  0  0  0  0  0  0
   -4.3705   -1.1777    3.1158 C   0  0  0  0  0  0  0  0  0  0  0  0
    1.1574    0.0059    1.2966 C   0  0  0  0  0  0  0  0  0  0  0  0
    0.2905    0.7498    1.8373 O   0  0  0  0  0  0  0  0  0  0  0  0
    2.3617    0.6260    0.8713 O   0  0  0  0  0  0  0  0  0  0  0  0
    2.5493    2.0215    1.0636 C   0  0  0  0  0  0  0  0  0  0  0  0
    3.8993    2.3253    0.5144 C   0  0  0  0  0  0  0  0  0  0  0  0
    5.0314    2.2375    1.2992 C   0  0  0  0  0  0  0  0  0  0  0  0
    6.2821    2.5229    0.7848 C   0  0  0  0  0  0  0  0  0  0  0  0
    6.4158    2.9036   -0.5350 C   0  0  0  0  0  0  0  0  0  0  0  0
    5.2857    2.9923   -1.3211 C   0  0  0  0  0  0  0  0  0  0  0  0
    4.0263    2.7074   -0.8126 C   0  0  0  0  0  0  0  0  0  0  0  0
    2.9437   -1.5655   -1.4870 H   0  0  0  0  0  0  0  0  0  0  0  0
    1.1679   -1.4833   -1.3369 H   0  0  0  0  0  0  0  0  0  0  0  0
    2.0341   -3.0789   -1.4032 H   0  0  0  0  0  0  0  0  0  0  0  0
    2.2797   -3.1042    0.9297 H   0  0  0  0  0  0  0  0  0  0  0  0
    3.1528   -1.5768    0.7742 H   0  0  0  0  0  0  0  0  0  0  0  0
    0.1221   -3.1424    1.8041 H   0  0  0  0  0  0  0  0  0  0  0  0
   -0.7481   -1.6629    2.1695 H   0  0  0  0  0  0  0  0  0  0  0  0
   -0.1873   -4.3486   -0.1280 H   0  0  0  0  0  0  0  0  0  0  0  0
   -3.2573   -3.4319   -2.8233 H   0  0  0  0  0  0  0  0  0  0  0  0
   -3.5645   -1.2286   -1.7672 H   0  0  0  0  0  0  0  0  0  0  0  0
   -1.1581    0.8479   -1.3122 H   0  0  0  0  0  0  0  0  0  0  0  0
   -0.6290    3.2486   -1.0635 H   0  0  0  0  0  0  0  0  0  0  0  0
   -1.5802    4.2037    0.1013 H   0  0  0  0  0  0  0  0  0  0  0  0
   -3.1963    5.3470   -2.9003 H   0  0  0  0  0  0  0  0  0  0  0  0
   -3.2158    3.3118    1.5348 H   0  0  0  0  0  0  0  0  0  0  0  0
   -4.0412    1.3602    2.6664 H   0  0  0  0  0  0  0  0  0  0  0  0
   -4.2265   -2.1263    3.7035 H   0  0  0  0  0  0  0  0  0  0  0  0
   -4.1879   -0.3176    3.7993 H   0  0  0  0  0  0  0  0  0  0  0  0
   -5.4371   -1.1893    2.8149 H   0  0  0  0  0  0  0  0  0  0  0  0
    1.7736    2.5376    0.4669 H   0  0  0  0  0  0  0  0  0  0  0  0
    2.5329    2.3279    2.1098 H   0  0  0  0  0  0  0  0  0  0  0  0
    4.9284    1.9394    2.3354 H   0  0  0  0  0  0  0  0  0  0  0  0
    7.1984    2.4648    1.3707 H   0  0  0  0  0  0  0  0  0  0  0  0
    7.3653    3.1408   -1.0020 H   0  0  0  0  0  0  0  0  0  0  0  0
    5.3634    3.2887   -2.3575 H   0  0  0  0  0  0  0  0  0  0  0  0
    3.1366    2.7719   -1.4130 H   0  0  0  0  0  0  0  0  0  0  0  0
  1  2  1  0
  2  3  1  0
  3  4  1  0
  4  5  1  0
  5  6  2  0
  6  7  1  0
  7  8  1  0
  8  9  1  0
  8 10  1  0
  8 11  1  0
  7 12  2  0
 12 13  1  0
 13 14  2  0
 14 15  1  0
 15 16  2  0
 16 17  1  0
 17 18  1  0
 18 19  1  0
 19 20  2  0
 19 21  1  0
 17 22  2  0
 22 23  1  0
 23 24  2  0
 24 25  1  0
 25 26  1  0
  3 27  1  0
 27 28  2  0
 27 29  1  0
 29 30  1  0
 30 31  1  0
 31 32  2  0
 32 33  1  0
 33 34  2  0
 34 35  1  0
 35 36  2  0
 14  5  1  0
 24 15  1  0
 36 31  1  0
  1 37  1  0
  1 38  1  0
  1 39  1  0
  2 40  1  0
  2 41  1  0
  4 42  1  0
  4 43  1  0
  6 44  1  0
 12 45  1  0
 13 46  1  0
 16 47  1  0
 18 48  1  0
 18 49  1  0
 21 50  1  0
 22 51  1  0
 23 52  1  0
 26 53  1  0
 26 54  1  0
 26 55  1  0
 30 56  1  0
 30 57  1  0
 32 58  1  0
 33 59  1  0
 34 60  1  0
 35 61  1  0
 36 62  1  0
M  END
$$$$
