@<TRIPOS>MOLECULE
*****
 62 64 0 0 0
SMALL
GASTEIGER

@<TRIPOS>ATOM
      1 C           2.0554   -2.0463   -0.9827 C.3     1  UNL1       -0.0492
      2 C           2.2069   -2.0833    0.5085 C.3     1  UNL1        0.0153
      3 N           1.0334   -1.3754    1.0814 N.am    1  UNL1       -0.2634
      4 C          -0.1462   -2.1494    1.3206 C.3     1  UNL1        0.0434
      5 C          -1.0561   -2.3769    0.1847 C.ar    1  UNL1       -0.0217
      6 C          -0.9244   -3.6340   -0.4648 C.ar    1  UNL1       -0.0449
      7 C          -1.7049   -4.0003   -1.5271 C.ar    1  UNL1        0.0552
      8 C          -1.5471   -5.3172   -2.1937 C.3     1  UNL1        0.4174
      9 F          -0.7136   -6.1272   -1.4604 F       1  UNL1       -0.1659
     10 F          -1.0006   -5.0892   -3.4298 F       1  UNL1       -0.1659
     11 F          -2.7663   -5.9586   -2.3476 F       1  UNL1       -0.1659
     12 C          -2.6612   -3.1147   -1.9896 C.ar    1  UNL1       -0.0495
     13 C          -2.8033   -1.8904   -1.3724 C.ar    1  UNL1       -0.0531
     14 C          -1.9941   -1.5176   -0.2765 C.ar    1  UNL1       -0.0097
     15 C          -2.2755   -0.1828    0.2259 C.ar    1  UNL1        0.0244
     16 C          -1.8039    0.9285   -0.4203 C.ar    1  UNL1       -0.0468
     17 C          -2.1379    2.1746    0.0449 C.ar    1  UNL1       -0.0360
     18 C          -1.6308    3.4068   -0.6463 C.3     1  UNL1        0.0699
     19 C          -2.6104    3.7277   -1.7204 C.2     1  UNL1        0.3091
     20 O          -3.6551    3.0424   -1.9340 O.2     1  UNL1       -0.2507
     21 O          -2.3997    4.8163   -2.5399 O.3     1  UNL1       -0.4804
     22 C          -2.9329    2.3431    1.1421 C.ar    1  UNL1       -0.0546
     23 C          -3.4001    1.2070    1.7826 C.ar    1  UNL1       -0.0191
     24 C          -3.0741   -0.0500    1.3286 C.ar    1  UNL1        0.1278
     25 O          -3.5557   -1.1818    1.9898 O.3     1  UNL1       -0.4945
     26 C          -4.3705   -1.1777    3.1158 C.3     1  UNL1        0.0788
     27 C           1.1574    0.0059    1.2966 C.2     1  UNL1        0.4035
     28 O           0.2905    0.7498    1.8373 O.2     1  UNL1       -0.2262
     29 O           2.3617    0.6260    0.8713 O.3     1  UNL1       -0.4455
     30 C           2.5493    2.0215    1.0636 C.3     1  UNL1        0.1191
     31 C           3.8993    2.3253    0.5144 C.ar    1  UNL1       -0.0103
     32 C           5.0314    2.2375    1.2992 C.ar    1  UNL1       -0.0554
     33 C           6.2821    2.5229    0.7848 C.ar    1  UNL1       -0.0614
     34 C           6.4158    2.9036   -0.5350 C.ar    1  UNL1       -0.0617
     35 C           5.2857    2.9923   -1.3211 C.ar    1  UNL1       -0.0614
     36 C           4.0263    2.7074   -0.8126 C.ar    1  UNL1       -0.0554
     37 H           2.9437   -1.5655   -1.4870 H       1  UNL1        0.0245
     38 H           1.1679   -1.4833   -1.3369 H       1  UNL1        0.0245
     39 H           2.0341   -3.0789   -1.4032 H       1  UNL1        0.0245
     40 H           2.2797   -3.1042    0.9297 H       1  UNL1        0.0463
     41 H           3.1528   -1.5768    0.7742 H       1  UNL1        0.0463
     42 H           0.1221   -3.1424    1.8041 H       1  UNL1        0.0515
     43 H          -0.7481   -1.6629    2.1695 H       1  UNL1        0.0515
     44 H          -0.1873   -4.3486   -0.1280 H       1  UNL1        0.0626
     45 H          -3.2573   -3.4319   -2.8233 H       1  UNL1        0.0623
     46 H          -3.5645   -1.2286   -1.7672 H       1  UNL1        0.0624
     47 H          -1.1581    0.8479   -1.3122 H       1  UNL1        0.0628
     48 H          -0.6290    3.2486   -1.0635 H       1  UNL1        0.0426
     49 H          -1.5802    4.2037    0.1013 H       1  UNL1        0.0426
     50 H          -3.1963    5.3470   -2.9003 H       1  UNL1        0.2951
     51 H          -3.2158    3.3118    1.5348 H       1  UNL1        0.0622
     52 H          -4.0412    1.3602    2.6664 H       1  UNL1        0.0654
     53 H          -4.2265   -2.1263    3.7035 H       1  UNL1        0.0660
     54 H          -4.1879   -0.3176    3.7993 H       1  UNL1        0.0660
     55 H          -5.4371   -1.1893    2.8149 H       1  UNL1        0.0660
     56 H           1.7736    2.5376    0.4669 H       1  UNL1        0.0749
     57 H           2.5329    2.3279    2.1098 H       1  UNL1        0.0749
     58 H           4.9284    1.9394    2.3354 H       1  UNL1        0.0621
     59 H           7.1984    2.4648    1.3707 H       1  UNL1        0.0618
     60 H           7.3653    3.1408   -1.0020 H       1  UNL1        0.0618
     61 H           5.3634    3.2887   -2.3575 H       1  UNL1        0.0618
     62 H           3.1366    2.7719   -1.4130 H       1  UNL1        0.0621
@<TRIPOS>BOND
     1     1     2    1
     2     2     3    1
     3     3     4    1
     4     4     5    1
     5     5     6   ar
     6     6     7   ar
     7     7     8    1
     8     8     9    1
     9     8    10    1
    10     8    11    1
    11     7    12   ar
    12    12    13   ar
    13    13    14   ar
    14    14    15    1
    15    15    16   ar
    16    16    17   ar
    17    17    18    1
    18    18    19    1
    19    19    20    2
    20    19    21    1
    21    17    22   ar
    22    22    23   ar
    23    23    24   ar
    24    24    25    1
    25    25    26    1
    26     3    27   am
    27    27    28    2
    28    27    29    1
    29    29    30    1
    30    30    31    1
    31    31    32   ar
    32    32    33   ar
    33    33    34   ar
    34    34    35   ar
    35    35    36   ar
    36    14     5   ar
    37    24    15   ar
    38    36    31   ar
    39     1    37    1
    40     1    38    1
    41     1    39    1
    42     2    40    1
    43     2    41    1
    44     4    42    1
    45     4    43    1
    46     6    44    1
    47    12    45    1
    48    13    46    1
    49    16    47    1
    50    18    48    1
    51    18    49    1
    52    21    50    1
    53    22    51    1
    54    23    52    1
    55    26    53    1
    56    26    54    1
    57    26    55    1
    58    30    56    1
    59    30    57    1
    60    32    58    1
    61    33    59    1
    62    34    60    1
    63    35    61    1
    64    36    62    1
