@<TRIPOS>MOLECULE
*****
 103 105 0 0 0
SMALL
GASTEIGER

@<TRIPOS>ATOM
      1 C           0.3549   -6.3096    3.3331 C.3     1  UNL1       -0.0181
      2 S          -0.3638   -4.8135    4.0103 S.3     1  UNL1       -0.1641
      3 C          -0.4075   -3.4442    2.8161 C.3     1  UNL1       -0.0044
      4 C          -1.3567   -3.8005    1.6903 C.3     1  UNL1       -0.0169
      5 C          -1.4835   -2.7488    0.6404 C.3     1  UNL1        0.1002
      6 N          -0.3080   -2.3867   -0.0474 N.am    1  UNL1       -0.3024
      7 C           0.0455   -2.4094   -1.4049 C.2     1  UNL1        0.2343
      8 O          -0.6833   -2.7813   -2.3785 O.2     1  UNL1       -0.2738
      9 C           1.3247   -2.0144   -1.9919 C.3     1  UNL1        0.1034
     10 C           1.8724   -3.1170   -2.9114 C.3     1  UNL1        0.0013
     11 C           2.0981   -4.3972   -2.2205 C.ar    1  UNL1       -0.0201
     12 C           1.1593   -5.4305   -2.3414 C.ar    1  UNL1        0.0060
     13 N           1.5251   -6.5125   -1.6368 N.ar    1  UNL1       -0.3604
     14 C           2.6972   -6.2076   -1.0505 C.ar    1  UNL1        0.0467
     15 C           3.0603   -4.9230   -1.3957 C.ar    1  UNL1        0.0029
     16 C           4.2010   -4.3170   -0.9688 C.ar    1  UNL1       -0.0523
     17 C           5.0497   -5.0258   -0.1388 C.ar    1  UNL1       -0.0611
     18 C           4.7352   -6.3303    0.2461 C.ar    1  UNL1       -0.0598
     19 C           3.5558   -6.9003   -0.2213 C.ar    1  UNL1       -0.0378
     20 N           2.3324   -1.5979   -1.0443 N.am    1  UNL1       -0.3036
     21 C           3.2486   -0.5078   -1.1785 C.2     1  UNL1        0.2151
     22 O           3.0599    0.0598   -2.2775 O.2     1  UNL1       -0.2757
     23 C           4.1256   -0.3946    0.0099 C.3     1  UNL1        0.0396
     24 C           5.2430    0.5719   -0.1502 C.3     1  UNL1        0.0230
     25 N           4.9065    1.9227   -0.4404 N.am    1  UNL1       -0.2806
     26 C           4.1179    2.7846    0.3687 C.2     1  UNL1        0.4008
     27 O           3.6464    2.3860    1.4373 O.2     1  UNL1       -0.2265
     28 O           3.9009    4.0567   -0.0711 O.3     1  UNL1       -0.4447
     29 C           3.1464    5.0461    0.5953 C.3     1  UNL1        0.1068
     30 C           3.1253    6.3388   -0.1866 C.3     1  UNL1       -0.0253
     31 C           1.7130    4.6189    0.8063 C.3     1  UNL1       -0.0253
     32 C           3.7526    5.2953    1.9468 C.3     1  UNL1       -0.0253
     33 C          -2.3192   -1.6465    1.1611 C.2     1  UNL1        0.2340
     34 O          -3.3263   -2.1545    1.7733 O.2     1  UNL1       -0.2738
     35 N          -2.2493   -0.2277    1.1278 N.am    1  UNL1       -0.3019
     36 C          -3.2663    0.5830    1.7588 C.3     1  UNL1        0.1094
     37 C          -2.7764    1.5651    2.7541 C.3     1  UNL1        0.0716
     38 C          -1.8377    2.5695    2.2593 C.2     1  UNL1        0.3070
     39 O          -1.2612    3.6178    2.9473 O.3     1  UNL1       -0.4806
     40 O          -1.6050    2.3376    1.0291 O.2     1  UNL1       -0.2509
     41 C          -4.2573    1.1293    0.7830 C.2     1  UNL1        0.2345
     42 O          -5.0892    1.8148    1.4798 O.2     1  UNL1       -0.2737
     43 N          -4.4192    1.0277   -0.6261 N.am    1  UNL1       -0.3022
     44 C          -5.5296    1.6927   -1.2398 C.3     1  UNL1        0.1031
     45 C          -5.0493    2.5878   -2.3473 C.3     1  UNL1       -0.0007
     46 C          -4.1271    3.6131   -1.8319 C.ar    1  UNL1       -0.0451
     47 C          -4.7917    4.7671   -1.4070 C.ar    1  UNL1       -0.0585
     48 C          -4.1207    5.8599   -0.8931 C.ar    1  UNL1       -0.0615
     49 C          -2.7374    5.7834   -0.8065 C.ar    1  UNL1       -0.0617
     50 C          -2.0381    4.6500   -1.2202 C.ar    1  UNL1       -0.0615
     51 C          -2.7587    3.5809   -1.7284 C.ar    1  UNL1       -0.0585
     52 C          -6.5214    0.6883   -1.7638 C.2     1  UNL1        0.2311
     53 N          -7.7315    1.0414   -2.4188 N.am    1  UNL1       -0.3278
     54 O          -6.2841   -0.5490   -1.6234 O.2     1  UNL1       -0.2740
     55 H           1.0002   -6.0671    2.4702 H       1  UNL1        0.0340
     56 H          -0.4979   -6.9749    3.0465 H       1  UNL1        0.0340
     57 H           0.9277   -6.8045    4.1688 H       1  UNL1        0.0340
     58 H          -0.8001   -2.5700    3.3952 H       1  UNL1        0.0377
     59 H           0.5981   -3.1556    2.4692 H       1  UNL1        0.0377
     60 H          -2.3731   -3.8423    2.1886 H       1  UNL1        0.0296
     61 H          -1.2137   -4.8244    1.3225 H       1  UNL1        0.0296
     62 H          -2.1541   -3.2233   -0.1500 H       1  UNL1        0.0595
     63 H           0.4142   -2.0400    0.6320 H       1  UNL1        0.1495
     64 H           1.2503   -1.1354   -2.7109 H       1  UNL1        0.0598
     65 H           1.2341   -3.2246   -3.8118 H       1  UNL1        0.0337
     66 H           2.8385   -2.6946   -3.3227 H       1  UNL1        0.0337
     67 H           0.2351   -5.4432   -2.9069 H       1  UNL1        0.0810
     68 H           1.0333   -7.4245   -1.5361 H       1  UNL1        0.1653
     69 H           4.4617   -3.3320   -1.2540 H       1  UNL1        0.0624
     70 H           5.9853   -4.6317    0.2578 H       1  UNL1        0.0618
     71 H           5.3850   -6.8886    0.8877 H       1  UNL1        0.0618
     72 H           3.2743   -7.9248    0.0574 H       1  UNL1        0.0638
     73 H           2.2588   -2.2603   -0.2308 H       1  UNL1        0.1495
     74 H           4.6033   -1.4002    0.1483 H       1  UNL1        0.0374
     75 H           3.5336   -0.2573    0.9479 H       1  UNL1        0.0374
     76 H           5.8262    0.5365    0.8051 H       1  UNL1        0.0468
     77 H           5.9348    0.1690   -0.9120 H       1  UNL1        0.0468
     78 H           5.2856    2.3218   -1.3575 H       1  UNL1        0.1520
     79 H           2.4204    7.0153    0.2997 H       1  UNL1        0.0268
     80 H           4.1270    6.8344   -0.1771 H       1  UNL1        0.0268
     81 H           2.8254    6.0986   -1.2340 H       1  UNL1        0.0268
     82 H           1.7345    3.7221    1.4565 H       1  UNL1        0.0268
     83 H           1.2216    5.4298    1.3589 H       1  UNL1        0.0268
     84 H           1.1924    4.4262   -0.1537 H       1  UNL1        0.0268
     85 H           4.6696    4.7087    2.1206 H       1  UNL1        0.0268
     86 H           4.0559    6.3647    2.0689 H       1  UNL1        0.0268
     87 H           3.0604    5.0063    2.7866 H       1  UNL1        0.0268
     88 H          -1.3854    0.0473    0.5974 H       1  UNL1        0.1495
     89 H          -3.8892   -0.1633    2.3527 H       1  UNL1        0.0600
     90 H          -2.3670    0.9891    3.6189 H       1  UNL1        0.0401
     91 H          -3.6730    2.1042    3.1602 H       1  UNL1        0.0401
     92 H          -0.2767    3.7861    2.7740 H       1  UNL1        0.2951
     93 H          -3.6424    0.4413   -1.0015 H       1  UNL1        0.1495
     94 H          -6.0651    2.2621   -0.4520 H       1  UNL1        0.0598
     95 H          -4.4800    2.0185   -3.1246 H       1  UNL1        0.0336
     96 H          -5.9172    3.0328   -2.8839 H       1  UNL1        0.0336
     97 H          -5.8700    4.9163   -1.4357 H       1  UNL1        0.0620
     98 H          -4.5971    6.7696   -0.5541 H       1  UNL1        0.0618
     99 H          -2.1624    6.6242   -0.4064 H       1  UNL1        0.0618
    100 H          -0.9640    4.5614   -1.1670 H       1  UNL1        0.0618
    101 H          -2.3169    2.6634   -2.0712 H       1  UNL1        0.0620
    102 H          -7.2821    1.3095   -3.3273 H       1  UNL1        0.1450
    103 H          -8.7583    1.0804   -2.2214 H       1  UNL1        0.1450
@<TRIPOS>BOND
     1     1     2    1
     2     2     3    1
     3     3     4    1
     4     4     5    1
     5     5     6    1
     6     6     7   am
     7     7     8    2
     8     7     9    1
     9     9    10    1
    10    10    11    1
    11    11    12   ar
    12    12    13   ar
    13    13    14   ar
    14    14    15   ar
    15    15    16   ar
    16    16    17   ar
    17    17    18   ar
    18    18    19   ar
    19     9    20    1
    20    20    21   am
    21    21    22    2
    22    21    23    1
    23    23    24    1
    24    24    25    1
    25    25    26   am
    26    26    27    2
    27    26    28    1
    28    28    29    1
    29    29    30    1
    30    29    31    1
    31    29    32    1
    32     5    33    1
    33    33    34    2
    34    33    35   am
    35    35    36    1
    36    36    37    1
    37    37    38    1
    38    38    39    1
    39    38    40    2
    40    36    41    1
    41    41    42    2
    42    41    43   am
    43    43    44    1
    44    44    45    1
    45    45    46    1
    46    46    47   ar
    47    47    48   ar
    48    48    49   ar
    49    49    50   ar
    50    50    51   ar
    51    44    52    1
    52    52    53   am
    53    52    54    2
    54    15    11   ar
    55    51    46   ar
    56    19    14   ar
    57     1    55    1
    58     1    56    1
    59     1    57    1
    60     3    58    1
    61     3    59    1
    62     4    60    1
    63     4    61    1
    64     5    62    1
    65     6    63    1
    66     9    64    1
    67    10    65    1
    68    10    66    1
    69    12    67    1
    70    13    68    1
    71    16    69    1
    72    17    70    1
    73    18    71    1
    74    19    72    1
    75    20    73    1
    76    23    74    1
    77    23    75    1
    78    24    76    1
    79    24    77    1
    80    25    78    1
    81    30    79    1
    82    30    80    1
    83    30    81    1
    84    31    82    1
    85    31    83    1
    86    31    84    1
    87    32    85    1
    88    32    86    1
    89    32    87    1
    90    35    88    1
    91    36    89    1
    92    37    90    1
    93    37    91    1
    94    39    92    1
    95    43    93    1
    96    44    94    1
    97    45    95    1
    98    45    96    1
    99    47    97    1
   100    48    98    1
   101    49    99    1
   102    50   100    1
   103    51   101    1
   104    53   102    1
   105    53   103    1
