
     RDKit          3D

103105  0  0  0  0  0  0  0  0999 V2000
    0.3549   -6.3096    3.3331 C   0  0  0  0  0  0  0  0  0  0  0  0
   -0.3638   -4.8135    4.0103 S   0  0  0  0  0  0  0  0  0  0  0  0
   -0.4075   -3.4442    2.8161 C   0  0  0  0  0  0  0  0  0  0  0  0
   -1.3567   -3.8005    1.6903 C   0  0  0  0  0  0  0  0  0  0  0  0
   -1.4835   -2.7488    0.6404 C   0  0  2  0  0  0  0  0  0  0  0  0
   -0.3080   -2.3867   -0.0474 N   0  0  0  0  0  0  0  0  0  0  0  0
    0.0455   -2.4094   -1.4049 C   0  0  0  0  0  0  0  0  0  0  0  0
   -0.6833   -2.7813   -2.3785 O   0  0  0  0  0  0  0  0  0  0  0  0
    1.3247   -2.0144   -1.9919 C   0  0  2  0  0  0  0  0  0  0  0  0
    1.8724   -3.1170   -2.9114 C   0  0  0  0  0  0  0  0  0  0  0  0
    2.0981   -4.3972   -2.2205 C   0  0  0  0  0  0  0  0  0  0  0  0
    1.1593   -5.4305   -2.3414 C   0  0  0  0  0  0  0  0  0  0  0  0
    1.5251   -6.5125   -1.6368 N   0  0  0  0  0  0  0  0  0  0  0  0
    2.6972   -6.2076   -1.0505 C   0  0  0  0  0  0  0  0  0  0  0  0
    3.0603   -4.9230   -1.3957 C   0  0  0  0  0  0  0  0  0  0  0  0
    4.2010   -4.3170   -0.9688 C   0  0  0  0  0  0  0  0  0  0  0  0
    5.0497   -5.0258   -0.1388 C   0  0  0  0  0  0  0  0  0  0  0  0
    4.7352   -6.3303    0.2461 C   0  0  0  0  0  0  0  0  0  0  0  0
    3.5558   -6.9003   -0.2213 C   0  0  0  0  0  0  0  0  0  0  0  0
    2.3324   -1.5979   -1.0443 N   0  0  0  0  0  0  0  0  0  0  0  0
    3.2486   -0.5078   -1.1785 C   0  0  0  0  0  0  0  0  0  0  0  0
    3.0599    0.0598   -2.2775 O   0  0  0  0  0  0  0  0  0  0  0  0
    4.1256   -0.3946    0.0099 C   0  0  0  0  0  0  0  0  0  0  0  0
    5.2430    0.5719   -0.1502 C   0  0  0  0  0  0  0  0  0  0  0  0
    4.9065    1.9227   -0.4404 N   0  0  0  0  0  0  0  0  0  0  0  0
    4.1179    2.7846    0.3687 C   0  0  0  0  0  0  0  0  0  0  0  0
    3.6464    2.3860    1.4373 O   0  0  0  0  0  0  0  0  0  0  0  0
    3.9009    4.0567   -0.0711 O   0  0  0  0  0  0  0  0  0  0  0  0
    3.1464    5.0461    0.5953 C   0  0  0  0  0  0  0  0  0  0  0  0
    3.1253    6.3388   -0.1866 C   0  0  0  0  0  0  0  0  0  0  0  0
    1.7130    4.6189    0.8063 C   0  0  0  0  0  0  0  0  0  0  0  0
    3.7526    5.2953    1.9468 C   0  0  0  0  0  0  0  0  0  0  0  0
   -2.3192   -1.6465    1.1611 C   0  0  0  0  0  0  0  0  0  0  0  0
   -3.3263   -2.1545    1.7733 O   0  0  0  0  0  0  0  0  0  0  0  0
   -2.2493   -0.2277    1.1278 N   0  0  0  0  0  0  0  0  0  0  0  0
   -3.2663    0.5830    1.7588 C   0  0  1  0  0  0  0  0  0  0  0  0
   -2.7764    1.5651    2.7541 C   0  0  0  0  0  0  0  0  0  0  0  0
   -1.8377    2.5695    2.2593 C   0  0  0  0  0  0  0  0  0  0  0  0
   -1.2612    3.6178    2.9473 O   0  0  0  0  0  0  0  0  0  0  0  0
   -1.6050    2.3376    1.0291 O   0  0  0  0  0  0  0  0  0  0  0  0
   -4.2573    1.1293    0.7830 C   0  0  0  0  0  0  0  0  0  0  0  0
   -5.0892    1.8148    1.4798 O   0  0  0  0  0  0  0  0  0  0  0  0
   -4.4192    1.0277   -0.6261 N   0  0  0  0  0  0  0  0  0  0  0  0
   -5.5296    1.6927   -1.2398 C   0  0  1  0  0  0  0  0  0  0  0  0
   -5.0493    2.5878   -2.3473 C   0  0  0  0  0  0  0  0  0  0  0  0
   -4.1271    3.6131   -1.8319 C   0  0  0  0  0  0  0  0  0  0  0  0
   -4.7917    4.7671   -1.4070 C   0  0  0  0  0  0  0  0  0  0  0  0
   -4.1207    5.8599   -0.8931 C   0  0  0  0  0  0  0  0  0  0  0  0
   -2.7374    5.7834   -0.8065 C   0  0  0  0  0  0  0  0  0  0  0  0
   -2.0381    4.6500   -1.2202 C   0  0  0  0  0  0  0  0  0  0  0  0
   -2.7587    3.5809   -1.7284 C   0  0  0  0  0  0  0  0  0  0  0  0
   -6.5214    0.6883   -1.7638 C   0  0  0  0  0  0  0  0  0  0  0  0
   -7.7315    1.0414   -2.4188 N   0  0  0  0  0  0  0  0  0  0  0  0
   -6.2841   -0.5490   -1.6234 O   0  0  0  0  0  0  0  0  0  0  0  0
    1.0002   -6.0671    2.4702 H   0  0  0  0  0  0  0  0  0  0  0  0
   -0.4979   -6.9749    3.0465 H   0  0  0  0  0  0  0  0  0  0  0  0
    0.9277   -6.8045    4.1688 H   0  0  0  0  0  0  0  0  0  0  0  0
   -0.8001   -2.5700    3.3952 H   0  0  0  0  0  0  0  0  0  0  0  0
    0.5981   -3.1556    2.4692 H   0  0  0  0  0  0  0  0  0  0  0  0
   -2.3731   -3.8423    2.1886 H   0  0  0  0  0  0  0  0  0  0  0  0
   -1.2137   -4.8244    1.3225 H   0  0  0  0  0  0  0  0  0  0  0  0
   -2.1541   -3.2233   -0.1500 H   0  0  0  0  0  0  0  0  0  0  0  0
    0.4142   -2.0400    0.6320 H   0  0  0  0  0  0  0  0  0  0  0  0
    1.2503   -1.1354   -2.7109 H   0  0  0  0  0  0  0  0  0  0  0  0
    1.2341   -3.2246   -3.8118 H   0  0  0  0  0  0  0  0  0  0  0  0
    2.8385   -2.6946   -3.3227 H   0  0  0  0  0  0  0  0  0  0  0  0
    0.2351   -5.4432   -2.9069 H   0  0  0  0  0  0  0  0  0  0  0  0
    1.0333   -7.4245   -1.5361 H   0  0  0  0  0  0  0  0  0  0  0  0
    4.4617   -3.3320   -1.2540 H   0  0  0  0  0  0  0  0  0  0  0  0
    5.9853   -4.6317    0.2578 H   0  0  0  0  0  0  0  0  0  0  0  0
    5.3850   -6.8886    0.8877 H   0  0  0  0  0  0  0  0  0  0  0  0
    3.2743   -7.9248    0.0574 H   0  0  0  0  0  0  0  0  0  0  0  0
    2.2588   -2.2603   -0.2308 H   0  0  0  0  0  0  0  0  0  0  0  0
    4.6033   -1.4002    0.1483 H   0  0  0  0  0  0  0  0  0  0  0  0
    3.5336   -0.2573    0.9479 H   0  0  0  0  0  0  0  0  0  0  0  0
    5.8262    0.5365    0.8051 H   0  0  0  0  0  0  0  0  0  0  0  0
    5.9348    0.1690   -0.9120 H   0  0  0  0  0  0  0  0  0  0  0  0
    5.2856    2.3218   -1.3575 H   0  0  0  0  0  0  0  0  0  0  0  0
    2.4204    7.0153    0.2997 H   0  0  0  0  0  0  0  0  0  0  0  0
    4.1270    6.8344   -0.1771 H   0  0  0  0  0  0  0  0  0  0  0  0
    2.8254    6.0986   -1.2340 H   0  0  0  0  0  0  0  0  0  0  0  0
    1.7345    3.7221    1.4565 H   0  0  0  0  0  0  0  0  0  0  0  0
    1.2216    5.4298    1.3589 H   0  0  0  0  0  0  0  0  0  0  0  0
    1.1924    4.4262   -0.1537 H   0  0  0  0  0  0  0  0  0  0  0  0
    4.6696    4.7087    2.1206 H   0  0  0  0  0  0  0  0  0  0  0  0
    4.0559    6.3647    2.0689 H   0  0  0  0  0  0  0  0  0  0  0  0
    3.0604    5.0063    2.7866 H   0  0  0  0  0  0  0  0  0  0  0  0
   -1.3854    0.0473    0.5974 H   0  0  0  0  0  0  0  0  0  0  0  0
   -3.8892   -0.1633    2.3527 H   0  0  0  0  0  0  0  0  0  0  0  0
   -2.3670    0.9891    3.6189 H   0  0  0  0  0  0  0  0  0  0  0  0
   -3.6730    2.1042    3.1602 H   0  0  0  0  0  0  0  0  0  0  0  0
   -0.2767    3.7861    2.7740 H   0  0  0  0  0  0  0  0  0  0  0  0
   -3.6424    0.4413   -1.0015 H   0  0  0  0  0  0  0  0  0  0  0  0
   -6.0651    2.2621   -0.4520 H   0  0  0  0  0  0  0  0  0  0  0  0
   -4.4800    2.0185   -3.1246 H   0  0  0  0  0  0  0  0  0  0  0  0
   -5.9172    3.0328   -2.8839 H   0  0  0  0  0  0  0  0  0  0  0  0
   -5.8700    4.9163   -1.4357 H   0  0  0  0  0  0  0  0  0  0  0  0
   -4.5971    6.7696   -0.5541 H   0  0  0  0  0  0  0  0  0  0  0  0
   -2.1624    6.6242   -0.4064 H   0  0  0  0  0  0  0  0  0  0  0  0
   -0.9640    4.5614   -1.1670 H   0  0  0  0  0  0  0  0  0  0  0  0
   -2.3169    2.6634   -2.0712 H   0  0  0  0  0  0  0  0  0  0  0  0
   -7.2821    1.3095   -3.3273 H   0  0  0  0  0  0  0  0  0  0  0  0
   -8.7583    1.0804   -2.2214 H   0  0  0  0  0  0  0  0  0  0  0  0
  1  2  1  0
  2  3  1  0
  3  4  1  0
  4  5  1  0
  5  6  1  0
  6  7  1  0
  7  8  2  0
  7  9  1  0
  9 10  1  0
 10 11  1  0
 11 12  2  0
 12 13  1  0
 13 14  1  0
 14 15  2  0
 15 16  1  0
 16 17  2  0
 17 18  1  0
 18 19  2  0
  9 20  1  0
 20 21  1  0
 21 22  2  0
 21 23  1  0
 23 24  1  0
 24 25  1  0
 25 26  1  0
 26 27  2  0
 26 28  1  0
 28 29  1  0
 29 30  1  0
 29 31  1  0
 29 32  1  0
  5 33  1  0
 33 34  2  0
 33 35  1  0
 35 36  1  0
 36 37  1  0
 37 38  1  0
 38 39  1  0
 38 40  2  0
 36 41  1  0
 41 42  2  0
 41 43  1  0
 43 44  1  0
 44 45  1  0
 45 46  1  0
 46 47  2  0
 47 48  1  0
 48 49  2  0
 49 50  1  0
 50 51  2  0
 44 52  1  0
 52 53  1  0
 52 54  2  0
 15 11  1  0
 51 46  1  0
 19 14  1  0
  1 55  1  0
  1 56  1  0
  1 57  1  0
  3 58  1  0
  3 59  1  0
  4 60  1  0
  4 61  1  0
  5 62  1  6
  6 63  1  0
  9 64  1  6
 10 65  1  0
 10 66  1  0
 12 67  1  0
 13 68  1  0
 16 69  1  0
 17 70  1  0
 18 71  1  0
 19 72  1  0
 20 73  1  0
 23 74  1  0
 23 75  1  0
 24 76  1  0
 24 77  1  0
 25 78  1  0
 30 79  1  0
 30 80  1  0
 30 81  1  0
 31 82  1  0
 31 83  1  0
 31 84  1  0
 32 85  1  0
 32 86  1  0
 32 87  1  0
 35 88  1  0
 36 89  1  1
 37 90  1  0
 37 91  1  0
 39 92  1  0
 43 93  1  0
 44 94  1  1
 45 95  1  0
 45 96  1  0
 47 97  1  0
 48 98  1  0
 49 99  1  0
 50100  1  0
 51101  1  0
 53102  1  0
 53103  1  0
M  END
$$$$
