
     RDKit          3D

 51 53  0  0  0  0  0  0  0  0999 V2000
    5.5345    7.1168   -0.4325 C   0  0  0  0  0  3  0  0  0  0  0  0
    5.0023    6.1115   -0.2380 N   0  0  0  0  0  4  0  0  0  0  0  0
    4.3585    4.8863    0.0006 C   0  0  0  0  0  0  0  0  0  0  0  0
    2.9915    4.8586    0.2241 C   0  0  0  0  0  0  0  0  0  0  0  0
    2.3733    3.6901    0.4502 N   0  0  0  0  0  0  0  0  0  0  0  0
    2.9846    2.4952    0.4807 C   0  0  0  0  0  0  0  0  0  0  0  0
    2.2345    1.2612    0.7331 C   0  0  0  0  0  0  0  0  0  0  0  0
    2.8089    0.1498    0.7865 O   0  0  0  0  0  0  0  0  0  0  0  0
    0.8243    1.2878    0.9264 N   0  0  0  0  0  0  0  0  0  0  0  0
    0.0173    0.1483    1.1823 C   0  0  0  0  0  0  0  0  0  0  0  0
   -0.5184   -0.5434    0.1126 C   0  0  0  0  0  0  0  0  0  0  0  0
   -1.3250   -1.6468    0.3049 C   0  0  0  0  0  0  0  0  0  0  0  0
   -1.9399   -2.4367   -0.7898 C   0  0  2  0  0  0  0  0  0  0  0  0
   -1.5468   -3.8914   -0.5918 C   0  0  0  0  0  0  0  0  0  0  0  0
   -1.5359   -1.9520   -2.1480 C   0  0  0  0  0  0  0  0  0  0  0  0
   -2.3152   -0.7687   -2.6218 C   0  0  1  0  0  0  0  0  0  0  0  0
   -3.0466   -1.0601   -3.9368 C   0  0  0  0  0  0  0  0  0  0  0  0
   -3.8965   -2.1282   -3.6348 F   0  0  0  0  0  0  0  0  0  0  0  0
   -2.1406   -1.3655   -4.9105 F   0  0  0  0  0  0  0  0  0  0  0  0
   -3.8210    0.0150   -4.2908 F   0  0  0  0  0  0  0  0  0  0  0  0
   -3.2484   -0.3211   -1.6403 O   0  0  0  0  0  0  0  0  0  0  0  0
   -4.0075   -1.2719   -0.9891 C   0  0  0  0  0  0  0  0  0  0  0  0
   -5.4167   -1.0740   -0.8091 N   0  0  0  0  0  0  0  0  0  0  0  0
   -3.3909   -2.3325   -0.5560 N   0  0  0  0  0  0  0  0  0  0  0  0
   -1.5603   -2.0114    1.6327 C   0  0  0  0  0  0  0  0  0  0  0  0
   -2.2911   -3.0092    1.8663 O   0  0  0  0  0  0  0  0  0  0  0  0
   -1.0579   -1.3649    2.6857 N   0  0  0  0  0  0  0  0  0  0  0  0
   -1.3469   -1.7944    4.0615 C   0  0  0  0  0  0  0  0  0  0  0  0
   -0.2783   -0.2970    2.4448 C   0  0  0  0  0  0  0  0  0  0  0  0
    4.3427    2.4857    0.2628 C   0  0  0  0  0  0  0  0  0  0  0  0
    5.1388    1.2388    0.2698 C   0  0  0  0  0  0  0  0  0  0  0  0
    5.0261    3.6840    0.0224 C   0  0  0  0  0  0  0  0  0  0  0  0
    2.4775    5.8129    0.2051 H   0  0  0  0  0  0  0  0  0  0  0  0
    0.3861    2.2588    0.8671 H   0  0  0  0  0  0  0  0  0  0  0  0
   -0.2937   -0.2036   -0.8884 H   0  0  0  0  0  0  0  0  0  0  0  0
   -0.9456   -4.0495    0.3222 H   0  0  0  0  0  0  0  0  0  0  0  0
   -0.8621   -4.2270   -1.4286 H   0  0  0  0  0  0  0  0  0  0  0  0
   -2.4040   -4.5846   -0.6356 H   0  0  0  0  0  0  0  0  0  0  0  0
   -0.4570   -1.7092   -2.1861 H   0  0  0  0  0  0  0  0  0  0  0  0
   -1.6882   -2.7663   -2.9248 H   0  0  0  0  0  0  0  0  0  0  0  0
   -1.6399    0.0758   -2.8363 H   0  0  0  0  0  0  0  0  0  0  0  0
   -6.0691   -1.8660   -0.7910 H   0  0  0  0  0  0  0  0  0  0  0  0
   -5.7774   -0.1062   -0.6958 H   0  0  0  0  0  0  0  0  0  0  0  0
   -2.2828   -2.3483    4.1216 H   0  0  0  0  0  0  0  0  0  0  0  0
   -1.3723   -0.8290    4.6421 H   0  0  0  0  0  0  0  0  0  0  0  0
   -0.4525   -2.3548    4.4117 H   0  0  0  0  0  0  0  0  0  0  0  0
    0.1353    0.2361    3.2850 H   0  0  0  0  0  0  0  0  0  0  0  0
    5.0080    0.6908    1.2292 H   0  0  0  0  0  0  0  0  0  0  0  0
    4.9532    0.6281   -0.6198 H   0  0  0  0  0  0  0  0  0  0  0  0
    6.2411    1.4763    0.2298 H   0  0  0  0  0  0  0  0  0  0  0  0
    6.0897    3.7060   -0.1527 H   0  0  0  0  0  0  0  0  0  0  0  0
  1  2  3  0
  2  3  1  0
  3  4  2  0
  4  5  1  0
  5  6  2  0
  6  7  1  0
  7  8  2  0
  7  9  1  0
  9 10  1  0
 10 11  1  0
 11 12  2  0
 12 13  1  0
 13 14  1  1
 13 15  1  0
 15 16  1  0
 16 17  1  0
 17 18  1  0
 17 19  1  0
 17 20  1  0
 16 21  1  0
 21 22  1  0
 22 23  1  0
 22 24  2  0
 12 25  1  0
 25 26  2  0
 25 27  1  0
 27 28  1  0
 27 29  1  0
  6 30  1  0
 30 31  1  0
 30 32  2  0
 32  3  1  0
 29 10  2  0
 24 13  1  0
  4 33  1  0
  9 34  1  0
 11 35  1  0
 14 36  1  0
 14 37  1  0
 14 38  1  0
 15 39  1  0
 15 40  1  0
 16 41  1  6
 23 42  1  0
 23 43  1  0
 28 44  1  0
 28 45  1  0
 28 46  1  0
 29 47  1  0
 31 48  1  0
 31 49  1  0
 31 50  1  0
 32 51  1  0
M  CHG  2   1  -1   2   1
M  END
$$$$
