@<TRIPOS>MOLECULE
*****
 51 53 0 0 0
SMALL
GASTEIGER

@<TRIPOS>ATOM
      1 C           5.5345    7.1168   -0.4325 C.2     1  UNL1       -0.2277
      2 N           5.0023    6.1115   -0.2380 N.1     1  UNL1       -0.2654
      3 C           4.3585    4.8863    0.0006 C.ar    1  UNL1        0.3095
      4 C           2.9915    4.8586    0.2241 C.ar    1  UNL1        0.1143
      5 N           2.3733    3.6901    0.4502 N.ar    1  UNL1       -0.2425
      6 C           2.9846    2.4952    0.4807 C.ar    1  UNL1        0.1291
      7 C           2.2345    1.2612    0.7331 C.2     1  UNL1        0.2669
      8 O           2.8089    0.1498    0.7865 O.2     1  UNL1       -0.2682
      9 N           0.8243    1.2878    0.9264 N.am    1  UNL1       -0.2790
     10 C           0.0173    0.1483    1.1823 C.ar    1  UNL1        0.0505
     11 C          -0.5184   -0.5434    0.1126 C.ar    1  UNL1       -0.0284
     12 C          -1.3250   -1.6468    0.3049 C.ar    1  UNL1        0.0461
     13 C          -1.9399   -2.4367   -0.7898 C.3     1  UNL1        0.0975
     14 C          -1.5468   -3.8914   -0.5918 C.3     1  UNL1       -0.0352
     15 C          -1.5359   -1.9520   -2.1480 C.3     1  UNL1        0.0224
     16 C          -2.3152   -0.7687   -2.6218 C.3     1  UNL1        0.1997
     17 C          -3.0466   -1.0601   -3.9368 C.3     1  UNL1        0.4266
     18 F          -3.8965   -2.1282   -3.6348 F       1  UNL1       -0.1669
     19 F          -2.1406   -1.3655   -4.9105 F       1  UNL1       -0.1669
     20 F          -3.8210    0.0150   -4.2908 F       1  UNL1       -0.1669
     21 O          -3.2484   -0.3211   -1.6403 O.2     1  UNL1       -0.4534
     22 C          -4.0075   -1.2719   -0.9891 C.2     1  UNL1        0.2765
     23 N          -5.4167   -1.0740   -0.8091 N.pl3   1  UNL1       -0.3134
     24 N          -3.3909   -2.3325   -0.5560 N.2     1  UNL1       -0.2256
     25 C          -1.5603   -2.0114    1.6327 C.ar    1  UNL1        0.2566
     26 O          -2.2911   -3.0092    1.8663 O.2     1  UNL1       -0.2673
     27 N          -1.0579   -1.3649    2.6857 N.ar    1  UNL1       -0.3162
     28 C          -1.3469   -1.7944    4.0615 C.3     1  UNL1        0.0148
     29 C          -0.2783   -0.2970    2.4448 C.ar    1  UNL1        0.0288
     30 C           4.3427    2.4857    0.2628 C.ar    1  UNL1       -0.0127
     31 C           5.1388    1.2388    0.2698 C.3     1  UNL1       -0.0373
     32 C           5.0261    3.6840    0.0224 C.ar    1  UNL1        0.0312
     33 H           2.4775    5.8129    0.2051 H       1  UNL1        0.0908
     34 H           0.3861    2.2588    0.8671 H       1  UNL1        0.1552
     35 H          -0.2937   -0.2036   -0.8884 H       1  UNL1        0.0642
     36 H          -0.9456   -4.0495    0.3222 H       1  UNL1        0.0256
     37 H          -0.8621   -4.2270   -1.4286 H       1  UNL1        0.0256
     38 H          -2.4040   -4.5846   -0.6356 H       1  UNL1        0.0256
     39 H          -0.4570   -1.7092   -2.1861 H       1  UNL1        0.0330
     40 H          -1.6882   -2.7663   -2.9248 H       1  UNL1        0.0330
     41 H          -1.6399    0.0758   -2.8363 H       1  UNL1        0.0826
     42 H          -6.0691   -1.8660   -0.7910 H       1  UNL1        0.1466
     43 H          -5.7774   -0.1062   -0.6958 H       1  UNL1        0.1466
     44 H          -2.2828   -2.3483    4.1216 H       1  UNL1        0.0457
     45 H          -1.3723   -0.8290    4.6421 H       1  UNL1        0.0457
     46 H          -0.4525   -2.3548    4.4117 H       1  UNL1        0.0457
     47 H           0.1353    0.2361    3.2850 H       1  UNL1        0.0829
     48 H           5.0080    0.6908    1.2292 H       1  UNL1        0.0278
     49 H           4.9532    0.6281   -0.6198 H       1  UNL1        0.0278
     50 H           6.2411    1.4763    0.2298 H       1  UNL1        0.0278
     51 H           6.0897    3.7060   -0.1527 H       1  UNL1        0.0698
@<TRIPOS>UNITY_ATOM_ATTR
1 1
charge -1
2 1
charge 1
@<TRIPOS>BOND
     1     1     2    3
     2     2     3    1
     3     3     4   ar
     4     4     5   ar
     5     5     6   ar
     6     6     7    1
     7     7     8    2
     8     7     9   am
     9     9    10    1
    10    10    11   ar
    11    11    12   ar
    12    12    13    1
    13    13    14    1
    14    13    15    1
    15    15    16    1
    16    16    17    1
    17    17    18    1
    18    17    19    1
    19    17    20    1
    20    16    21    1
    21    21    22    1
    22    22    23    1
    23    22    24    2
    24    12    25   ar
    25    25    26    2
    26    25    27   ar
    27    27    28    1
    28    27    29   ar
    29     6    30   ar
    30    30    31    1
    31    30    32   ar
    32    32     3   ar
    33    29    10   ar
    34    24    13    1
    35     4    33    1
    36     9    34    1
    37    11    35    1
    38    14    36    1
    39    14    37    1
    40    14    38    1
    41    15    39    1
    42    15    40    1
    43    16    41    1
    44    23    42    1
    45    23    43    1
    46    28    44    1
    47    28    45    1
    48    28    46    1
    49    29    47    1
    50    31    48    1
    51    31    49    1
    52    31    50    1
    53    32    51    1
