@<TRIPOS>MOLECULE
*****
 39 41 0 0 0
SMALL
GASTEIGER

@<TRIPOS>ATOM
      1 O           3.9061    0.0384    1.2863 O.2     1  UNL1       -0.5093
      2 C           4.3756    0.1179    0.0046 C.2     1  UNL1        0.1195
      3 C           5.8230    0.0715   -0.2957 C.3     1  UNL1        0.0179
      4 C           6.7249   -0.3295    0.8057 C.3     1  UNL1       -0.0427
      5 C           6.7712    1.0521    0.2289 C.3     1  UNL1       -0.0427
      6 C           3.4204    0.2363   -0.8988 C.2     1  UNL1        0.1508
      7 C           3.9477    0.3189   -2.2554 C.1     1  UNL1        0.1078
      8 N           4.3573    0.3961   -3.3581 N.1     1  UNL1       -0.1906
      9 C           1.9912    0.2965   -0.7999 C.2     1  UNL1        0.2618
     10 O           1.2220    0.4149   -1.8134 O.2     1  UNL1       -0.2690
     11 N           1.1661    0.2428    0.3537 N.am    1  UNL1       -0.2808
     12 C          -0.2530    0.3131    0.3191 C.ar    1  UNL1        0.0337
     13 C          -1.0702    1.4232    0.3868 C.ar    1  UNL1       -0.0399
     14 C          -2.4371    1.2497    0.3345 C.ar    1  UNL1       -0.0523
     15 C          -3.0211    0.0232    0.2179 C.ar    1  UNL1       -0.0178
     16 C          -2.2107   -1.0972    0.1492 C.ar    1  UNL1       -0.0523
     17 C          -0.8288   -0.9524    0.1997 C.ar    1  UNL1       -0.0399
     18 C          -4.4590   -0.1697    0.1626 C.ar    1  UNL1       -0.0179
     19 C          -4.9670   -1.2256   -0.5632 C.ar    1  UNL1       -0.0540
     20 C          -6.3373   -1.4746   -0.6621 C.ar    1  UNL1       -0.0612
     21 C          -7.2326   -0.6448   -0.0170 C.ar    1  UNL1       -0.0617
     22 C          -6.7314    0.4136    0.7109 C.ar    1  UNL1       -0.0612
     23 C          -5.3709    0.6382    0.7930 C.ar    1  UNL1       -0.0540
     24 H           3.8920   -0.7729    1.8688 H       1  UNL1        0.2917
     25 H           6.0804   -0.3492   -1.3074 H       1  UNL1        0.0379
     26 H           7.5475   -1.0565    0.6393 H       1  UNL1        0.0272
     27 H           6.2637   -0.4327    1.8165 H       1  UNL1        0.0272
     28 H           6.5133    1.8749    0.9263 H       1  UNL1        0.0272
     29 H           7.6925    1.2825   -0.3447 H       1  UNL1        0.0272
     30 H           1.6378    0.1464    1.2774 H       1  UNL1        0.1552
     31 H          -0.5326    2.3437    0.4767 H       1  UNL1        0.0636
     32 H          -3.0389    2.1441    0.3907 H       1  UNL1        0.0624
     33 H          -2.6787   -2.0797    0.0558 H       1  UNL1        0.0624
     34 H          -0.2878   -1.8868    0.1384 H       1  UNL1        0.0636
     35 H          -4.3595   -1.9466   -1.1130 H       1  UNL1        0.0624
     36 H          -6.7485   -2.2945   -1.2250 H       1  UNL1        0.0618
     37 H          -8.2950   -0.8436   -0.0988 H       1  UNL1        0.0618
     38 H          -7.4665    1.0452    1.2056 H       1  UNL1        0.0618
     39 H          -5.0059    1.4731    1.3683 H       1  UNL1        0.0624
@<TRIPOS>BOND
     1     1     2    1
     2     2     3    1
     3     3     4    1
     4     4     5    1
     5     2     6    2
     6     6     7    1
     7     7     8    3
     8     6     9    1
     9     9    10    2
    10     9    11   am
    11    11    12    1
    12    12    13   ar
    13    13    14   ar
    14    14    15   ar
    15    15    16   ar
    16    16    17   ar
    17    15    18    1
    18    18    19   ar
    19    19    20   ar
    20    20    21   ar
    21    21    22   ar
    22    22    23   ar
    23     5     3    1
    24    17    12   ar
    25    23    18   ar
    26     1    24    1
    27     3    25    1
    28     4    26    1
    29     4    27    1
    30     5    28    1
    31     5    29    1
    32    11    30    1
    33    13    31    1
    34    14    32    1
    35    16    33    1
    36    17    34    1
    37    19    35    1
    38    20    36    1
    39    21    37    1
    40    22    38    1
    41    23    39    1
