
     RDKit          3D

 39 41  0  0  0  0  0  0  0  0999 V2000
    3.9061    0.0384    1.2863 O   0  0  0  0  0  0  0  0  0  0  0  0
    4.3756    0.1179    0.0046 C   0  0  0  0  0  0  0  0  0  0  0  0
    5.8230    0.0715   -0.2957 C   0  0  0  0  0  0  0  0  0  0  0  0
    6.7249   -0.3295    0.8057 C   0  0  0  0  0  0  0  0  0  0  0  0
    6.7712    1.0521    0.2289 C   0  0  0  0  0  0  0  0  0  0  0  0
    3.4204    0.2363   -0.8988 C   0  0  0  0  0  0  0  0  0  0  0  0
    3.9477    0.3189   -2.2554 C   0  0  0  0  0  0  0  0  0  0  0  0
    4.3573    0.3961   -3.3581 N   0  0  0  0  0  0  0  0  0  0  0  0
    1.9912    0.2965   -0.7999 C   0  0  0  0  0  0  0  0  0  0  0  0
    1.2220    0.4149   -1.8134 O   0  0  0  0  0  0  0  0  0  0  0  0
    1.1661    0.2428    0.3537 N   0  0  0  0  0  0  0  0  0  0  0  0
   -0.2530    0.3131    0.3191 C   0  0  0  0  0  0  0  0  0  0  0  0
   -1.0702    1.4232    0.3868 C   0  0  0  0  0  0  0  0  0  0  0  0
   -2.4371    1.2497    0.3345 C   0  0  0  0  0  0  0  0  0  0  0  0
   -3.0211    0.0232    0.2179 C   0  0  0  0  0  0  0  0  0  0  0  0
   -2.2107   -1.0972    0.1492 C   0  0  0  0  0  0  0  0  0  0  0  0
   -0.8288   -0.9524    0.1997 C   0  0  0  0  0  0  0  0  0  0  0  0
   -4.4590   -0.1697    0.1626 C   0  0  0  0  0  0  0  0  0  0  0  0
   -4.9670   -1.2256   -0.5632 C   0  0  0  0  0  0  0  0  0  0  0  0
   -6.3373   -1.4746   -0.6621 C   0  0  0  0  0  0  0  0  0  0  0  0
   -7.2326   -0.6448   -0.0170 C   0  0  0  0  0  0  0  0  0  0  0  0
   -6.7314    0.4136    0.7109 C   0  0  0  0  0  0  0  0  0  0  0  0
   -5.3709    0.6382    0.7930 C   0  0  0  0  0  0  0  0  0  0  0  0
    3.8920   -0.7729    1.8688 H   0  0  0  0  0  0  0  0  0  0  0  0
    6.0804   -0.3492   -1.3074 H   0  0  0  0  0  0  0  0  0  0  0  0
    7.5475   -1.0565    0.6393 H   0  0  0  0  0  0  0  0  0  0  0  0
    6.2637   -0.4327    1.8165 H   0  0  0  0  0  0  0  0  0  0  0  0
    6.5133    1.8749    0.9263 H   0  0  0  0  0  0  0  0  0  0  0  0
    7.6925    1.2825   -0.3447 H   0  0  0  0  0  0  0  0  0  0  0  0
    1.6378    0.1464    1.2774 H   0  0  0  0  0  0  0  0  0  0  0  0
   -0.5326    2.3437    0.4767 H   0  0  0  0  0  0  0  0  0  0  0  0
   -3.0389    2.1441    0.3907 H   0  0  0  0  0  0  0  0  0  0  0  0
   -2.6787   -2.0797    0.0558 H   0  0  0  0  0  0  0  0  0  0  0  0
   -0.2878   -1.8868    0.1384 H   0  0  0  0  0  0  0  0  0  0  0  0
   -4.3595   -1.9466   -1.1130 H   0  0  0  0  0  0  0  0  0  0  0  0
   -6.7485   -2.2945   -1.2250 H   0  0  0  0  0  0  0  0  0  0  0  0
   -8.2950   -0.8436   -0.0988 H   0  0  0  0  0  0  0  0  0  0  0  0
   -7.4665    1.0452    1.2056 H   0  0  0  0  0  0  0  0  0  0  0  0
   -5.0059    1.4731    1.3683 H   0  0  0  0  0  0  0  0  0  0  0  0
  1  2  1  0
  2  3  1  0
  3  4  1  0
  4  5  1  0
  2  6  2  0
  6  7  1  0
  7  8  3  0
  6  9  1  0
  9 10  2  0
  9 11  1  0
 11 12  1  0
 12 13  2  0
 13 14  1  0
 14 15  2  0
 15 16  1  0
 16 17  2  0
 15 18  1  0
 18 19  2  0
 19 20  1  0
 20 21  2  0
 21 22  1  0
 22 23  2  0
  5  3  1  0
 17 12  1  0
 23 18  1  0
  1 24  1  0
  3 25  1  0
  4 26  1  0
  4 27  1  0
  5 28  1  0
  5 29  1  0
 11 30  1  0
 13 31  1  0
 14 32  1  0
 16 33  1  0
 17 34  1  0
 19 35  1  0
 20 36  1  0
 21 37  1  0
 22 38  1  0
 23 39  1  0
M  END
$$$$
