@<TRIPOS>MOLECULE
*****
 25 27 0 0 0
SMALL
GASTEIGER

@<TRIPOS>ATOM
      1 O           3.6846    0.5177   -2.9049 O.2     1  UNL1       -0.2674
      2 C           3.6131    0.2989   -1.6430 C.2     1  UNL1        0.2774
      3 N           4.7221    0.2360   -0.8252 N.am    1  UNL1       -0.1348
      4 C           4.5771    0.0179    0.4028 C.2     1  UNL1        0.2466
      5 O           5.5729   -0.0743    1.3474 O.2     1  UNL1       -0.4890
      6 S           2.8277   -0.1557    0.7212 S.3     1  UNL1       -0.0290
      7 C           2.3273    0.1003   -0.9900 C.2     1  UNL1        0.0812
      8 C           1.1146    0.1091   -1.5045 C.2     1  UNL1       -0.0355
      9 C          -0.0475   -0.1134   -0.6697 C.ar    1  UNL1       -0.0217
     10 C          -0.0751   -1.0238    0.3599 C.ar    1  UNL1       -0.0524
     11 C          -1.2133   -1.2051    1.1431 C.ar    1  UNL1       -0.0337
     12 C          -2.3537   -0.4699    0.9051 C.ar    1  UNL1        0.0892
     13 N          -3.4714   -0.6162    1.6391 N.ar    1  UNL1       -0.2519
     14 C          -4.5797    0.1031    1.4023 C.ar    1  UNL1        0.0464
     15 C          -4.5705    1.0207    0.3739 C.ar    1  UNL1        0.0464
     16 N          -3.4777    1.1896   -0.3725 N.ar    1  UNL1       -0.2519
     17 C          -2.3520    0.4546   -0.1272 C.ar    1  UNL1        0.0897
     18 C          -1.2191    0.6091   -0.8778 C.ar    1  UNL1       -0.0270
     19 H           6.5345   -0.3645    1.1072 H       1  UNL1        0.2941
     20 H           1.0239    0.2875   -2.5670 H       1  UNL1        0.0636
     21 H           0.7733   -1.6218    0.5886 H       1  UNL1        0.0624
     22 H          -1.2445   -1.9183    1.9543 H       1  UNL1        0.0640
     23 H          -5.4605   -0.0468    2.0194 H       1  UNL1        0.0845
     24 H          -5.4905    1.5869    0.2116 H       1  UNL1        0.0845
     25 H          -1.2157    1.3394   -1.6942 H       1  UNL1        0.0645
@<TRIPOS>BOND
     1     1     2    2
     2     2     3    1
     3     3     4    2
     4     4     5    1
     5     4     6    1
     6     6     7    1
     7     7     8    2
     8     8     9    1
     9     9    10   ar
    10    10    11   ar
    11    11    12   ar
    12    12    13   ar
    13    13    14   ar
    14    14    15   ar
    15    15    16   ar
    16    16    17   ar
    17    17    18   ar
    18     7     2    1
    19    18     9   ar
    20    17    12   ar
    21     5    19    1
    22     8    20    1
    23    10    21    1
    24    11    22    1
    25    14    23    1
    26    15    24    1
    27    18    25    1
