
     RDKit          3D

 61 64  0  0  0  0  0  0  0  0999 V2000
    9.1146    2.3506    2.3345 C   0  0  0  0  0  0  0  0  0  0  0  0
    8.0911    1.8649    1.3634 C   0  0  0  0  0  0  0  0  0  0  0  0
    7.7917    2.6604    0.2648 C   0  0  0  0  0  0  0  0  0  0  0  0
    6.8453    2.1886   -0.6072 C   0  0  0  0  0  0  0  0  0  0  0  0
    6.2234    0.9719   -0.3892 C   0  0  0  0  0  0  0  0  0  0  0  0
    5.2717    0.4682   -1.2462 C   0  0  0  0  0  0  0  0  0  0  0  0
    4.6333   -0.7473   -1.0576 C   0  0  0  0  0  0  0  0  0  0  0  0
    3.6188   -1.2481   -1.9912 C   0  0  0  0  0  0  0  0  0  0  0  0
    2.2514   -0.9309   -1.5925 N   0  0  0  0  0  0  0  0  0  0  0  0
    1.4545   -1.7183   -0.8630 C   0  0  0  0  0  0  0  0  0  0  0  0
    0.2165   -1.0940   -0.6477 C   0  0  0  0  0  0  0  0  0  0  0  0
   -0.9040   -1.6596    0.0939 C   0  0  0  0  0  0  0  0  0  0  0  0
   -0.6604   -2.6672    0.8386 O   0  0  0  0  0  0  0  0  0  0  0  0
   -2.2233   -1.1866    0.0540 N   0  0  0  0  0  0  0  0  0  0  0  0
   -3.2594   -1.8447    0.8467 C   0  0  0  0  0  0  0  0  0  0  0  0
   -4.5393   -1.1110    0.6780 C   0  0  0  0  0  0  0  0  0  0  0  0
   -4.6846    0.0974    1.3382 C   0  0  0  0  0  0  0  0  0  0  0  0
   -3.6678    0.6903    2.2431 C   0  0  0  0  0  0  0  0  0  0  0  0
   -5.8836    0.7768    1.1070 C   0  0  0  0  0  0  0  0  0  0  0  0
   -6.8746    0.3029    0.2819 C   0  0  0  0  0  0  0  0  0  0  0  0
   -8.1470    1.0908    0.0684 C   0  0  0  0  0  0  0  0  0  0  0  0
   -7.8708    2.0236   -1.0331 N   0  0  0  0  0  0  0  0  0  0  0  0
   -6.6663   -0.9120   -0.3461 C   0  0  0  0  0  0  0  0  0  0  0  0
   -5.5061   -1.6251   -0.1548 C   0  0  0  0  0  0  0  0  0  0  0  0
   -5.2590   -2.9383   -0.7967 C   0  0  0  0  0  0  0  0  0  0  0  0
    0.3328    0.1043   -1.2897 C   0  0  0  0  0  0  0  0  0  0  0  0
   -0.6959    1.1973   -1.3662 C   0  0  0  0  0  0  0  0  0  0  0  0
    1.5728    0.1616   -1.8472 N   0  0  0  0  0  0  0  0  0  0  0  0
    4.9731   -1.4841    0.0454 C   0  0  0  0  0  0  0  0  0  0  0  0
    5.9350   -1.0226    0.9533 C   0  0  0  0  0  0  0  0  0  0  0  0
    6.5313    0.1950    0.7032 C   0  0  0  0  0  0  0  0  0  0  0  0
    7.4642    0.6708    1.5534 N   0  0  0  0  0  0  0  0  0  0  0  0
    8.5138    2.7896    3.1762 H   0  0  0  0  0  0  0  0  0  0  0  0
    9.7010    3.1820    1.9034 H   0  0  0  0  0  0  0  0  0  0  0  0
    9.7628    1.5253    2.6954 H   0  0  0  0  0  0  0  0  0  0  0  0
    8.3035    3.6104    0.1314 H   0  0  0  0  0  0  0  0  0  0  0  0
    6.5546    2.7406   -1.4786 H   0  0  0  0  0  0  0  0  0  0  0  0
    5.0094    1.0367   -2.1092 H   0  0  0  0  0  0  0  0  0  0  0  0
    3.6665   -2.3457   -2.1244 H   0  0  0  0  0  0  0  0  0  0  0  0
    3.8091   -0.8096   -2.9873 H   0  0  0  0  0  0  0  0  0  0  0  0
    1.6823   -2.7173   -0.4662 H   0  0  0  0  0  0  0  0  0  0  0  0
   -2.4781   -0.3615   -0.5515 H   0  0  0  0  0  0  0  0  0  0  0  0
   -2.9440   -1.8357    1.8908 H   0  0  0  0  0  0  0  0  0  0  0  0
   -3.3552   -2.8837    0.4994 H   0  0  0  0  0  0  0  0  0  0  0  0
   -3.0401    1.4312    1.6874 H   0  0  0  0  0  0  0  0  0  0  0  0
   -4.2587    1.2928    3.0016 H   0  0  0  0  0  0  0  0  0  0  0  0
   -3.0924   -0.0660    2.7777 H   0  0  0  0  0  0  0  0  0  0  0  0
   -6.0728    1.7494    1.5983 H   0  0  0  0  0  0  0  0  0  0  0  0
   -8.9282    0.3916   -0.2626 H   0  0  0  0  0  0  0  0  0  0  0  0
   -8.4024    1.6867    0.9429 H   0  0  0  0  0  0  0  0  0  0  0  0
   -7.5530    2.9598   -0.6823 H   0  0  0  0  0  0  0  0  0  0  0  0
   -7.1687    1.6556   -1.7037 H   0  0  0  0  0  0  0  0  0  0  0  0
   -7.4432   -1.2946   -0.9967 H   0  0  0  0  0  0  0  0  0  0  0  0
   -6.1515   -3.1519   -1.4191 H   0  0  0  0  0  0  0  0  0  0  0  0
   -5.2720   -3.7590   -0.0184 H   0  0  0  0  0  0  0  0  0  0  0  0
   -4.3582   -2.9870   -1.4126 H   0  0  0  0  0  0  0  0  0  0  0  0
   -0.1928    2.1480   -1.7263 H   0  0  0  0  0  0  0  0  0  0  0  0
   -1.0848    1.4712   -0.3716 H   0  0  0  0  0  0  0  0  0  0  0  0
   -1.4352    0.9570   -2.1189 H   0  0  0  0  0  0  0  0  0  0  0  0
    4.5300   -2.4531    0.2770 H   0  0  0  0  0  0  0  0  0  0  0  0
    6.2186   -1.5884    1.8312 H   0  0  0  0  0  0  0  0  0  0  0  0
  1  2  1  0
  2  3  2  0
  3  4  1  0
  4  5  2  0
  5  6  1  0
  6  7  2  0
  7  8  1  0
  8  9  1  0
  9 10  1  0
 10 11  2  0
 11 12  1  0
 12 13  2  0
 12 14  1  0
 14 15  1  0
 15 16  1  0
 16 17  2  0
 17 18  1  0
 17 19  1  0
 19 20  2  0
 20 21  1  0
 21 22  1  0
 20 23  1  0
 23 24  2  0
 24 25  1  0
 11 26  1  0
 26 27  1  0
 26 28  2  0
  7 29  1  0
 29 30  2  0
 30 31  1  0
 31 32  2  0
 32  2  1  0
 31  5  1  0
 28  9  1  0
 24 16  1  0
  1 33  1  0
  1 34  1  0
  1 35  1  0
  3 36  1  0
  4 37  1  0
  6 38  1  0
  8 39  1  0
  8 40  1  0
 10 41  1  0
 14 42  1  0
 15 43  1  0
 15 44  1  0
 18 45  1  0
 18 46  1  0
 18 47  1  0
 19 48  1  0
 21 49  1  0
 21 50  1  0
 22 51  1  0
 22 52  1  0
 23 53  1  0
 25 54  1  0
 25 55  1  0
 25 56  1  0
 27 57  1  0
 27 58  1  0
 27 59  1  0
 29 60  1  0
 30 61  1  0
M  END
$$$$
