@<TRIPOS>MOLECULE
*****
 61 64 0 0 0
SMALL
GASTEIGER

@<TRIPOS>ATOM
      1 C           9.1146    2.3506    2.3345 C.3     1  UNL1       -0.0223
      2 C           8.0911    1.8649    1.3634 C.ar    1  UNL1        0.0389
      3 C           7.7917    2.6604    0.2648 C.ar    1  UNL1       -0.0401
      4 C           6.8453    2.1886   -0.6072 C.ar    1  UNL1       -0.0509
      5 C           6.2234    0.9719   -0.3892 C.ar    1  UNL1        0.0007
      6 C           5.2717    0.4682   -1.2462 C.ar    1  UNL1       -0.0476
      7 C           4.6333   -0.7473   -1.0576 C.ar    1  UNL1       -0.0254
      8 C           3.6188   -1.2481   -1.9912 C.3     1  UNL1        0.0665
      9 N           2.2514   -0.9309   -1.5925 N.ar    1  UNL1       -0.2661
     10 C           1.4545   -1.7183   -0.8630 C.ar    1  UNL1        0.0383
     11 C           0.2165   -1.0940   -0.6477 C.ar    1  UNL1        0.0770
     12 C          -0.9040   -1.6596    0.0939 C.2     1  UNL1        0.2476
     13 O          -0.6604   -2.6672    0.8386 O.2     1  UNL1       -0.2701
     14 N          -2.2233   -1.1866    0.0540 N.am    1  UNL1       -0.3071
     15 C          -3.2594   -1.8447    0.8467 C.3     1  UNL1        0.0376
     16 C          -4.5393   -1.1110    0.6780 C.ar    1  UNL1       -0.0245
     17 C          -4.6846    0.0974    1.3382 C.ar    1  UNL1       -0.0452
     18 C          -3.6678    0.6903    2.2431 C.3     1  UNL1       -0.0394
     19 C          -5.8836    0.7768    1.1070 C.ar    1  UNL1       -0.0541
     20 C          -6.8746    0.3029    0.2819 C.ar    1  UNL1       -0.0333
     21 C          -8.1470    1.0908    0.0684 C.3     1  UNL1        0.0186
     22 N          -7.8708    2.0236   -1.0331 N.3     1  UNL1       -0.3261
     23 C          -6.6663   -0.9120   -0.3461 C.ar    1  UNL1       -0.0541
     24 C          -5.5061   -1.6251   -0.1548 C.ar    1  UNL1       -0.0452
     25 C          -5.2590   -2.9383   -0.7967 C.3     1  UNL1       -0.0394
     26 C           0.3328    0.1043   -1.2897 C.ar    1  UNL1        0.0721
     27 C          -0.6959    1.1973   -1.3662 C.3     1  UNL1       -0.0199
     28 N           1.5728    0.1616   -1.8472 N.ar    1  UNL1       -0.1754
     29 C           4.9731   -1.4841    0.0454 C.ar    1  UNL1       -0.0548
     30 C           5.9350   -1.0226    0.9533 C.ar    1  UNL1       -0.0354
     31 C           6.5313    0.1950    0.7032 C.ar    1  UNL1        0.0713
     32 N           7.4642    0.6708    1.5534 N.ar    1  UNL1       -0.2519
     33 H           8.5138    2.7896    3.1762 H       1  UNL1        0.0292
     34 H           9.7010    3.1820    1.9034 H       1  UNL1        0.0292
     35 H           9.7628    1.5253    2.6954 H       1  UNL1        0.0292
     36 H           8.3035    3.6104    0.1314 H       1  UNL1        0.0636
     37 H           6.5546    2.7406   -1.4786 H       1  UNL1        0.0625
     38 H           5.0094    1.0367   -2.1092 H       1  UNL1        0.0627
     39 H           3.6665   -2.3457   -2.1244 H       1  UNL1        0.0558
     40 H           3.8091   -0.8096   -2.9873 H       1  UNL1        0.0558
     41 H           1.6823   -2.7173   -0.4662 H       1  UNL1        0.0834
     42 H          -2.4781   -0.3615   -0.5515 H       1  UNL1        0.1493
     43 H          -2.9440   -1.8357    1.8908 H       1  UNL1        0.0512
     44 H          -3.3552   -2.8837    0.4994 H       1  UNL1        0.0512
     45 H          -3.0401    1.4312    1.6874 H       1  UNL1        0.0278
     46 H          -4.2587    1.2928    3.0016 H       1  UNL1        0.0278
     47 H          -3.0924   -0.0660    2.7777 H       1  UNL1        0.0278
     48 H          -6.0728    1.7494    1.5983 H       1  UNL1        0.0623
     49 H          -8.9282    0.3916   -0.2626 H       1  UNL1        0.0471
     50 H          -8.4024    1.6867    0.9429 H       1  UNL1        0.0471
     51 H          -7.5530    2.9598   -0.6823 H       1  UNL1        0.1185
     52 H          -7.1687    1.6556   -1.7037 H       1  UNL1        0.1185
     53 H          -7.4432   -1.2946   -0.9967 H       1  UNL1        0.0623
     54 H          -6.1515   -3.1519   -1.4191 H       1  UNL1        0.0278
     55 H          -5.2720   -3.7590   -0.0184 H       1  UNL1        0.0278
     56 H          -4.3582   -2.9870   -1.4126 H       1  UNL1        0.0278
     57 H          -0.1928    2.1480   -1.7263 H       1  UNL1        0.0293
     58 H          -1.0848    1.4712   -0.3716 H       1  UNL1        0.0293
     59 H          -1.4352    0.9570   -2.1189 H       1  UNL1        0.0293
     60 H           4.5300   -2.4531    0.2770 H       1  UNL1        0.0622
     61 H           6.2186   -1.5884    1.8312 H       1  UNL1        0.0639
@<TRIPOS>BOND
     1     1     2    1
     2     2     3   ar
     3     3     4   ar
     4     4     5   ar
     5     5     6   ar
     6     6     7   ar
     7     7     8    1
     8     8     9    1
     9     9    10   ar
    10    10    11   ar
    11    11    12    1
    12    12    13    2
    13    12    14   am
    14    14    15    1
    15    15    16    1
    16    16    17   ar
    17    17    18    1
    18    17    19   ar
    19    19    20   ar
    20    20    21    1
    21    21    22    1
    22    20    23   ar
    23    23    24   ar
    24    24    25    1
    25    11    26   ar
    26    26    27    1
    27    26    28   ar
    28     7    29   ar
    29    29    30   ar
    30    30    31   ar
    31    31    32   ar
    32    32     2   ar
    33    31     5   ar
    34    28     9   ar
    35    24    16   ar
    36     1    33    1
    37     1    34    1
    38     1    35    1
    39     3    36    1
    40     4    37    1
    41     6    38    1
    42     8    39    1
    43     8    40    1
    44    10    41    1
    45    14    42    1
    46    15    43    1
    47    15    44    1
    48    18    45    1
    49    18    46    1
    50    18    47    1
    51    19    48    1
    52    21    49    1
    53    21    50    1
    54    22    51    1
    55    22    52    1
    56    23    53    1
    57    25    54    1
    58    25    55    1
    59    25    56    1
    60    27    57    1
    61    27    58    1
    62    27    59    1
    63    29    60    1
    64    30    61    1
