@<TRIPOS>MOLECULE
*****
 97 100 0 0 0
SMALL
GASTEIGER

@<TRIPOS>ATOM
      1 C           5.9088    1.2985    4.0060 C.3     1  UNL1        0.0122
      2 C           6.2055    1.3675    2.5426 C.2     1  UNL1        0.2104
      3 O           6.2906    2.3557    1.7582 O.2     1  UNL1       -0.2761
      4 N           6.4184    0.0866    1.9913 N.am    1  UNL1       -0.3053
      5 C           6.7329   -0.4043    0.6543 C.3     1  UNL1        0.1024
      6 C           8.0255   -1.1845    0.6475 C.3     1  UNL1        0.1776
      7 O           9.0404   -0.5007    1.3201 O.3     1  UNL1       -0.3654
      8 O           8.4234   -1.3601   -0.6675 O.3     1  UNL1       -0.3414
      9 C           7.5120   -2.0816   -1.4197 C.3     1  UNL1        0.1130
     10 C           7.2605   -1.3346   -2.7037 C.3     1  UNL1        0.0730
     11 O           8.4250   -1.1724   -3.4515 O.3     1  UNL1       -0.3924
     12 C           6.2534   -2.4134   -0.6824 C.3     1  UNL1        0.1116
     13 O           6.3890   -3.6209    0.0050 O.3     1  UNL1       -0.3865
     14 C           5.6590   -1.3135    0.1273 C.3     1  UNL1        0.1130
     15 O           4.6600   -0.6334   -0.5359 O.3     1  UNL1       -0.3408
     16 C           3.4029   -0.7166    0.0807 C.3     1  UNL1        0.1890
     17 O           2.4794   -1.2505   -0.7125 O.3     1  UNL1       -0.3315
     18 C           1.1749   -0.9379   -0.7334 C.3     1  UNL1        0.1863
     19 C           0.8772    0.5420   -0.6696 C.3     1  UNL1        0.1266
     20 O          -0.0515    0.7616    0.3216 O.3     1  UNL1       -0.3403
     21 C          -1.2301    1.3453   -0.0214 C.3     1  UNL1        0.1808
     22 O          -1.2730    2.5573    0.7457 O.3     1  UNL1       -0.3412
     23 C          -2.2514    3.3361    0.1684 C.3     1  UNL1        0.1130
     24 C          -2.1666    4.7238    0.7678 C.3     1  UNL1        0.0730
     25 O          -3.1015    5.5929    0.2624 O.3     1  UNL1       -0.3924
     26 C          -3.6259    2.7710    0.4321 C.3     1  UNL1        0.1116
     27 O          -4.5025    3.4500   -0.4119 O.3     1  UNL1       -0.3865
     28 C          -3.7116    1.2836    0.1966 C.3     1  UNL1        0.1130
     29 O          -4.6915    0.7950    1.0776 O.3     1  UNL1       -0.3408
     30 C          -5.7614    0.2455    0.3963 C.3     1  UNL1        0.1890
     31 O          -6.9459    0.9721    0.5834 O.3     1  UNL1       -0.3315
     32 C          -7.9387    0.2228   -0.0833 C.3     1  UNL1        0.1859
     33 C          -8.4115   -0.8276    0.8895 C.3     1  UNL1        0.1201
     34 O          -9.1603   -1.8194    0.2565 O.3     1  UNL1       -0.3860
     35 C          -7.2014   -1.4584    1.5317 C.3     1  UNL1        0.1145
     36 O          -7.0084   -0.9402    2.8279 O.3     1  UNL1       -0.3864
     37 C          -5.9187   -1.1879    0.7782 C.3     1  UNL1        0.1342
     38 O          -5.9353   -1.9626   -0.3777 O.3     1  UNL1       -0.3841
     39 C          -9.0193    1.1314   -0.5272 C.2     1  UNL1        0.3367
     40 O         -10.1464    0.7385   -1.2044 O.3     1  UNL1       -0.4788
     41 O          -9.0653    2.3977   -0.3496 O.2     1  UNL1       -0.2480
     42 C          -2.4185    0.5653    0.5080 C.3     1  UNL1        0.1026
     43 N          -2.4804   -0.7510   -0.0780 N.am    1  UNL1       -0.3053
     44 C          -2.3200   -1.9074    0.7195 C.2     1  UNL1        0.2104
     45 C          -2.4127   -3.1793   -0.0531 C.3     1  UNL1        0.0122
     46 O          -2.1217   -1.7796    1.9569 O.2     1  UNL1       -0.2761
     47 C           2.1696    1.3090   -0.4030 C.3     1  UNL1        0.1149
     48 O           2.9472    1.4259   -1.5458 O.3     1  UNL1       -0.3864
     49 C           2.9796    0.6006    0.6460 C.3     1  UNL1        0.1342
     50 O           2.1661    0.4662    1.7724 O.3     1  UNL1       -0.3841
     51 C           0.6527   -1.4790   -2.0521 C.2     1  UNL1        0.3367
     52 O           1.1062   -2.1728   -3.1649 O.3     1  UNL1       -0.4788
     53 O          -0.4954   -1.4071   -2.5035 O.2     1  UNL1       -0.2480
     54 H           6.7627    0.8199    4.5554 H       1  UNL1        0.0322
     55 H           5.7407    2.3350    4.3591 H       1  UNL1        0.0322
     56 H           4.9812    0.7225    4.2093 H       1  UNL1        0.0322
     57 H           6.3801   -0.8328    2.5199 H       1  UNL1        0.1492
     58 H           6.8007    0.4688   -0.0532 H       1  UNL1        0.0575
     59 H           7.8579   -2.1835    1.0914 H       1  UNL1        0.0928
     60 H           9.8950   -0.9726    1.1022 H       1  UNL1        0.2125
     61 H           8.0033   -3.0426   -1.6824 H       1  UNL1        0.0647
     62 H           6.5733   -1.9313   -3.3534 H       1  UNL1        0.0584
     63 H           6.8625   -0.3095   -2.5184 H       1  UNL1        0.0584
     64 H           8.2055   -0.5454   -4.1953 H       1  UNL1        0.2095
     65 H           5.4875   -2.6421   -1.4836 H       1  UNL1        0.0647
     66 H           6.9938   -4.2097   -0.4962 H       1  UNL1        0.2100
     67 H           5.2154   -1.8060    1.0429 H       1  UNL1        0.0644
     68 H           3.6228   -1.3610    1.0053 H       1  UNL1        0.0938
     69 H           0.6404   -1.5141    0.0429 H       1  UNL1        0.0742
     70 H           0.4847    0.8914   -1.6194 H       1  UNL1        0.0655
     71 H          -1.4060    1.5691   -1.0715 H       1  UNL1        0.0930
     72 H          -2.1277    3.4037   -0.9307 H       1  UNL1        0.0647
     73 H          -2.2589    4.6849    1.8706 H       1  UNL1        0.0584
     74 H          -1.1469    5.1538    0.5577 H       1  UNL1        0.0584
     75 H          -3.8436    5.6826    0.9077 H       1  UNL1        0.2095
     76 H          -3.8510    2.9609    1.4997 H       1  UNL1        0.0647
     77 H          -5.2139    3.8476    0.1442 H       1  UNL1        0.2100
     78 H          -4.0249    1.1144   -0.8576 H       1  UNL1        0.0644
     79 H          -5.5297    0.3354   -0.6838 H       1  UNL1        0.0938
     80 H          -7.4991   -0.3269   -0.9635 H       1  UNL1        0.0741
     81 H          -9.0058   -0.3043    1.6689 H       1  UNL1        0.0652
     82 H         -10.1016   -1.5037    0.2687 H       1  UNL1        0.2100
     83 H          -7.3039   -2.5532    1.5975 H       1  UNL1        0.0648
     84 H          -6.9278    0.0442    2.7986 H       1  UNL1        0.2100
     85 H          -5.1050   -1.5749    1.4139 H       1  UNL1        0.0671
     86 H          -5.6770   -2.8914   -0.1598 H       1  UNL1        0.2101
     87 H         -10.5287    1.1895   -2.0269 H       1  UNL1        0.2951
     88 H          -2.3413    0.5026    1.6356 H       1  UNL1        0.0575
     89 H          -2.6554   -0.6071   -1.0848 H       1  UNL1        0.1492
     90 H          -1.4696   -3.2738   -0.6470 H       1  UNL1        0.0322
     91 H          -2.4685   -3.9862    0.7104 H       1  UNL1        0.0322
     92 H          -3.3091   -3.1865   -0.7057 H       1  UNL1        0.0322
     93 H           1.8864    2.2902    0.0158 H       1  UNL1        0.0648
     94 H           2.3851    1.6377   -2.3358 H       1  UNL1        0.2100
     95 H           3.8504    1.2674    0.8644 H       1  UNL1        0.0671
     96 H           2.3855    1.2402    2.3771 H       1  UNL1        0.2101
     97 H           0.9872   -3.1484   -3.3039 H       1  UNL1        0.2951
@<TRIPOS>BOND
     1     1     2    1
     2     2     3    2
     3     2     4   am
     4     4     5    1
     5     5     6    1
     6     6     7    1
     7     6     8    1
     8     8     9    1
     9     9    10    1
    10    10    11    1
    11     9    12    1
    12    12    13    1
    13    12    14    1
    14    14    15    1
    15    15    16    1
    16    16    17    1
    17    17    18    1
    18    18    19    1
    19    19    20    1
    20    20    21    1
    21    21    22    1
    22    22    23    1
    23    23    24    1
    24    24    25    1
    25    23    26    1
    26    26    27    1
    27    26    28    1
    28    28    29    1
    29    29    30    1
    30    30    31    1
    31    31    32    1
    32    32    33    1
    33    33    34    1
    34    33    35    1
    35    35    36    1
    36    35    37    1
    37    37    38    1
    38    32    39    1
    39    39    40    1
    40    39    41    2
    41    28    42    1
    42    42    43    1
    43    43    44   am
    44    44    45    1
    45    44    46    2
    46    19    47    1
    47    47    48    1
    48    47    49    1
    49    49    50    1
    50    18    51    1
    51    51    52    1
    52    51    53    2
    53    14     5    1
    54    49    16    1
    55    42    21    1
    56    37    30    1
    57     1    54    1
    58     1    55    1
    59     1    56    1
    60     4    57    1
    61     5    58    1
    62     6    59    1
    63     7    60    1
    64     9    61    1
    65    10    62    1
    66    10    63    1
    67    11    64    1
    68    12    65    1
    69    13    66    1
    70    14    67    1
    71    16    68    1
    72    18    69    1
    73    19    70    1
    74    21    71    1
    75    23    72    1
    76    24    73    1
    77    24    74    1
    78    25    75    1
    79    26    76    1
    80    27    77    1
    81    28    78    1
    82    30    79    1
    83    32    80    1
    84    33    81    1
    85    34    82    1
    86    35    83    1
    87    36    84    1
    88    37    85    1
    89    38    86    1
    90    40    87    1
    91    42    88    1
    92    43    89    1
    93    45    90    1
    94    45    91    1
    95    45    92    1
    96    47    93    1
    97    48    94    1
    98    49    95    1
    99    50    96    1
   100    52    97    1
