@<TRIPOS>MOLECULE
*****
 78 83 0 0 0
SMALL
GASTEIGER

@<TRIPOS>ATOM
      1 C          -9.3850   -1.6952   -1.6796 C.3     1  UNL1        0.0789
      2 O          -9.8611   -0.4352   -2.1223 O.3     1  UNL1       -0.4933
      3 C          -9.1605    0.7338   -1.9504 C.ar    1  UNL1        0.1412
      4 C          -7.9389    0.6919   -1.3151 C.ar    1  UNL1       -0.0104
      5 C          -7.2609    1.8953   -1.1625 C.ar    1  UNL1       -0.0143
      6 C          -5.9654    1.9344   -0.4982 C.ar    1  UNL1       -0.0160
      7 C          -5.5703    3.0501    0.2002 C.ar    1  UNL1       -0.0532
      8 C          -4.3417    3.1244    0.8417 C.ar    1  UNL1       -0.0473
      9 C          -3.5009    2.0300    0.7645 C.ar    1  UNL1        0.0581
     10 C          -3.8877    0.8846    0.0591 C.ar    1  UNL1        0.0442
     11 C          -5.1193    0.8530   -0.5654 C.ar    1  UNL1       -0.0321
     12 N          -3.2024   -0.3451   -0.1375 N.pl3   1  UNL1       -0.3124
     13 C          -1.9963   -0.7863    0.4752 C.ar    1  UNL1        0.0529
     14 C          -1.8125   -2.1437    0.3663 C.ar    1  UNL1       -0.0384
     15 C          -0.6862   -2.7080    0.9018 C.ar    1  UNL1       -0.0557
     16 C           0.2971   -1.9605    1.5611 C.ar    1  UNL1       -0.0311
     17 C           1.4689   -2.6158    2.1448 C.3     1  UNL1        0.0666
     18 C           1.3604   -2.5592    3.6896 C.3     1  UNL1       -0.0474
     19 C           1.4168   -4.1241    1.8453 C.3     1  UNL1       -0.0474
     20 C           2.7385   -2.0841    1.6900 C.2     1  UNL1        0.2272
     21 O           3.4414   -2.8155    0.8694 O.2     1  UNL1       -0.2745
     22 N           3.3598   -0.8600    2.0036 N.am    1  UNL1       -0.2848
     23 C           4.6332   -0.4873    1.4459 C.ar    1  UNL1        0.0335
     24 C           5.8106   -0.7456    2.1077 C.ar    1  UNL1       -0.0387
     25 C           7.0194   -0.4034    1.5433 C.ar    1  UNL1       -0.0389
     26 C           7.1263    0.2117    0.2958 C.ar    1  UNL1        0.0299
     27 N           8.3840    0.5507   -0.2392 N.pl3   1  UNL1       -0.3255
     28 C           9.5433    0.6285    0.6213 C.3     1  UNL1        0.0357
     29 C          10.7549    1.1077   -0.1979 C.3     1  UNL1        0.0634
     30 O          10.9282    0.4234   -1.3652 O.3     1  UNL1       -0.3767
     31 C           9.8241   -0.0565   -2.0004 C.3     1  UNL1        0.0634
     32 C           8.6106    0.8151   -1.6409 C.3     1  UNL1        0.0357
     33 C           5.9311    0.4625   -0.3514 C.ar    1  UNL1       -0.0389
     34 C           4.7166    0.1211    0.2107 C.ar    1  UNL1       -0.0387
     35 C           0.0995   -0.6150    1.6613 C.ar    1  UNL1       -0.0345
     36 C          -1.0449   -0.0021    1.1239 C.ar    1  UNL1        0.0553
     37 N          -1.0658    1.3970    1.3571 N.am    1  UNL1       -0.2799
     38 C          -2.2481    2.2155    1.4452 C.2     1  UNL1        0.2501
     39 O          -2.1759    3.2010    2.2007 O.2     1  UNL1       -0.2698
     40 C          -7.7731    3.0936   -1.6218 C.ar    1  UNL1       -0.0521
     41 C          -8.9887    3.1068   -2.2489 C.ar    1  UNL1       -0.0369
     42 C          -9.6780    1.9321   -2.4118 C.ar    1  UNL1        0.0669
     43 N         -10.9527    1.9268   -3.0666 N.pl3   1  UNL1       -0.3551
     44 H         -10.0205   -2.5158   -2.0331 H       1  UNL1        0.0660
     45 H          -9.3178   -1.6509   -0.5812 H       1  UNL1        0.0660
     46 H          -8.3558   -1.9201   -2.0451 H       1  UNL1        0.0660
     47 H          -7.4638   -0.1930   -0.9277 H       1  UNL1        0.0661
     48 H          -6.2135    3.9042    0.2689 H       1  UNL1        0.0624
     49 H          -4.0276    4.0004    1.3935 H       1  UNL1        0.0626
     50 H          -5.4015   -0.0377   -1.1034 H       1  UNL1        0.0642
     51 H          -3.6291   -1.0342   -0.8212 H       1  UNL1        0.1522
     52 H          -2.5774   -2.7172   -0.1447 H       1  UNL1        0.0637
     53 H          -0.5351   -3.7558    0.8210 H       1  UNL1        0.0621
     54 H           0.5936   -3.3122    3.9828 H       1  UNL1        0.0243
     55 H           2.3077   -2.8824    4.1251 H       1  UNL1        0.0243
     56 H           0.9913   -1.5869    4.0175 H       1  UNL1        0.0243
     57 H           1.5805   -4.3521    0.7931 H       1  UNL1        0.0243
     58 H           0.5448   -4.5764    2.3217 H       1  UNL1        0.0243
     59 H           2.3052   -4.5418    2.4110 H       1  UNL1        0.0243
     60 H           2.9248   -0.2109    2.6620 H       1  UNL1        0.1548
     61 H           5.7578   -1.2242    3.0814 H       1  UNL1        0.0637
     62 H           7.9655   -0.5992    2.0506 H       1  UNL1        0.0637
     63 H           9.8056   -0.3795    0.9802 H       1  UNL1        0.0486
     64 H           9.4155    1.3859    1.4231 H       1  UNL1        0.0486
     65 H          10.7086    2.2068   -0.3437 H       1  UNL1        0.0575
     66 H          11.6363    0.9370    0.4539 H       1  UNL1        0.0575
     67 H           9.6094   -1.1172   -1.6703 H       1  UNL1        0.0575
     68 H           9.9745   -0.1083   -3.0855 H       1  UNL1        0.0575
     69 H           7.7870    0.3961   -2.2841 H       1  UNL1        0.0486
     70 H           8.8602    1.8538   -1.8794 H       1  UNL1        0.0486
     71 H           5.9829    0.9488   -1.3387 H       1  UNL1        0.0637
     72 H           3.7895    0.3246   -0.3047 H       1  UNL1        0.0637
     73 H           0.7792    0.0620    2.1534 H       1  UNL1        0.0640
     74 H          -0.1421    1.8374    1.4731 H       1  UNL1        0.1552
     75 H          -7.2177    4.0099   -1.4877 H       1  UNL1        0.0624
     76 H          -9.4360    4.0087   -2.6263 H       1  UNL1        0.0637
     77 H         -11.6736    2.6038   -2.7065 H       1  UNL1        0.1424
     78 H         -11.1566    1.2881   -3.8511 H       1  UNL1        0.1424
@<TRIPOS>BOND
     1     1     2    1
     2     2     3    1
     3     3     4   ar
     4     4     5   ar
     5     5     6    1
     6     6     7   ar
     7     7     8   ar
     8     8     9   ar
     9     9    10   ar
    10    10    11   ar
    11    10    12    1
    12    12    13    1
    13    13    14   ar
    14    14    15   ar
    15    15    16   ar
    16    16    17    1
    17    17    18    1
    18    17    19    1
    19    17    20    1
    20    20    21    2
    21    20    22   am
    22    22    23    1
    23    23    24   ar
    24    24    25   ar
    25    25    26   ar
    26    26    27    1
    27    27    28    1
    28    28    29    1
    29    29    30    1
    30    30    31    1
    31    31    32    1
    32    26    33   ar
    33    33    34   ar
    34    16    35   ar
    35    35    36   ar
    36    36    37    1
    37    37    38   am
    38    38    39    2
    39     5    40   ar
    40    40    41   ar
    41    41    42   ar
    42    42    43    1
    43    42     3   ar
    44    11     6   ar
    45    36    13   ar
    46    38     9    1
    47    34    23   ar
    48    32    27    1
    49     1    44    1
    50     1    45    1
    51     1    46    1
    52     4    47    1
    53     7    48    1
    54     8    49    1
    55    11    50    1
    56    12    51    1
    57    14    52    1
    58    15    53    1
    59    18    54    1
    60    18    55    1
    61    18    56    1
    62    19    57    1
    63    19    58    1
    64    19    59    1
    65    22    60    1
    66    24    61    1
    67    25    62    1
    68    28    63    1
    69    28    64    1
    70    29    65    1
    71    29    66    1
    72    31    67    1
    73    31    68    1
    74    32    69    1
    75    32    70    1
    76    33    71    1
    77    34    72    1
    78    35    73    1
    79    37    74    1
    80    40    75    1
    81    41    76    1
    82    43    77    1
    83    43    78    1
