
     RDKit          3D

 28 30  0  0  0  0  0  0  0  0999 V2000
    1.5852   -1.4998   -2.4080 O   0  0  0  0  0  0  0  0  0  0  0  0
    1.2838   -0.8694   -1.3699 C   0  0  0  0  0  0  0  0  0  0  0  0
    2.3455   -0.2062   -0.6586 C   0  0  0  0  0  0  0  0  0  0  0  0
    2.2609   -0.0104    0.7069 C   0  0  0  0  0  0  0  0  0  0  0  0
    3.2690    0.6554    1.3659 C   0  0  0  0  0  0  0  0  0  0  0  0
    4.3589    1.1323    0.7060 C   0  0  0  0  0  0  0  0  0  0  0  0
    5.3796    1.7959    1.3057 F   0  0  0  0  0  0  0  0  0  0  0  0
    4.4480    0.9383   -0.6615 C   0  0  0  0  0  0  0  0  0  0  0  0
    5.5321    1.4012   -1.3811 O   0  0  0  0  0  0  0  0  0  0  0  0
    3.4601    0.2797   -1.3413 C   0  0  0  0  0  0  0  0  0  0  0  0
   -0.0930   -0.8108   -0.9062 C   0  0  0  0  0  0  0  0  0  0  0  0
   -1.1364   -1.2931   -1.0491 N   0  0  0  0  0  0  0  0  0  0  0  0
   -2.3024   -1.0230   -0.5282 C   0  0  0  0  0  0  0  0  0  0  0  0
   -3.5460   -1.6171   -0.7190 C   0  0  0  0  0  0  0  0  0  0  0  0
   -4.6455   -1.1631   -0.0638 C   0  0  0  0  0  0  0  0  0  0  0  0
   -4.6491   -0.1003    0.8322 C   0  0  0  0  0  0  0  0  0  0  0  0
   -5.7866    0.3205    1.4688 O   0  0  0  0  0  0  0  0  0  0  0  0
   -3.4115    0.5054    1.0347 C   0  0  0  0  0  0  0  0  0  0  0  0
   -2.2908    0.0296    0.3550 C   0  0  0  0  0  0  0  0  0  0  0  0
   -0.5739    0.5440    0.3565 S   0  0  0  0  0  0  0  0  0  0  0  0
    1.4410   -0.3757    1.3155 H   0  0  0  0  0  0  0  0  0  0  0  0
    3.2056    0.8104    2.4262 H   0  0  0  0  0  0  0  0  0  0  0  0
    5.3609    2.0923   -2.1250 H   0  0  0  0  0  0  0  0  0  0  0  0
    3.5424    0.1322   -2.4303 H   0  0  0  0  0  0  0  0  0  0  0  0
   -3.6905   -2.4603   -1.3927 H   0  0  0  0  0  0  0  0  0  0  0  0
   -5.6304   -1.6326   -0.2180 H   0  0  0  0  0  0  0  0  0  0  0  0
   -6.3756    1.0887    1.2573 H   0  0  0  0  0  0  0  0  0  0  0  0
   -3.3412    1.3358    1.7186 H   0  0  0  0  0  0  0  0  0  0  0  0
  1  2  2  0
  2  3  1  0
  3  4  2  0
  4  5  1  0
  5  6  2  0
  6  7  1  0
  6  8  1  0
  8  9  1  0
  8 10  2  0
  2 11  1  0
 11 12  2  0
 12 13  1  0
 13 14  2  0
 14 15  1  0
 15 16  2  0
 16 17  1  0
 16 18  1  0
 18 19  2  0
 19 20  1  0
 10  3  1  0
 20 11  1  0
 19 13  1  0
  4 21  1  0
  5 22  1  0
  9 23  1  0
 10 24  1  0
 14 25  1  0
 15 26  1  0
 17 27  1  0
 18 28  1  0
M  END
$$$$
