@<TRIPOS>MOLECULE
*****
 28 30 0 0 0
SMALL
GASTEIGER

@<TRIPOS>ATOM
      1 O           1.5852   -1.4998   -2.4080 O.2     1  UNL1       -0.2844
      2 C           1.2838   -0.8694   -1.3699 C.2     1  UNL1        0.2181
      3 C           2.3455   -0.2062   -0.6586 C.ar    1  UNL1        0.0280
      4 C           2.2609   -0.0104    0.7069 C.ar    1  UNL1       -0.0479
      5 C           3.2690    0.6554    1.3659 C.ar    1  UNL1       -0.0221
      6 C           4.3589    1.1323    0.7060 C.ar    1  UNL1        0.1646
      7 F           5.3796    1.7959    1.3057 F       1  UNL1       -0.2017
      8 C           4.4480    0.9383   -0.6615 C.ar    1  UNL1        0.1526
      9 O           5.5321    1.4012   -1.3811 O.3     1  UNL1       -0.5039
     10 C           3.4601    0.2797   -1.3413 C.ar    1  UNL1       -0.0064
     11 C          -0.0930   -0.8108   -0.9062 C.ar    1  UNL1        0.1495
     12 N          -1.1364   -1.2931   -1.0491 N.ar    1  UNL1       -0.2357
     13 C          -2.3024   -1.0230   -0.5282 C.ar    1  UNL1        0.0792
     14 C          -3.5460   -1.6171   -0.7190 C.ar    1  UNL1       -0.0317
     15 C          -4.6455   -1.1631   -0.0638 C.ar    1  UNL1       -0.0181
     16 C          -4.6491   -0.1003    0.8322 C.ar    1  UNL1        0.1180
     17 O          -5.7866    0.3205    1.4688 O.3     1  UNL1       -0.5067
     18 C          -3.4115    0.5054    1.0347 C.ar    1  UNL1       -0.0043
     19 C          -2.2908    0.0296    0.3550 C.ar    1  UNL1        0.0431
     20 S          -0.5739    0.5440    0.3565 S.2     1  UNL1       -0.0639
     21 H           1.4410   -0.3757    1.3155 H       1  UNL1        0.0626
     22 H           3.2056    0.8104    2.4262 H       1  UNL1        0.0648
     23 H           5.3609    2.0923   -2.1250 H       1  UNL1        0.2923
     24 H           3.5424    0.1322   -2.4303 H       1  UNL1        0.0662
     25 H          -3.6905   -2.4603   -1.3927 H       1  UNL1        0.0640
     26 H          -5.6304   -1.6326   -0.2180 H       1  UNL1        0.0655
     27 H          -6.3756    1.0887    1.2573 H       1  UNL1        0.2921
     28 H          -3.3412    1.3358    1.7186 H       1  UNL1        0.0666
@<TRIPOS>BOND
     1     1     2    2
     2     2     3    1
     3     3     4   ar
     4     4     5   ar
     5     5     6   ar
     6     6     7    1
     7     6     8   ar
     8     8     9    1
     9     8    10   ar
    10     2    11    1
    11    11    12   ar
    12    12    13   ar
    13    13    14   ar
    14    14    15   ar
    15    15    16   ar
    16    16    17    1
    17    16    18   ar
    18    18    19   ar
    19    19    20   ar
    20    10     3   ar
    21    20    11   ar
    22    19    13   ar
    23     4    21    1
    24     5    22    1
    25     9    23    1
    26    10    24    1
    27    14    25    1
    28    15    26    1
    29    17    27    1
    30    18    28    1
