@<TRIPOS>MOLECULE
*****
 50 52 0 0 0
SMALL
GASTEIGER

@<TRIPOS>ATOM
      1 C           6.6712    1.0203   -1.6824 C.3     1  UNL1       -0.0652
      2 C           5.4514    1.6459   -1.1101 C.3     1  UNL1       -0.0545
      3 C           5.0981    1.2782    0.2935 C.3     1  UNL1       -0.0370
      4 C           4.7872   -0.1356    0.5828 C.3     1  UNL1        0.0202
      5 N           3.6166   -0.6592   -0.0886 N.am    1  UNL1       -0.2631
      6 C           3.6582   -1.2652   -1.3942 C.2     1  UNL1        0.2913
      7 O           4.7125   -1.4164   -2.1017 O.2     1  UNL1       -0.2661
      8 C           2.3347   -1.6794   -1.7876 C.2     1  UNL1        0.2496
      9 O           1.9575   -2.2406   -2.8461 O.2     1  UNL1       -0.2817
     10 C           1.4694   -1.3111   -0.6802 C.ar    1  UNL1        0.0512
     11 C           0.0955   -1.4723   -0.4979 C.ar    1  UNL1       -0.0225
     12 C          -0.5189   -1.0474    0.6588 C.ar    1  UNL1        0.1073
     13 S          -2.2251   -1.2619    0.8592 S.O2    1  UNL1        0.0612
     14 O          -2.5737   -1.5327    2.3096 O.2     1  UNL1       -0.1528
     15 O          -2.6883   -2.5013    0.1047 O.2     1  UNL1       -0.1528
     16 N          -3.1349    0.0539    0.2455 N.3     1  UNL1       -0.1713
     17 C          -2.7958    1.2658    0.9520 C.3     1  UNL1        0.0209
     18 C          -3.7770    1.4168    2.0681 C.3     1  UNL1       -0.0370
     19 C          -4.7721    0.3091    1.8591 C.3     1  UNL1       -0.0323
     20 C          -4.5459   -0.1148    0.4215 C.3     1  UNL1        0.0552
     21 C          -5.3089    0.7972   -0.4843 C.3     1  UNL1        0.0645
     22 O          -5.0377    0.5828   -1.8148 O.3     1  UNL1       -0.3814
     23 C          -5.3413   -0.6909   -2.2542 C.3     1  UNL1        0.0365
     24 C           0.2580   -0.4598    1.6312 C.ar    1  UNL1       -0.0204
     25 C           1.6428   -0.2849    1.4738 C.ar    1  UNL1        0.0373
     26 I           2.7654    0.5710    3.0193 I       1  UNL1       -0.0418
     27 C           2.2495   -0.7084    0.3179 C.ar    1  UNL1        0.0608
     28 H           6.6038    0.8182   -2.7716 H       1  UNL1        0.0230
     29 H           7.0191    0.1013   -1.1249 H       1  UNL1        0.0230
     30 H           7.5114    1.7388   -1.5611 H       1  UNL1        0.0230
     31 H           4.6010    1.3690   -1.8060 H       1  UNL1        0.0263
     32 H           5.5370    2.7453   -1.2347 H       1  UNL1        0.0263
     33 H           4.1836    1.9006    0.5366 H       1  UNL1        0.0280
     34 H           5.8837    1.7145    0.9522 H       1  UNL1        0.0280
     35 H           5.6616   -0.7291    0.1381 H       1  UNL1        0.0469
     36 H           4.8788   -0.4293    1.6443 H       1  UNL1        0.0469
     37 H          -0.4869   -1.9282   -1.2587 H       1  UNL1        0.0645
     38 H          -2.8172    2.1497    0.2781 H       1  UNL1        0.0444
     39 H          -1.7587    1.1715    1.3252 H       1  UNL1        0.0444
     40 H          -3.2960    1.3142    3.0675 H       1  UNL1        0.0279
     41 H          -4.3386    2.3884    2.0133 H       1  UNL1        0.0279
     42 H          -4.6438   -0.5048    2.5719 H       1  UNL1        0.0282
     43 H          -5.8264    0.6876    1.9308 H       1  UNL1        0.0282
     44 H          -4.8313   -1.2017    0.3002 H       1  UNL1        0.0502
     45 H          -5.0949    1.8290   -0.1789 H       1  UNL1        0.0576
     46 H          -6.4139    0.6314   -0.3116 H       1  UNL1        0.0576
     47 H          -6.4227   -0.8785   -2.0941 H       1  UNL1        0.0523
     48 H          -4.7634   -1.4286   -1.6988 H       1  UNL1        0.0523
     49 H          -5.0741   -0.7174   -3.3358 H       1  UNL1        0.0523
     50 H          -0.1605   -0.1062    2.5629 H       1  UNL1        0.0648
@<TRIPOS>BOND
     1     1     2    1
     2     2     3    1
     3     3     4    1
     4     4     5    1
     5     5     6   am
     6     6     7    2
     7     6     8    1
     8     8     9    2
     9     8    10    1
    10    10    11   ar
    11    11    12   ar
    12    12    13    1
    13    13    14    2
    14    13    15    2
    15    13    16    1
    16    16    17    1
    17    17    18    1
    18    18    19    1
    19    19    20    1
    20    20    21    1
    21    21    22    1
    22    22    23    1
    23    12    24   ar
    24    24    25   ar
    25    25    26    1
    26    25    27   ar
    27    27     5    1
    28    27    10   ar
    29    20    16    1
    30     1    28    1
    31     1    29    1
    32     1    30    1
    33     2    31    1
    34     2    32    1
    35     3    33    1
    36     3    34    1
    37     4    35    1
    38     4    36    1
    39    11    37    1
    40    17    38    1
    41    17    39    1
    42    18    40    1
    43    18    41    1
    44    19    42    1
    45    19    43    1
    46    20    44    1
    47    21    45    1
    48    21    46    1
    49    23    47    1
    50    23    48    1
    51    23    49    1
    52    24    50    1
