
     RDKit          3D

 50 52  0  0  0  0  0  0  0  0999 V2000
    6.6712    1.0203   -1.6824 C   0  0  0  0  0  0  0  0  0  0  0  0
    5.4514    1.6459   -1.1101 C   0  0  0  0  0  0  0  0  0  0  0  0
    5.0981    1.2782    0.2935 C   0  0  0  0  0  0  0  0  0  0  0  0
    4.7872   -0.1356    0.5828 C   0  0  0  0  0  0  0  0  0  0  0  0
    3.6166   -0.6592   -0.0886 N   0  0  0  0  0  0  0  0  0  0  0  0
    3.6582   -1.2652   -1.3942 C   0  0  0  0  0  0  0  0  0  0  0  0
    4.7125   -1.4164   -2.1017 O   0  0  0  0  0  0  0  0  0  0  0  0
    2.3347   -1.6794   -1.7876 C   0  0  0  0  0  0  0  0  0  0  0  0
    1.9575   -2.2406   -2.8461 O   0  0  0  0  0  0  0  0  0  0  0  0
    1.4694   -1.3111   -0.6802 C   0  0  0  0  0  0  0  0  0  0  0  0
    0.0955   -1.4723   -0.4979 C   0  0  0  0  0  0  0  0  0  0  0  0
   -0.5189   -1.0474    0.6588 C   0  0  0  0  0  0  0  0  0  0  0  0
   -2.2251   -1.2619    0.8592 S   0  0  0  0  0  6  0  0  0  0  0  0
   -2.5737   -1.5327    2.3096 O   0  0  0  0  0  0  0  0  0  0  0  0
   -2.6883   -2.5013    0.1047 O   0  0  0  0  0  0  0  0  0  0  0  0
   -3.1349    0.0539    0.2455 N   0  0  0  0  0  0  0  0  0  0  0  0
   -2.7958    1.2658    0.9520 C   0  0  0  0  0  0  0  0  0  0  0  0
   -3.7770    1.4168    2.0681 C   0  0  0  0  0  0  0  0  0  0  0  0
   -4.7721    0.3091    1.8591 C   0  0  0  0  0  0  0  0  0  0  0  0
   -4.5459   -0.1148    0.4215 C   0  0  1  0  0  0  0  0  0  0  0  0
   -5.3089    0.7972   -0.4843 C   0  0  0  0  0  0  0  0  0  0  0  0
   -5.0377    0.5828   -1.8148 O   0  0  0  0  0  0  0  0  0  0  0  0
   -5.3413   -0.6909   -2.2542 C   0  0  0  0  0  0  0  0  0  0  0  0
    0.2580   -0.4598    1.6312 C   0  0  0  0  0  0  0  0  0  0  0  0
    1.6428   -0.2849    1.4738 C   0  0  0  0  0  0  0  0  0  0  0  0
    2.7654    0.5710    3.0193 I   0  0  0  0  0  0  0  0  0  0  0  0
    2.2495   -0.7084    0.3179 C   0  0  0  0  0  0  0  0  0  0  0  0
    6.6038    0.8182   -2.7716 H   0  0  0  0  0  0  0  0  0  0  0  0
    7.0191    0.1013   -1.1249 H   0  0  0  0  0  0  0  0  0  0  0  0
    7.5114    1.7388   -1.5611 H   0  0  0  0  0  0  0  0  0  0  0  0
    4.6010    1.3690   -1.8060 H   0  0  0  0  0  0  0  0  0  0  0  0
    5.5370    2.7453   -1.2347 H   0  0  0  0  0  0  0  0  0  0  0  0
    4.1836    1.9006    0.5366 H   0  0  0  0  0  0  0  0  0  0  0  0
    5.8837    1.7145    0.9522 H   0  0  0  0  0  0  0  0  0  0  0  0
    5.6616   -0.7291    0.1381 H   0  0  0  0  0  0  0  0  0  0  0  0
    4.8788   -0.4293    1.6443 H   0  0  0  0  0  0  0  0  0  0  0  0
   -0.4869   -1.9282   -1.2587 H   0  0  0  0  0  0  0  0  0  0  0  0
   -2.8172    2.1497    0.2781 H   0  0  0  0  0  0  0  0  0  0  0  0
   -1.7587    1.1715    1.3252 H   0  0  0  0  0  0  0  0  0  0  0  0
   -3.2960    1.3142    3.0675 H   0  0  0  0  0  0  0  0  0  0  0  0
   -4.3386    2.3884    2.0133 H   0  0  0  0  0  0  0  0  0  0  0  0
   -4.6438   -0.5048    2.5719 H   0  0  0  0  0  0  0  0  0  0  0  0
   -5.8264    0.6876    1.9308 H   0  0  0  0  0  0  0  0  0  0  0  0
   -4.8313   -1.2017    0.3002 H   0  0  0  0  0  0  0  0  0  0  0  0
   -5.0949    1.8290   -0.1789 H   0  0  0  0  0  0  0  0  0  0  0  0
   -6.4139    0.6314   -0.3116 H   0  0  0  0  0  0  0  0  0  0  0  0
   -6.4227   -0.8785   -2.0941 H   0  0  0  0  0  0  0  0  0  0  0  0
   -4.7634   -1.4286   -1.6988 H   0  0  0  0  0  0  0  0  0  0  0  0
   -5.0741   -0.7174   -3.3358 H   0  0  0  0  0  0  0  0  0  0  0  0
   -0.1605   -0.1062    2.5629 H   0  0  0  0  0  0  0  0  0  0  0  0
  1  2  1  0
  2  3  1  0
  3  4  1  0
  4  5  1  0
  5  6  1  0
  6  7  2  0
  6  8  1  0
  8  9  2  0
  8 10  1  0
 10 11  2  0
 11 12  1  0
 12 13  1  0
 13 14  2  0
 13 15  2  0
 13 16  1  0
 16 17  1  0
 17 18  1  0
 18 19  1  0
 19 20  1  0
 20 21  1  0
 21 22  1  0
 22 23  1  0
 12 24  2  0
 24 25  1  0
 25 26  1  0
 25 27  2  0
 27  5  1  0
 27 10  1  0
 20 16  1  0
  1 28  1  0
  1 29  1  0
  1 30  1  0
  2 31  1  0
  2 32  1  0
  3 33  1  0
  3 34  1  0
  4 35  1  0
  4 36  1  0
 11 37  1  0
 17 38  1  0
 17 39  1  0
 18 40  1  0
 18 41  1  0
 19 42  1  0
 19 43  1  0
 20 44  1  1
 21 45  1  0
 21 46  1  0
 23 47  1  0
 23 48  1  0
 23 49  1  0
 24 50  1  0
M  END
$$$$
