@<TRIPOS>MOLECULE
*****
 37 39 0 0 0
SMALL
GASTEIGER

@<TRIPOS>ATOM
      1 C          -5.7617   -1.9729    0.3127 C.3     1  UNL1       -0.0370
      2 C          -5.2610   -0.5737    0.1870 C.ar    1  UNL1       -0.0146
      3 C          -3.9091   -0.3242    0.1158 C.ar    1  UNL1       -0.0469
      4 C          -3.3224    0.9158   -0.0008 C.ar    1  UNL1        0.0014
      5 C          -4.2208    1.9548   -0.0449 C.ar    1  UNL1       -0.0498
      6 C          -5.5843    1.7664    0.0220 C.ar    1  UNL1       -0.0256
      7 C          -6.1194    0.5034    0.1384 C.ar    1  UNL1        0.1263
      8 F          -7.4339    0.2194    0.2108 F       1  UNL1       -0.2052
      9 C          -1.8811    1.1687   -0.0756 C.ar    1  UNL1        0.0802
     10 C          -1.3580    2.4676   -0.1930 C.ar    1  UNL1        0.0049
     11 S           0.4567    2.0472   -0.2308 S.2     1  UNL1       -0.0599
     12 C           0.1597    0.2622   -0.0856 C.ar    1  UNL1        0.1629
     13 N           1.1596   -0.7750   -0.0446 N.pl3   1  UNL1       -0.2936
     14 C           2.5536   -0.6096   -0.1265 C.ar    1  UNL1        0.0363
     15 C           3.3302   -1.7427    0.1445 C.ar    1  UNL1       -0.0395
     16 C           4.6990   -1.7086    0.0931 C.ar    1  UNL1       -0.0425
     17 C           5.4010   -0.5699   -0.2252 C.ar    1  UNL1        0.1002
     18 C           6.8558   -0.5315   -0.2797 C.2     1  UNL1        0.3404
     19 O           7.5995   -1.6753   -0.0053 O.3     1  UNL1       -0.4770
     20 O           7.3956    0.5640   -0.5810 O.2     1  UNL1       -0.2450
     21 C           4.6706    0.5653   -0.4984 C.ar    1  UNL1        0.1326
     22 O           5.3053    1.7546   -0.8278 O.3     1  UNL1       -0.5059
     23 C           3.3076    0.4924   -0.4372 C.ar    1  UNL1        0.0019
     24 N          -1.0253    0.1591   -0.0326 N.ar    1  UNL1       -0.2247
     25 H          -6.5833   -2.0514    1.0481 H       1  UNL1        0.0278
     26 H          -4.9471   -2.6380    0.6745 H       1  UNL1        0.0278
     27 H          -6.1518   -2.2560   -0.6823 H       1  UNL1        0.0278
     28 H          -3.2348   -1.1909    0.1557 H       1  UNL1        0.0628
     29 H          -3.9223    2.9799   -0.1335 H       1  UNL1        0.0625
     30 H          -6.2748    2.5887   -0.0138 H       1  UNL1        0.0646
     31 H          -1.9440    3.4025   -0.2410 H       1  UNL1        0.0716
     32 H           0.7788   -1.7235    0.0528 H       1  UNL1        0.1541
     33 H           2.8845   -2.6961    0.4065 H       1  UNL1        0.0636
     34 H           5.2876   -2.6105    0.3091 H       1  UNL1        0.0627
     35 H           8.5195   -1.7725   -0.4376 H       1  UNL1        0.2954
     36 H           5.7954    2.2114   -0.0524 H       1  UNL1        0.2922
     37 H           2.7751    1.3990   -0.6619 H       1  UNL1        0.0673
@<TRIPOS>BOND
     1     1     2    1
     2     2     3   ar
     3     3     4   ar
     4     4     5   ar
     5     5     6   ar
     6     6     7   ar
     7     7     8    1
     8     4     9    1
     9     9    10   ar
    10    10    11   ar
    11    11    12   ar
    12    12    13    1
    13    13    14    1
    14    14    15   ar
    15    15    16   ar
    16    16    17   ar
    17    17    18    1
    18    18    19    1
    19    18    20    2
    20    17    21   ar
    21    21    22    1
    22    21    23   ar
    23    12    24   ar
    24     7     2   ar
    25    24     9   ar
    26    23    14   ar
    27     1    25    1
    28     1    26    1
    29     1    27    1
    30     3    28    1
    31     5    29    1
    32     6    30    1
    33    10    31    1
    34    13    32    1
    35    15    33    1
    36    16    34    1
    37    19    35    1
    38    22    36    1
    39    23    37    1
