@<TRIPOS>MOLECULE
*****
 196 196 0 0 0
SMALL
GASTEIGER

@<TRIPOS>ATOM
      1 C          -7.4757    8.1090    0.3638 C.3     1  UNL1       -0.0468
      2 C          -6.7809    6.8482    0.7090 C.2     1  UNL1       -0.0910
      3 C          -5.6553    6.5661    0.1165 C.2     1  UNL1       -0.0879
      4 C          -4.8142    5.3737    0.3102 C.3     1  UNL1       -0.0298
      5 C          -5.3048    4.3556    1.2469 C.3     1  UNL1       -0.0122
      6 C          -6.6058    3.7670    0.8234 C.3     1  UNL1       -0.0597
      7 C          -4.2953    3.2007    1.5204 C.3     1  UNL1        0.0850
      8 O          -5.0489    2.3768    2.2967 O.3     1  UNL1       -0.3892
      9 C          -3.8445    2.6297    0.1443 C.3     1  UNL1        0.1279
     10 C          -2.6769    3.4592   -0.3417 C.2     1  UNL1        0.2367
     11 O          -2.6709    3.6837   -1.6214 O.2     1  UNL1       -0.2737
     12 N          -1.5608    4.0768    0.1756 N.am    1  UNL1       -0.3024
     13 C          -0.6114    4.9539   -0.5941 C.3     1  UNL1        0.0994
     14 C          -1.2437    6.3112   -0.5949 C.3     1  UNL1       -0.0288
     15 C          -1.3548    6.8368    0.8097 C.3     1  UNL1       -0.0631
     16 C           0.7424    4.8714   -0.0009 C.2     1  UNL1        0.2361
     17 O           0.9385    3.6354    0.4191 O.2     1  UNL1       -0.2736
     18 N           1.9030    5.5031    0.3357 N.am    1  UNL1       -0.2942
     19 C           2.2184    6.8946    0.2396 C.3     1  UNL1        0.0037
     20 C           3.0991    4.8166    0.8707 C.3     1  UNL1        0.0909
     21 C           4.2518    4.6504    0.0173 C.2     1  UNL1        0.2333
     22 O           5.2199    4.0445    0.7507 O.2     1  UNL1       -0.2739
     23 N           4.8980    4.7809   -1.2023 N.am    1  UNL1       -0.2917
     24 C           4.2977    4.9199   -2.4687 C.3     1  UNL1        0.0040
     25 C           6.3781    4.6459   -1.2785 C.3     1  UNL1        0.1021
     26 C           7.1969    5.5910   -0.5396 C.3     1  UNL1       -0.0234
     27 C           7.1309    7.0398   -0.8128 C.3     1  UNL1       -0.0446
     28 C           5.7888    7.6114   -0.5450 C.3     1  UNL1       -0.0626
     29 C           7.6661    7.4121   -2.1823 C.3     1  UNL1       -0.0626
     30 C           6.8200    3.2257   -1.3331 C.2     1  UNL1        0.2342
     31 O           5.8935    2.4917   -1.9044 O.2     1  UNL1       -0.2738
     32 N           7.8740    2.4427   -0.9707 N.am    1  UNL1       -0.3022
     33 C           8.0451    1.0634   -1.3778 C.3     1  UNL1        0.1019
     34 C           9.4455    0.7493   -1.8453 C.3     1  UNL1       -0.0197
     35 C           9.7601    1.6153   -3.0401 C.3     1  UNL1       -0.0605
     36 C          10.4908    0.9514   -0.7880 C.3     1  UNL1       -0.0605
     37 C           7.4036    0.0096   -0.5757 C.2     1  UNL1        0.2365
     38 O           7.9269   -1.1349   -1.0395 O.2     1  UNL1       -0.2735
     39 N           6.5401   -0.3871    0.3932 N.am    1  UNL1       -0.2914
     40 C           5.6064    0.3611    1.1271 C.3     1  UNL1        0.0040
     41 C           6.4489   -1.8398    0.7596 C.3     1  UNL1        0.1021
     42 C           6.6805   -2.2169    2.1361 C.3     1  UNL1       -0.0234
     43 C           5.8684   -1.7806    3.2850 C.3     1  UNL1       -0.0446
     44 C           6.5379   -2.4673    4.5331 C.3     1  UNL1       -0.0626
     45 C           4.5048   -2.4924    3.3192 C.3     1  UNL1       -0.0626
     46 C           5.2168   -2.3744    0.0869 C.2     1  UNL1        0.2341
     47 O           4.5341   -1.3907   -0.4867 O.2     1  UNL1       -0.2738
     48 N           4.5416   -3.5239   -0.1438 N.am    1  UNL1       -0.3027
     49 C           3.3332   -3.4576   -1.0162 C.3     1  UNL1        0.0966
     50 C           3.5175   -4.6356   -2.0108 C.3     1  UNL1       -0.0381
     51 C           2.0610   -3.6991   -0.3399 C.2     1  UNL1        0.2337
     52 O           1.0453   -3.0341   -0.8618 O.2     1  UNL1       -0.2738
     53 N           1.5504   -4.4388    0.7098 N.am    1  UNL1       -0.3027
     54 C           0.1286   -4.3592    1.1035 C.3     1  UNL1        0.0968
     55 C          -0.0251   -4.6751    2.5326 C.3     1  UNL1       -0.0381
     56 C          -0.7873   -5.1450    0.2430 C.2     1  UNL1        0.2360
     57 O          -1.7966   -5.5451    0.9866 O.2     1  UNL1       -0.2736
     58 N          -1.0675   -5.6458   -0.9900 N.am    1  UNL1       -0.2914
     59 C          -0.3243   -5.5361   -2.2051 C.3     1  UNL1        0.0040
     60 C          -2.3234   -6.4348   -1.2609 C.3     1  UNL1        0.1023
     61 C          -2.1691   -7.7696   -0.5996 C.3     1  UNL1       -0.0234
     62 C          -3.2812   -8.7218   -0.7649 C.3     1  UNL1       -0.0446
     63 C          -3.6186   -9.0880   -2.1863 C.3     1  UNL1       -0.0626
     64 C          -4.4534   -8.4436    0.1196 C.3     1  UNL1       -0.0626
     65 C          -3.5582   -5.7178   -1.0976 C.2     1  UNL1        0.2365
     66 O          -3.4040   -4.6985   -0.2319 O.2     1  UNL1       -0.2735
     67 N          -4.8889   -5.5396   -1.4237 N.am    1  UNL1       -0.2914
     68 C          -5.6106   -6.1141   -2.4845 C.3     1  UNL1        0.0040
     69 C          -5.8057   -4.6327   -0.6249 C.3     1  UNL1        0.1023
     70 C          -6.2284   -5.4049    0.5901 C.3     1  UNL1       -0.0234
     71 C          -7.2846   -4.6979    1.3916 C.3     1  UNL1       -0.0446
     72 C          -8.5462   -4.5469    0.5161 C.3     1  UNL1       -0.0626
     73 C          -7.6010   -5.3852    2.6818 C.3     1  UNL1       -0.0626
     74 C          -5.3907   -3.2631   -0.5280 C.2     1  UNL1        0.2365
     75 O          -5.0767   -2.8438   -1.7699 O.2     1  UNL1       -0.2735
     76 N          -5.1357   -2.1449    0.2342 N.am    1  UNL1       -0.2912
     77 C          -4.8158   -2.0502    1.5989 C.3     1  UNL1        0.0040
     78 C          -4.9661   -0.7843   -0.4398 C.3     1  UNL1        0.1044
     79 C          -6.4269   -0.2661   -0.4881 C.3     1  UNL1       -0.0195
     80 C          -7.0865   -0.1321    0.8090 C.3     1  UNL1       -0.0605
     81 C          -6.5479    0.7880   -1.5111 C.3     1  UNL1       -0.0605
     82 C          -3.9322    0.0184    0.1462 C.2     1  UNL1        0.2368
     83 O          -2.9701   -0.7387    0.6667 O.2     1  UNL1       -0.2735
     84 N          -3.4418    1.2951    0.4346 N.am    1  UNL1       -0.2890
     85 C          -2.2012    1.3619    1.2494 C.3     1  UNL1        0.0041
     86 H          -8.3216    8.2951    1.0341 H       1  UNL1        0.0272
     87 H          -6.7486    8.9333    0.3299 H       1  UNL1        0.0272
     88 H          -7.8709    7.9335   -0.6867 H       1  UNL1        0.0272
     89 H          -7.2147    6.1990    1.4387 H       1  UNL1        0.0566
     90 H          -5.2751    7.3020   -0.6180 H       1  UNL1        0.0569
     91 H          -4.7911    4.9120   -0.7523 H       1  UNL1        0.0311
     92 H          -3.7943    5.6271    0.5214 H       1  UNL1        0.0311
     93 H          -5.4108    4.7922    2.3028 H       1  UNL1        0.0327
     94 H          -7.0213    4.1831   -0.1117 H       1  UNL1        0.0233
     95 H          -7.4229    3.8592    1.5901 H       1  UNL1        0.0233
     96 H          -6.5189    2.6571    0.6711 H       1  UNL1        0.0233
     97 H          -3.4957    3.6669    2.0731 H       1  UNL1        0.0619
     98 H          -4.6787    2.1712    3.1844 H       1  UNL1        0.2099
     99 H          -4.6727    2.8613   -0.4768 H       1  UNL1        0.0623
    100 H          -1.2001    4.0084    1.1213 H       1  UNL1        0.1495
    101 H          -0.5549    4.6415   -1.6495 H       1  UNL1        0.0594
    102 H          -2.2161    6.2349   -1.1192 H       1  UNL1        0.0285
    103 H          -0.5571    7.0140   -1.1293 H       1  UNL1        0.0285
    104 H          -1.1037    6.1078    1.5827 H       1  UNL1        0.0230
    105 H          -0.6566    7.7216    0.9818 H       1  UNL1        0.0230
    106 H          -2.3721    7.2783    1.0267 H       1  UNL1        0.0230
    107 H           2.3825    7.2485   -0.7932 H       1  UNL1        0.0429
    108 H           3.2398    7.1139    0.7266 H       1  UNL1        0.0429
    109 H           1.6029    7.5826    0.8707 H       1  UNL1        0.0429
    110 H           2.8472    3.8264    1.3104 H       1  UNL1        0.0560
    111 H           3.3312    5.4120    1.8140 H       1  UNL1        0.0560
    112 H           3.8139    5.8967   -2.6686 H       1  UNL1        0.0429
    113 H           5.0883    4.9203   -3.3121 H       1  UNL1        0.0429
    114 H           3.6708    4.0558   -2.8213 H       1  UNL1        0.0429
    115 H           6.6351    4.9175   -2.3992 H       1  UNL1        0.0597
    116 H           8.2798    5.2157   -0.6137 H       1  UNL1        0.0290
    117 H           6.9990    5.4449    0.5701 H       1  UNL1        0.0290
    118 H           7.8392    7.5371   -0.0805 H       1  UNL1        0.0296
    119 H           5.8581    8.7388   -0.4131 H       1  UNL1        0.0232
    120 H           5.5305    7.2720    0.5026 H       1  UNL1        0.0232
    121 H           4.9787    7.3357   -1.1933 H       1  UNL1        0.0232
    122 H           6.8505    7.2382   -2.8918 H       1  UNL1        0.0232
    123 H           8.5457    6.7549   -2.3732 H       1  UNL1        0.0232
    124 H           8.0425    8.4395   -2.1274 H       1  UNL1        0.0232
    125 H           8.6515    2.7052   -0.3654 H       1  UNL1        0.1495
    126 H           7.4379    1.0379   -2.3717 H       1  UNL1        0.0597
    127 H           9.4747   -0.3039   -2.1538 H       1  UNL1        0.0318
    128 H          10.8291    1.9238   -2.9656 H       1  UNL1        0.0233
    129 H           9.6580    1.0128   -3.9676 H       1  UNL1        0.0233
    130 H           9.1390    2.5105   -3.0842 H       1  UNL1        0.0233
    131 H          10.5393    1.9936   -0.4294 H       1  UNL1        0.0233
    132 H          11.4765    0.6318   -1.2179 H       1  UNL1        0.0233
    133 H          10.2926    0.2332    0.0419 H       1  UNL1        0.0233
    134 H           4.7853   -0.3234    1.4849 H       1  UNL1        0.0429
    135 H           6.0481    0.9724    1.9419 H       1  UNL1        0.0429
    136 H           5.0033    1.1452    0.5947 H       1  UNL1        0.0429
    137 H           7.2500   -2.3928    0.1791 H       1  UNL1        0.0597
    138 H           7.8011   -2.0445    2.3262 H       1  UNL1        0.0290
    139 H           6.6938   -3.3620    2.2658 H       1  UNL1        0.0290
    140 H           5.7151   -0.7447    3.4908 H       1  UNL1        0.0296
    141 H           6.4792   -3.5553    4.2881 H       1  UNL1        0.0232
    142 H           5.8807   -2.2849    5.3888 H       1  UNL1        0.0232
    143 H           7.5655   -2.1336    4.6275 H       1  UNL1        0.0232
    144 H           4.6225   -3.5523    2.9698 H       1  UNL1        0.0232
    145 H           4.1197   -2.5785    4.3554 H       1  UNL1        0.0232
    146 H           3.7562   -2.0378    2.6608 H       1  UNL1        0.0232
    147 H           4.6777   -4.4596    0.1685 H       1  UNL1        0.1495
    148 H           3.2956   -2.5615   -1.6312 H       1  UNL1        0.0592
    149 H           3.1482   -4.3563   -2.9964 H       1  UNL1        0.0252
    150 H           4.5844   -4.9254   -2.0464 H       1  UNL1        0.0252
    151 H           2.9489   -5.4794   -1.5726 H       1  UNL1        0.0252
    152 H           2.0048   -5.1064    1.3109 H       1  UNL1        0.1495
    153 H          -0.1545   -3.2525    0.9524 H       1  UNL1        0.0592
    154 H          -0.9428   -5.2582    2.7731 H       1  UNL1        0.0252
    155 H           0.8136   -5.3252    2.9158 H       1  UNL1        0.0252
    156 H          -0.0037   -3.7846    3.1867 H       1  UNL1        0.0252
    157 H           0.6978   -5.9670   -2.1918 H       1  UNL1        0.0429
    158 H          -0.3672   -4.5078   -2.6764 H       1  UNL1        0.0429
    159 H          -0.8064   -6.1322   -3.0520 H       1  UNL1        0.0429
    160 H          -2.1505   -6.7033   -2.3649 H       1  UNL1        0.0597
    161 H          -1.9496   -7.7204    0.4897 H       1  UNL1        0.0290
    162 H          -1.2506   -8.2684   -1.0283 H       1  UNL1        0.0290
    163 H          -2.8586   -9.7211   -0.3445 H       1  UNL1        0.0296
    164 H          -2.7344   -9.6883   -2.5879 H       1  UNL1        0.0232
    165 H          -4.4519   -9.8125   -2.1643 H       1  UNL1        0.0232
    166 H          -3.7139   -8.2557   -2.8804 H       1  UNL1        0.0232
    167 H          -4.2582   -7.5262    0.7156 H       1  UNL1        0.0232
    168 H          -5.4105   -8.3881   -0.4191 H       1  UNL1        0.0232
    169 H          -4.6109   -9.2467    0.9124 H       1  UNL1        0.0232
    170 H          -5.2975   -5.8040   -3.5323 H       1  UNL1        0.0429
    171 H          -6.6999   -5.7188   -2.5351 H       1  UNL1        0.0429
    172 H          -5.7957   -7.2093   -2.4329 H       1  UNL1        0.0429
    173 H          -6.7658   -4.6416   -1.2450 H       1  UNL1        0.0597
    174 H          -5.3148   -5.4688    1.2576 H       1  UNL1        0.0290
    175 H          -6.4976   -6.4468    0.3637 H       1  UNL1        0.0290
    176 H          -7.0258   -3.6663    1.6232 H       1  UNL1        0.0296
    177 H          -9.3456   -4.2691    1.2063 H       1  UNL1        0.0232
    178 H          -8.7695   -5.4882    0.0041 H       1  UNL1        0.0232
    179 H          -8.3381   -3.6997   -0.1606 H       1  UNL1        0.0232
    180 H          -6.9377   -6.2284    2.8646 H       1  UNL1        0.0232
    181 H          -7.6540   -4.6580    3.5268 H       1  UNL1        0.0232
    182 H          -8.6524   -5.8005    2.6231 H       1  UNL1        0.0232
    183 H          -4.7268   -0.9670    1.9527 H       1  UNL1        0.0429
    184 H          -5.5229   -2.4188    2.3674 H       1  UNL1        0.0429
    185 H          -3.7764   -2.4496    1.8414 H       1  UNL1        0.0429
    186 H          -4.7992   -0.9068   -1.5279 H       1  UNL1        0.0599
    187 H          -6.9212   -1.2098   -1.0333 H       1  UNL1        0.0318
    188 H          -6.5297    0.4705    1.5119 H       1  UNL1        0.0233
    189 H          -7.1896   -1.1592    1.2808 H       1  UNL1        0.0233
    190 H          -8.1120    0.3127    0.6977 H       1  UNL1        0.0233
    191 H          -5.5661    1.2289   -1.8642 H       1  UNL1        0.0233
    192 H          -7.2023    1.5900   -1.1886 H       1  UNL1        0.0233
    193 H          -7.0550    0.4144   -2.4743 H       1  UNL1        0.0233
    194 H          -2.0378    0.4819    1.8923 H       1  UNL1        0.0429
    195 H          -1.3522    1.6485    0.6158 H       1  UNL1        0.0429
    196 H          -2.2739    2.1669    2.0468 H       1  UNL1        0.0429
@<TRIPOS>BOND
     1     1     2    1
     2     2     3    2
     3     3     4    1
     4     4     5    1
     5     5     6    1
     6     5     7    1
     7     7     8    1
     8     7     9    1
     9     9    10    1
    10    10    11    2
    11    10    12   am
    12    12    13    1
    13    13    14    1
    14    14    15    1
    15    13    16    1
    16    16    17    2
    17    16    18   am
    18    18    19    1
    19    18    20    1
    20    20    21    1
    21    21    22    2
    22    21    23   am
    23    23    24    1
    24    23    25    1
    25    25    26    1
    26    26    27    1
    27    27    28    1
    28    27    29    1
    29    25    30    1
    30    30    31    2
    31    30    32   am
    32    32    33    1
    33    33    34    1
    34    34    35    1
    35    34    36    1
    36    33    37    1
    37    37    38    2
    38    37    39   am
    39    39    40    1
    40    39    41    1
    41    41    42    1
    42    42    43    1
    43    43    44    1
    44    43    45    1
    45    41    46    1
    46    46    47    2
    47    46    48   am
    48    48    49    1
    49    49    50    1
    50    49    51    1
    51    51    52    2
    52    51    53   am
    53    53    54    1
    54    54    55    1
    55    54    56    1
    56    56    57    2
    57    56    58   am
    58    58    59    1
    59    58    60    1
    60    60    61    1
    61    61    62    1
    62    62    63    1
    63    62    64    1
    64    60    65    1
    65    65    66    2
    66    65    67   am
    67    67    68    1
    68    67    69    1
    69    69    70    1
    70    70    71    1
    71    71    72    1
    72    71    73    1
    73    69    74    1
    74    74    75    2
    75    74    76   am
    76    76    77    1
    77    76    78    1
    78    78    79    1
    79    79    80    1
    80    79    81    1
    81    78    82    1
    82    82    83    2
    83    82    84   am
    84    84    85    1
    85    84     9    1
    86     1    86    1
    87     1    87    1
    88     1    88    1
    89     2    89    1
    90     3    90    1
    91     4    91    1
    92     4    92    1
    93     5    93    1
    94     6    94    1
    95     6    95    1
    96     6    96    1
    97     7    97    1
    98     8    98    1
    99     9    99    1
   100    12   100    1
   101    13   101    1
   102    14   102    1
   103    14   103    1
   104    15   104    1
   105    15   105    1
   106    15   106    1
   107    19   107    1
   108    19   108    1
   109    19   109    1
   110    20   110    1
   111    20   111    1
   112    24   112    1
   113    24   113    1
   114    24   114    1
   115    25   115    1
   116    26   116    1
   117    26   117    1
   118    27   118    1
   119    28   119    1
   120    28   120    1
   121    28   121    1
   122    29   122    1
   123    29   123    1
   124    29   124    1
   125    32   125    1
   126    33   126    1
   127    34   127    1
   128    35   128    1
   129    35   129    1
   130    35   130    1
   131    36   131    1
   132    36   132    1
   133    36   133    1
   134    40   134    1
   135    40   135    1
   136    40   136    1
   137    41   137    1
   138    42   138    1
   139    42   139    1
   140    43   140    1
   141    44   141    1
   142    44   142    1
   143    44   143    1
   144    45   144    1
   145    45   145    1
   146    45   146    1
   147    48   147    1
   148    49   148    1
   149    50   149    1
   150    50   150    1
   151    50   151    1
   152    53   152    1
   153    54   153    1
   154    55   154    1
   155    55   155    1
   156    55   156    1
   157    59   157    1
   158    59   158    1
   159    59   159    1
   160    60   160    1
   161    61   161    1
   162    61   162    1
   163    62   163    1
   164    63   164    1
   165    63   165    1
   166    63   166    1
   167    64   167    1
   168    64   168    1
   169    64   169    1
   170    68   170    1
   171    68   171    1
   172    68   172    1
   173    69   173    1
   174    70   174    1
   175    70   175    1
   176    71   176    1
   177    72   177    1
   178    72   178    1
   179    72   179    1
   180    73   180    1
   181    73   181    1
   182    73   182    1
   183    77   183    1
   184    77   184    1
   185    77   185    1
   186    78   186    1
   187    79   187    1
   188    80   188    1
   189    80   189    1
   190    80   190    1
   191    81   191    1
   192    81   192    1
   193    81   193    1
   194    85   194    1
   195    85   195    1
   196    85   196    1
