
     RDKit          3D

196196  0  0  0  0  0  0  0  0999 V2000
   -7.4757    8.1090    0.3638 C   0  0  0  0  0  0  0  0  0  0  0  0
   -6.7809    6.8482    0.7090 C   0  0  0  0  0  0  0  0  0  0  0  0
   -5.6553    6.5661    0.1165 C   0  0  0  0  0  0  0  0  0  0  0  0
   -4.8142    5.3737    0.3102 C   0  0  0  0  0  0  0  0  0  0  0  0
   -5.3048    4.3556    1.2469 C   0  0  1  0  0  0  0  0  0  0  0  0
   -6.6058    3.7670    0.8234 C   0  0  0  0  0  0  0  0  0  0  0  0
   -4.2953    3.2007    1.5204 C   0  0  1  0  0  0  0  0  0  0  0  0
   -5.0489    2.3768    2.2967 O   0  0  0  0  0  0  0  0  0  0  0  0
   -3.8445    2.6297    0.1443 C   0  0  1  0  0  0  0  0  0  0  0  0
   -2.6769    3.4592   -0.3417 C   0  0  0  0  0  0  0  0  0  0  0  0
   -2.6709    3.6837   -1.6214 O   0  0  0  0  0  0  0  0  0  0  0  0
   -1.5608    4.0768    0.1756 N   0  0  0  0  0  0  0  0  0  0  0  0
   -0.6114    4.9539   -0.5941 C   0  0  1  0  0  0  0  0  0  0  0  0
   -1.2437    6.3112   -0.5949 C   0  0  0  0  0  0  0  0  0  0  0  0
   -1.3548    6.8368    0.8097 C   0  0  0  0  0  0  0  0  0  0  0  0
    0.7424    4.8714   -0.0009 C   0  0  0  0  0  0  0  0  0  0  0  0
    0.9385    3.6354    0.4191 O   0  0  0  0  0  0  0  0  0  0  0  0
    1.9030    5.5031    0.3357 N   0  0  0  0  0  0  0  0  0  0  0  0
    2.2184    6.8946    0.2396 C   0  0  0  0  0  0  0  0  0  0  0  0
    3.0991    4.8166    0.8707 C   0  0  0  0  0  0  0  0  0  0  0  0
    4.2518    4.6504    0.0173 C   0  0  0  0  0  0  0  0  0  0  0  0
    5.2199    4.0445    0.7507 O   0  0  0  0  0  0  0  0  0  0  0  0
    4.8980    4.7809   -1.2023 N   0  0  0  0  0  0  0  0  0  0  0  0
    4.2977    4.9199   -2.4687 C   0  0  0  0  0  0  0  0  0  0  0  0
    6.3781    4.6459   -1.2785 C   0  0  1  0  0  0  0  0  0  0  0  0
    7.1969    5.5910   -0.5396 C   0  0  0  0  0  0  0  0  0  0  0  0
    7.1309    7.0398   -0.8128 C   0  0  0  0  0  0  0  0  0  0  0  0
    5.7888    7.6114   -0.5450 C   0  0  0  0  0  0  0  0  0  0  0  0
    7.6661    7.4121   -2.1823 C   0  0  0  0  0  0  0  0  0  0  0  0
    6.8200    3.2257   -1.3331 C   0  0  0  0  0  0  0  0  0  0  0  0
    5.8935    2.4917   -1.9044 O   0  0  0  0  0  0  0  0  0  0  0  0
    7.8740    2.4427   -0.9707 N   0  0  0  0  0  0  0  0  0  0  0  0
    8.0451    1.0634   -1.3778 C   0  0  1  0  0  0  0  0  0  0  0  0
    9.4455    0.7493   -1.8453 C   0  0  0  0  0  0  0  0  0  0  0  0
    9.7601    1.6153   -3.0401 C   0  0  0  0  0  0  0  0  0  0  0  0
   10.4908    0.9514   -0.7880 C   0  0  0  0  0  0  0  0  0  0  0  0
    7.4036    0.0096   -0.5757 C   0  0  0  0  0  0  0  0  0  0  0  0
    7.9269   -1.1349   -1.0395 O   0  0  0  0  0  0  0  0  0  0  0  0
    6.5401   -0.3871    0.3932 N   0  0  0  0  0  0  0  0  0  0  0  0
    5.6064    0.3611    1.1271 C   0  0  0  0  0  0  0  0  0  0  0  0
    6.4489   -1.8398    0.7596 C   0  0  1  0  0  0  0  0  0  0  0  0
    6.6805   -2.2169    2.1361 C   0  0  0  0  0  0  0  0  0  0  0  0
    5.8684   -1.7806    3.2850 C   0  0  0  0  0  0  0  0  0  0  0  0
    6.5379   -2.4673    4.5331 C   0  0  0  0  0  0  0  0  0  0  0  0
    4.5048   -2.4924    3.3192 C   0  0  0  0  0  0  0  0  0  0  0  0
    5.2168   -2.3744    0.0869 C   0  0  0  0  0  0  0  0  0  0  0  0
    4.5341   -1.3907   -0.4867 O   0  0  0  0  0  0  0  0  0  0  0  0
    4.5416   -3.5239   -0.1438 N   0  0  0  0  0  0  0  0  0  0  0  0
    3.3332   -3.4576   -1.0162 C   0  0  1  0  0  0  0  0  0  0  0  0
    3.5175   -4.6356   -2.0108 C   0  0  0  0  0  0  0  0  0  0  0  0
    2.0610   -3.6991   -0.3399 C   0  0  0  0  0  0  0  0  0  0  0  0
    1.0453   -3.0341   -0.8618 O   0  0  0  0  0  0  0  0  0  0  0  0
    1.5504   -4.4388    0.7098 N   0  0  0  0  0  0  0  0  0  0  0  0
    0.1286   -4.3592    1.1035 C   0  0  2  0  0  0  0  0  0  0  0  0
   -0.0251   -4.6751    2.5326 C   0  0  0  0  0  0  0  0  0  0  0  0
   -0.7873   -5.1450    0.2430 C   0  0  0  0  0  0  0  0  0  0  0  0
   -1.7966   -5.5451    0.9866 O   0  0  0  0  0  0  0  0  0  0  0  0
   -1.0675   -5.6458   -0.9900 N   0  0  0  0  0  0  0  0  0  0  0  0
   -0.3243   -5.5361   -2.2051 C   0  0  0  0  0  0  0  0  0  0  0  0
   -2.3234   -6.4348   -1.2609 C   0  0  1  0  0  0  0  0  0  0  0  0
   -2.1691   -7.7696   -0.5996 C   0  0  0  0  0  0  0  0  0  0  0  0
   -3.2812   -8.7218   -0.7649 C   0  0  0  0  0  0  0  0  0  0  0  0
   -3.6186   -9.0880   -2.1863 C   0  0  0  0  0  0  0  0  0  0  0  0
   -4.4534   -8.4436    0.1196 C   0  0  0  0  0  0  0  0  0  0  0  0
   -3.5582   -5.7178   -1.0976 C   0  0  0  0  0  0  0  0  0  0  0  0
   -3.4040   -4.6985   -0.2319 O   0  0  0  0  0  0  0  0  0  0  0  0
   -4.8889   -5.5396   -1.4237 N   0  0  0  0  0  0  0  0  0  0  0  0
   -5.6106   -6.1141   -2.4845 C   0  0  0  0  0  0  0  0  0  0  0  0
   -5.8057   -4.6327   -0.6249 C   0  0  1  0  0  0  0  0  0  0  0  0
   -6.2284   -5.4049    0.5901 C   0  0  0  0  0  0  0  0  0  0  0  0
   -7.2846   -4.6979    1.3916 C   0  0  0  0  0  0  0  0  0  0  0  0
   -8.5462   -4.5469    0.5161 C   0  0  0  0  0  0  0  0  0  0  0  0
   -7.6010   -5.3852    2.6818 C   0  0  0  0  0  0  0  0  0  0  0  0
   -5.3907   -3.2631   -0.5280 C   0  0  0  0  0  0  0  0  0  0  0  0
   -5.0767   -2.8438   -1.7699 O   0  0  0  0  0  0  0  0  0  0  0  0
   -5.1357   -2.1449    0.2342 N   0  0  0  0  0  0  0  0  0  0  0  0
   -4.8158   -2.0502    1.5989 C   0  0  0  0  0  0  0  0  0  0  0  0
   -4.9661   -0.7843   -0.4398 C   0  0  1  0  0  0  0  0  0  0  0  0
   -6.4269   -0.2661   -0.4881 C   0  0  0  0  0  0  0  0  0  0  0  0
   -7.0865   -0.1321    0.8090 C   0  0  0  0  0  0  0  0  0  0  0  0
   -6.5479    0.7880   -1.5111 C   0  0  0  0  0  0  0  0  0  0  0  0
   -3.9322    0.0184    0.1462 C   0  0  0  0  0  0  0  0  0  0  0  0
   -2.9701   -0.7387    0.6667 O   0  0  0  0  0  0  0  0  0  0  0  0
   -3.4418    1.2951    0.4346 N   0  0  0  0  0  0  0  0  0  0  0  0
   -2.2012    1.3619    1.2494 C   0  0  0  0  0  0  0  0  0  0  0  0
   -8.3216    8.2951    1.0341 H   0  0  0  0  0  0  0  0  0  0  0  0
   -6.7486    8.9333    0.3299 H   0  0  0  0  0  0  0  0  0  0  0  0
   -7.8709    7.9335   -0.6867 H   0  0  0  0  0  0  0  0  0  0  0  0
   -7.2147    6.1990    1.4387 H   0  0  0  0  0  0  0  0  0  0  0  0
   -5.2751    7.3020   -0.6180 H   0  0  0  0  0  0  0  0  0  0  0  0
   -4.7911    4.9120   -0.7523 H   0  0  0  0  0  0  0  0  0  0  0  0
   -3.7943    5.6271    0.5214 H   0  0  0  0  0  0  0  0  0  0  0  0
   -5.4108    4.7922    2.3028 H   0  0  0  0  0  0  0  0  0  0  0  0
   -7.0213    4.1831   -0.1117 H   0  0  0  0  0  0  0  0  0  0  0  0
   -7.4229    3.8592    1.5901 H   0  0  0  0  0  0  0  0  0  0  0  0
   -6.5189    2.6571    0.6711 H   0  0  0  0  0  0  0  0  0  0  0  0
   -3.4957    3.6669    2.0731 H   0  0  0  0  0  0  0  0  0  0  0  0
   -4.6787    2.1712    3.1844 H   0  0  0  0  0  0  0  0  0  0  0  0
   -4.6727    2.8613   -0.4768 H   0  0  0  0  0  0  0  0  0  0  0  0
   -1.2001    4.0084    1.1213 H   0  0  0  0  0  0  0  0  0  0  0  0
   -0.5549    4.6415   -1.6495 H   0  0  0  0  0  0  0  0  0  0  0  0
   -2.2161    6.2349   -1.1192 H   0  0  0  0  0  0  0  0  0  0  0  0
   -0.5571    7.0140   -1.1293 H   0  0  0  0  0  0  0  0  0  0  0  0
   -1.1037    6.1078    1.5827 H   0  0  0  0  0  0  0  0  0  0  0  0
   -0.6566    7.7216    0.9818 H   0  0  0  0  0  0  0  0  0  0  0  0
   -2.3721    7.2783    1.0267 H   0  0  0  0  0  0  0  0  0  0  0  0
    2.3825    7.2485   -0.7932 H   0  0  0  0  0  0  0  0  0  0  0  0
    3.2398    7.1139    0.7266 H   0  0  0  0  0  0  0  0  0  0  0  0
    1.6029    7.5826    0.8707 H   0  0  0  0  0  0  0  0  0  0  0  0
    2.8472    3.8264    1.3104 H   0  0  0  0  0  0  0  0  0  0  0  0
    3.3312    5.4120    1.8140 H   0  0  0  0  0  0  0  0  0  0  0  0
    3.8139    5.8967   -2.6686 H   0  0  0  0  0  0  0  0  0  0  0  0
    5.0883    4.9203   -3.3121 H   0  0  0  0  0  0  0  0  0  0  0  0
    3.6708    4.0558   -2.8213 H   0  0  0  0  0  0  0  0  0  0  0  0
    6.6351    4.9175   -2.3992 H   0  0  0  0  0  0  0  0  0  0  0  0
    8.2798    5.2157   -0.6137 H   0  0  0  0  0  0  0  0  0  0  0  0
    6.9990    5.4449    0.5701 H   0  0  0  0  0  0  0  0  0  0  0  0
    7.8392    7.5371   -0.0805 H   0  0  0  0  0  0  0  0  0  0  0  0
    5.8581    8.7388   -0.4131 H   0  0  0  0  0  0  0  0  0  0  0  0
    5.5305    7.2720    0.5026 H   0  0  0  0  0  0  0  0  0  0  0  0
    4.9787    7.3357   -1.1933 H   0  0  0  0  0  0  0  0  0  0  0  0
    6.8505    7.2382   -2.8918 H   0  0  0  0  0  0  0  0  0  0  0  0
    8.5457    6.7549   -2.3732 H   0  0  0  0  0  0  0  0  0  0  0  0
    8.0425    8.4395   -2.1274 H   0  0  0  0  0  0  0  0  0  0  0  0
    8.6515    2.7052   -0.3654 H   0  0  0  0  0  0  0  0  0  0  0  0
    7.4379    1.0379   -2.3717 H   0  0  0  0  0  0  0  0  0  0  0  0
    9.4747   -0.3039   -2.1538 H   0  0  0  0  0  0  0  0  0  0  0  0
   10.8291    1.9238   -2.9656 H   0  0  0  0  0  0  0  0  0  0  0  0
    9.6580    1.0128   -3.9676 H   0  0  0  0  0  0  0  0  0  0  0  0
    9.1390    2.5105   -3.0842 H   0  0  0  0  0  0  0  0  0  0  0  0
   10.5393    1.9936   -0.4294 H   0  0  0  0  0  0  0  0  0  0  0  0
   11.4765    0.6318   -1.2179 H   0  0  0  0  0  0  0  0  0  0  0  0
   10.2926    0.2332    0.0419 H   0  0  0  0  0  0  0  0  0  0  0  0
    4.7853   -0.3234    1.4849 H   0  0  0  0  0  0  0  0  0  0  0  0
    6.0481    0.9724    1.9419 H   0  0  0  0  0  0  0  0  0  0  0  0
    5.0033    1.1452    0.5947 H   0  0  0  0  0  0  0  0  0  0  0  0
    7.2500   -2.3928    0.1791 H   0  0  0  0  0  0  0  0  0  0  0  0
    7.8011   -2.0445    2.3262 H   0  0  0  0  0  0  0  0  0  0  0  0
    6.6938   -3.3620    2.2658 H   0  0  0  0  0  0  0  0  0  0  0  0
    5.7151   -0.7447    3.4908 H   0  0  0  0  0  0  0  0  0  0  0  0
    6.4792   -3.5553    4.2881 H   0  0  0  0  0  0  0  0  0  0  0  0
    5.8807   -2.2849    5.3888 H   0  0  0  0  0  0  0  0  0  0  0  0
    7.5655   -2.1336    4.6275 H   0  0  0  0  0  0  0  0  0  0  0  0
    4.6225   -3.5523    2.9698 H   0  0  0  0  0  0  0  0  0  0  0  0
    4.1197   -2.5785    4.3554 H   0  0  0  0  0  0  0  0  0  0  0  0
    3.7562   -2.0378    2.6608 H   0  0  0  0  0  0  0  0  0  0  0  0
    4.6777   -4.4596    0.1685 H   0  0  0  0  0  0  0  0  0  0  0  0
    3.2956   -2.5615   -1.6312 H   0  0  0  0  0  0  0  0  0  0  0  0
    3.1482   -4.3563   -2.9964 H   0  0  0  0  0  0  0  0  0  0  0  0
    4.5844   -4.9254   -2.0464 H   0  0  0  0  0  0  0  0  0  0  0  0
    2.9489   -5.4794   -1.5726 H   0  0  0  0  0  0  0  0  0  0  0  0
    2.0048   -5.1064    1.3109 H   0  0  0  0  0  0  0  0  0  0  0  0
   -0.1545   -3.2525    0.9524 H   0  0  0  0  0  0  0  0  0  0  0  0
   -0.9428   -5.2582    2.7731 H   0  0  0  0  0  0  0  0  0  0  0  0
    0.8136   -5.3252    2.9158 H   0  0  0  0  0  0  0  0  0  0  0  0
   -0.0037   -3.7846    3.1867 H   0  0  0  0  0  0  0  0  0  0  0  0
    0.6978   -5.9670   -2.1918 H   0  0  0  0  0  0  0  0  0  0  0  0
   -0.3672   -4.5078   -2.6764 H   0  0  0  0  0  0  0  0  0  0  0  0
   -0.8064   -6.1322   -3.0520 H   0  0  0  0  0  0  0  0  0  0  0  0
   -2.1505   -6.7033   -2.3649 H   0  0  0  0  0  0  0  0  0  0  0  0
   -1.9496   -7.7204    0.4897 H   0  0  0  0  0  0  0  0  0  0  0  0
   -1.2506   -8.2684   -1.0283 H   0  0  0  0  0  0  0  0  0  0  0  0
   -2.8586   -9.7211   -0.3445 H   0  0  0  0  0  0  0  0  0  0  0  0
   -2.7344   -9.6883   -2.5879 H   0  0  0  0  0  0  0  0  0  0  0  0
   -4.4519   -9.8125   -2.1643 H   0  0  0  0  0  0  0  0  0  0  0  0
   -3.7139   -8.2557   -2.8804 H   0  0  0  0  0  0  0  0  0  0  0  0
   -4.2582   -7.5262    0.7156 H   0  0  0  0  0  0  0  0  0  0  0  0
   -5.4105   -8.3881   -0.4191 H   0  0  0  0  0  0  0  0  0  0  0  0
   -4.6109   -9.2467    0.9124 H   0  0  0  0  0  0  0  0  0  0  0  0
   -5.2975   -5.8040   -3.5323 H   0  0  0  0  0  0  0  0  0  0  0  0
   -6.6999   -5.7188   -2.5351 H   0  0  0  0  0  0  0  0  0  0  0  0
   -5.7957   -7.2093   -2.4329 H   0  0  0  0  0  0  0  0  0  0  0  0
   -6.7658   -4.6416   -1.2450 H   0  0  0  0  0  0  0  0  0  0  0  0
   -5.3148   -5.4688    1.2576 H   0  0  0  0  0  0  0  0  0  0  0  0
   -6.4976   -6.4468    0.3637 H   0  0  0  0  0  0  0  0  0  0  0  0
   -7.0258   -3.6663    1.6232 H   0  0  0  0  0  0  0  0  0  0  0  0
   -9.3456   -4.2691    1.2063 H   0  0  0  0  0  0  0  0  0  0  0  0
   -8.7695   -5.4882    0.0041 H   0  0  0  0  0  0  0  0  0  0  0  0
   -8.3381   -3.6997   -0.1606 H   0  0  0  0  0  0  0  0  0  0  0  0
   -6.9377   -6.2284    2.8646 H   0  0  0  0  0  0  0  0  0  0  0  0
   -7.6540   -4.6580    3.5268 H   0  0  0  0  0  0  0  0  0  0  0  0
   -8.6524   -5.8005    2.6231 H   0  0  0  0  0  0  0  0  0  0  0  0
   -4.7268   -0.9670    1.9527 H   0  0  0  0  0  0  0  0  0  0  0  0
   -5.5229   -2.4188    2.3674 H   0  0  0  0  0  0  0  0  0  0  0  0
   -3.7764   -2.4496    1.8414 H   0  0  0  0  0  0  0  0  0  0  0  0
   -4.7992   -0.9068   -1.5279 H   0  0  0  0  0  0  0  0  0  0  0  0
   -6.9212   -1.2098   -1.0333 H   0  0  0  0  0  0  0  0  0  0  0  0
   -6.5297    0.4705    1.5119 H   0  0  0  0  0  0  0  0  0  0  0  0
   -7.1896   -1.1592    1.2808 H   0  0  0  0  0  0  0  0  0  0  0  0
   -8.1120    0.3127    0.6977 H   0  0  0  0  0  0  0  0  0  0  0  0
   -5.5661    1.2289   -1.8642 H   0  0  0  0  0  0  0  0  0  0  0  0
   -7.2023    1.5900   -1.1886 H   0  0  0  0  0  0  0  0  0  0  0  0
   -7.0550    0.4144   -2.4743 H   0  0  0  0  0  0  0  0  0  0  0  0
   -2.0378    0.4819    1.8923 H   0  0  0  0  0  0  0  0  0  0  0  0
   -1.3522    1.6485    0.6158 H   0  0  0  0  0  0  0  0  0  0  0  0
   -2.2739    2.1669    2.0468 H   0  0  0  0  0  0  0  0  0  0  0  0
  1  2  1  0
  2  3  2  0
  3  4  1  0
  4  5  1  0
  5  6  1  0
  5  7  1  0
  7  8  1  0
  7  9  1  0
  9 10  1  0
 10 11  2  0
 10 12  1  0
 12 13  1  0
 13 14  1  0
 14 15  1  0
 13 16  1  0
 16 17  2  0
 16 18  1  0
 18 19  1  0
 18 20  1  0
 20 21  1  0
 21 22  2  0
 21 23  1  0
 23 24  1  0
 23 25  1  0
 25 26  1  0
 26 27  1  0
 27 28  1  0
 27 29  1  0
 25 30  1  0
 30 31  2  0
 30 32  1  0
 32 33  1  0
 33 34  1  0
 34 35  1  0
 34 36  1  0
 33 37  1  0
 37 38  2  0
 37 39  1  0
 39 40  1  0
 39 41  1  0
 41 42  1  0
 42 43  1  0
 43 44  1  0
 43 45  1  0
 41 46  1  0
 46 47  2  0
 46 48  1  0
 48 49  1  0
 49 50  1  0
 49 51  1  0
 51 52  2  0
 51 53  1  0
 53 54  1  0
 54 55  1  0
 54 56  1  0
 56 57  2  0
 56 58  1  0
 58 59  1  0
 58 60  1  0
 60 61  1  0
 61 62  1  0
 62 63  1  0
 62 64  1  0
 60 65  1  0
 65 66  2  0
 65 67  1  0
 67 68  1  0
 67 69  1  0
 69 70  1  0
 70 71  1  0
 71 72  1  0
 71 73  1  0
 69 74  1  0
 74 75  2  0
 74 76  1  0
 76 77  1  0
 76 78  1  0
 78 79  1  0
 79 80  1  0
 79 81  1  0
 78 82  1  0
 82 83  2  0
 82 84  1  0
 84 85  1  0
 84  9  1  0
  1 86  1  0
  1 87  1  0
  1 88  1  0
  2 89  1  0
  3 90  1  0
  4 91  1  0
  4 92  1  0
  5 93  1  1
  6 94  1  0
  6 95  1  0
  6 96  1  0
  7 97  1  1
  8 98  1  0
  9 99  1  6
 12100  1  0
 13101  1  6
 14102  1  0
 14103  1  0
 15104  1  0
 15105  1  0
 15106  1  0
 19107  1  0
 19108  1  0
 19109  1  0
 20110  1  0
 20111  1  0
 24112  1  0
 24113  1  0
 24114  1  0
 25115  1  6
 26116  1  0
 26117  1  0
 27118  1  0
 28119  1  0
 28120  1  0
 28121  1  0
 29122  1  0
 29123  1  0
 29124  1  0
 32125  1  0
 33126  1  6
 34127  1  0
 35128  1  0
 35129  1  0
 35130  1  0
 36131  1  0
 36132  1  0
 36133  1  0
 40134  1  0
 40135  1  0
 40136  1  0
 41137  1  6
 42138  1  0
 42139  1  0
 43140  1  0
 44141  1  0
 44142  1  0
 44143  1  0
 45144  1  0
 45145  1  0
 45146  1  0
 48147  1  0
 49148  1  6
 50149  1  0
 50150  1  0
 50151  1  0
 53152  1  0
 54153  1  1
 55154  1  0
 55155  1  0
 55156  1  0
 59157  1  0
 59158  1  0
 59159  1  0
 60160  1  6
 61161  1  0
 61162  1  0
 62163  1  0
 63164  1  0
 63165  1  0
 63166  1  0
 64167  1  0
 64168  1  0
 64169  1  0
 68170  1  0
 68171  1  0
 68172  1  0
 69173  1  6
 70174  1  0
 70175  1  0
 71176  1  0
 72177  1  0
 72178  1  0
 72179  1  0
 73180  1  0
 73181  1  0
 73182  1  0
 77183  1  0
 77184  1  0
 77185  1  0
 78186  1  6
 79187  1  0
 80188  1  0
 80189  1  0
 80190  1  0
 81191  1  0
 81192  1  0
 81193  1  0
 85194  1  0
 85195  1  0
 85196  1  0
M  END
$$$$
