@<TRIPOS>MOLECULE
*****
 66 69 0 0 0
SMALL
GASTEIGER

@<TRIPOS>ATOM
      1 C          -0.0571    0.6884   -2.5789 C.3     1  UNL1       -0.0421
      2 C           0.3551   -0.4594   -1.6149 C.3     1  UNL1        0.0515
      3 C           1.7317   -0.2344   -1.1454 C.ar    1  UNL1       -0.0271
      4 C           2.7067   -1.1927   -1.4540 C.ar    1  UNL1       -0.0562
      5 C           4.0249   -1.0574   -1.0790 C.ar    1  UNL1       -0.0537
      6 C           4.4543    0.0447   -0.3712 C.ar    1  UNL1       -0.0177
      7 C           5.8595    0.1928    0.0311 C.ar    1  UNL1       -0.0114
      8 C           6.4633    1.4261    0.1489 C.ar    1  UNL1       -0.0376
      9 C           7.7724    1.5825    0.5225 C.ar    1  UNL1        0.0082
     10 N           8.5098    0.4905    0.7883 N.ar    1  UNL1       -0.3182
     11 C           9.8965    0.6389    1.1847 C.3     1  UNL1        0.0147
     12 C           7.9526   -0.7375    0.6837 C.ar    1  UNL1        0.2516
     13 O           8.6968   -1.7151    0.9460 O.2     1  UNL1       -0.2677
     14 C           6.6420   -0.9207    0.3110 C.ar    1  UNL1        0.0107
     15 C           3.5113    0.9980   -0.0587 C.ar    1  UNL1       -0.0537
     16 C           2.1704    0.8596   -0.4409 C.ar    1  UNL1       -0.0562
     17 N          -0.6415   -0.5451   -0.5661 N.am    1  UNL1       -0.2605
     18 C          -0.8013    0.4280    0.4901 C.3     1  UNL1        0.0224
     19 C          -1.9495    0.0645    1.3824 C.3     1  UNL1        0.0077
     20 C          -3.2158   -0.2857    0.5852 C.3     1  UNL1        0.1466
     21 C          -3.4108    0.7790   -0.4106 C.3     1  UNL1        0.0200
     22 C          -4.5566    0.7242   -1.3407 C.3     1  UNL1        0.0645
     23 C          -5.9219    0.7286   -0.7290 C.3     1  UNL1       -0.0362
     24 C          -4.4380   -0.3768   -2.3820 C.3     1  UNL1       -0.0362
     25 O          -4.4908    1.9248   -2.1024 O.3     1  UNL1       -0.3890
     26 C          -4.3182   -0.6345    1.4618 C.ar    1  UNL1        0.0311
     27 C          -4.8224   -1.9152    1.5406 C.ar    1  UNL1       -0.0520
     28 C          -5.8495   -2.2939    2.3546 C.ar    1  UNL1       -0.0612
     29 C          -6.4324   -1.3393    3.1591 C.ar    1  UNL1       -0.0590
     30 C          -5.9717   -0.0401    3.1249 C.ar    1  UNL1       -0.0260
     31 C          -4.9280    0.2915    2.2821 C.ar    1  UNL1        0.1303
     32 F          -4.5107    1.5603    2.2781 F       1  UNL1       -0.2051
     33 O          -2.8364   -1.4901   -0.1173 O.3     1  UNL1       -0.4386
     34 C          -1.5273   -1.6624   -0.5495 C.2     1  UNL1        0.4042
     35 O          -1.1122   -2.7970   -0.9285 O.2     1  UNL1       -0.2262
     36 H          -0.2712    1.5956   -2.0097 H       1  UNL1        0.0251
     37 H          -0.8599    0.3381   -3.2268 H       1  UNL1        0.0251
     38 H           0.8484    0.8648   -3.1984 H       1  UNL1        0.0251
     39 H           0.2617   -1.3567   -2.2553 H       1  UNL1        0.0549
     40 H           2.3727   -2.0748   -2.0181 H       1  UNL1        0.0621
     41 H           4.7601   -1.8068   -1.3264 H       1  UNL1        0.0624
     42 H           5.9021    2.3288   -0.0567 H       1  UNL1        0.0638
     43 H           8.2185    2.5839    0.6053 H       1  UNL1        0.0810
     44 H          10.5581    0.6908    0.2992 H       1  UNL1        0.0457
     45 H          10.2343   -0.2017    1.8257 H       1  UNL1        0.0457
     46 H           9.9918    1.6001    1.7257 H       1  UNL1        0.0457
     47 H           6.1930   -1.9003    0.2263 H       1  UNL1        0.0678
     48 H           3.8456    1.8638    0.4966 H       1  UNL1        0.0624
     49 H           1.4831    1.6333   -0.1889 H       1  UNL1        0.0621
     50 H           0.1076    0.3778    1.1795 H       1  UNL1        0.0467
     51 H          -0.8864    1.4471    0.0644 H       1  UNL1        0.0467
     52 H          -2.1711    0.9808    1.9940 H       1  UNL1        0.0322
     53 H          -1.6350   -0.7836    2.0139 H       1  UNL1        0.0322
     54 H          -3.4688    1.7932    0.0972 H       1  UNL1        0.0335
     55 H          -2.4947    0.9057   -1.0615 H       1  UNL1        0.0335
     56 H          -6.0415    1.5833   -0.0389 H       1  UNL1        0.0257
     57 H          -6.2224   -0.2489   -0.3276 H       1  UNL1        0.0257
     58 H          -6.6972    0.9353   -1.5316 H       1  UNL1        0.0257
     59 H          -4.8447   -0.0409   -3.3734 H       1  UNL1        0.0257
     60 H          -5.0985   -1.2166   -2.0711 H       1  UNL1        0.0257
     61 H          -3.3995   -0.6738   -2.5671 H       1  UNL1        0.0257
     62 H          -5.3310    2.0144   -2.5996 H       1  UNL1        0.2101
     63 H          -4.3847   -2.7085    0.9140 H       1  UNL1        0.0622
     64 H          -6.2096   -3.3125    2.3805 H       1  UNL1        0.0618
     65 H          -7.2577   -1.6115    3.8226 H       1  UNL1        0.0618
     66 H          -6.4583    0.6746    3.7725 H       1  UNL1        0.0646
@<TRIPOS>BOND
     1     1     2    1
     2     2     3    1
     3     3     4   ar
     4     4     5   ar
     5     5     6   ar
     6     6     7    1
     7     7     8   ar
     8     8     9   ar
     9     9    10   ar
    10    10    11    1
    11    10    12   ar
    12    12    13    2
    13    12    14   ar
    14     6    15   ar
    15    15    16   ar
    16     2    17    1
    17    17    18    1
    18    18    19    1
    19    19    20    1
    20    20    21    1
    21    21    22    1
    22    22    23    1
    23    22    24    1
    24    22    25    1
    25    20    26    1
    26    26    27   ar
    27    27    28   ar
    28    28    29   ar
    29    29    30   ar
    30    30    31   ar
    31    31    32    1
    32    20    33    1
    33    33    34    1
    34    34    35    2
    35    16     3   ar
    36    34    17   am
    37    14     7   ar
    38    31    26   ar
    39     1    36    1
    40     1    37    1
    41     1    38    1
    42     2    39    1
    43     4    40    1
    44     5    41    1
    45     8    42    1
    46     9    43    1
    47    11    44    1
    48    11    45    1
    49    11    46    1
    50    14    47    1
    51    15    48    1
    52    16    49    1
    53    18    50    1
    54    18    51    1
    55    19    52    1
    56    19    53    1
    57    21    54    1
    58    21    55    1
    59    23    56    1
    60    23    57    1
    61    23    58    1
    62    24    59    1
    63    24    60    1
    64    24    61    1
    65    25    62    1
    66    27    63    1
    67    28    64    1
    68    29    65    1
    69    30    66    1
