@<TRIPOS>MOLECULE
*****
 49 51 0 0 0
SMALL
GASTEIGER

@<TRIPOS>ATOM
      1 C           1.6018   -2.8335    2.1705 C.3     1  UNL1        0.0788
      2 O           2.2733   -1.9250    1.3207 O.3     1  UNL1       -0.4947
      3 C           1.5222   -1.0313    0.5700 C.ar    1  UNL1        0.1285
      4 C           0.1378   -1.0127    0.6370 C.ar    1  UNL1       -0.0116
      5 C          -0.6090   -0.1416   -0.0944 C.ar    1  UNL1       -0.0090
      6 C          -2.0608   -0.0802   -0.0800 C.ar    1  UNL1        0.0065
      7 C          -2.7198    1.1117    0.2463 C.ar    1  UNL1        0.0159
      8 N          -4.0566    1.2106    0.3071 N.ar    1  UNL1       -0.3171
      9 C          -4.7229    2.4681    0.6501 C.3     1  UNL1        0.0147
     10 C          -4.8011    0.1266    0.0455 C.ar    1  UNL1        0.2603
     11 O          -6.0618    0.1782    0.0928 O.2     1  UNL1       -0.2670
     12 C          -4.2042   -1.0738   -0.2824 C.ar    1  UNL1        0.0653
     13 C          -4.9499   -2.1982   -0.5648 C.ar    1  UNL1        0.0405
     14 N          -4.3784   -3.3691   -0.8947 N.ar    1  UNL1       -0.2625
     15 C          -3.0398   -3.4706   -0.9579 C.ar    1  UNL1        0.0282
     16 C          -2.2148   -2.3987   -0.6914 C.ar    1  UNL1       -0.0351
     17 C          -2.8184   -1.1935   -0.3502 C.ar    1  UNL1       -0.0007
     18 C           0.0430    0.7652   -0.9410 C.ar    1  UNL1       -0.0116
     19 C           1.4180    0.7782   -1.0352 C.ar    1  UNL1        0.1285
     20 O           2.0976    1.6619   -1.8629 O.3     1  UNL1       -0.4947
     21 C           1.3295    2.5766   -2.6306 C.3     1  UNL1        0.0788
     22 C           2.1478   -0.1285   -0.2718 C.ar    1  UNL1        0.0497
     23 C           3.6096   -0.1480   -0.3466 C.3     1  UNL1        0.0304
     24 N           4.2039    0.4717    0.8206 N.3     1  UNL1       -0.3039
     25 C           5.6378    0.4637    0.7814 C.3     1  UNL1       -0.0127
     26 C           3.7129    1.8215    1.0201 C.3     1  UNL1       -0.0127
     27 H           1.0483   -3.6230    1.5830 H       1  UNL1        0.0660
     28 H           0.8528   -2.3541    2.8251 H       1  UNL1        0.0660
     29 H           2.3291   -3.4203    2.7898 H       1  UNL1        0.0660
     30 H          -0.3450   -1.7158    1.3051 H       1  UNL1        0.0660
     31 H          -2.1208    1.9782    0.4551 H       1  UNL1        0.0816
     32 H          -3.9630    3.2391    0.8174 H       1  UNL1        0.0457
     33 H          -5.3921    2.3351    1.5181 H       1  UNL1        0.0457
     34 H          -5.2843    2.7592   -0.2681 H       1  UNL1        0.0457
     35 H          -6.0274   -2.0882   -0.5070 H       1  UNL1        0.0837
     36 H          -2.5491   -4.3993   -1.2210 H       1  UNL1        0.0830
     37 H          -1.1245   -2.5048   -0.7632 H       1  UNL1        0.0639
     38 H          -0.5324    1.4613   -1.5267 H       1  UNL1        0.0660
     39 H           0.6206    2.0682   -3.3073 H       1  UNL1        0.0660
     40 H           0.6980    3.1988   -1.9363 H       1  UNL1        0.0660
     41 H           1.9625    3.2510   -3.2248 H       1  UNL1        0.0660
     42 H           3.9735   -1.2037   -0.3529 H       1  UNL1        0.0478
     43 H           3.9433    0.4017   -1.2491 H       1  UNL1        0.0478
     44 H           6.0428    1.2900    1.3945 H       1  UNL1        0.0391
     45 H           6.0168   -0.5406    1.1169 H       1  UNL1        0.0391
     46 H           5.9717    0.6481   -0.2632 H       1  UNL1        0.0391
     47 H           4.1002    2.4605    0.2015 H       1  UNL1        0.0391
     48 H           2.6089    1.8765    0.9808 H       1  UNL1        0.0391
     49 H           4.0726    2.2530    1.9739 H       1  UNL1        0.0391
@<TRIPOS>BOND
     1     1     2    1
     2     2     3    1
     3     3     4   ar
     4     4     5   ar
     5     5     6    1
     6     6     7   ar
     7     7     8   ar
     8     8     9    1
     9     8    10   ar
    10    10    11    2
    11    10    12   ar
    12    12    13   ar
    13    13    14   ar
    14    14    15   ar
    15    15    16   ar
    16    16    17   ar
    17     5    18   ar
    18    18    19   ar
    19    19    20    1
    20    20    21    1
    21    19    22   ar
    22    22    23    1
    23    23    24    1
    24    24    25    1
    25    24    26    1
    26    22     3   ar
    27    17     6   ar
    28    17    12   ar
    29     1    27    1
    30     1    28    1
    31     1    29    1
    32     4    30    1
    33     7    31    1
    34     9    32    1
    35     9    33    1
    36     9    34    1
    37    13    35    1
    38    15    36    1
    39    16    37    1
    40    18    38    1
    41    21    39    1
    42    21    40    1
    43    21    41    1
    44    23    42    1
    45    23    43    1
    46    25    44    1
    47    25    45    1
    48    25    46    1
    49    26    47    1
    50    26    48    1
    51    26    49    1
