
     RDKit          3D

 49 51  0  0  0  0  0  0  0  0999 V2000
    1.6018   -2.8335    2.1705 C   0  0  0  0  0  0  0  0  0  0  0  0
    2.2733   -1.9250    1.3207 O   0  0  0  0  0  0  0  0  0  0  0  0
    1.5222   -1.0313    0.5700 C   0  0  0  0  0  0  0  0  0  0  0  0
    0.1378   -1.0127    0.6370 C   0  0  0  0  0  0  0  0  0  0  0  0
   -0.6090   -0.1416   -0.0944 C   0  0  0  0  0  0  0  0  0  0  0  0
   -2.0608   -0.0802   -0.0800 C   0  0  0  0  0  0  0  0  0  0  0  0
   -2.7198    1.1117    0.2463 C   0  0  0  0  0  0  0  0  0  0  0  0
   -4.0566    1.2106    0.3071 N   0  0  0  0  0  0  0  0  0  0  0  0
   -4.7229    2.4681    0.6501 C   0  0  0  0  0  0  0  0  0  0  0  0
   -4.8011    0.1266    0.0455 C   0  0  0  0  0  0  0  0  0  0  0  0
   -6.0618    0.1782    0.0928 O   0  0  0  0  0  0  0  0  0  0  0  0
   -4.2042   -1.0738   -0.2824 C   0  0  0  0  0  0  0  0  0  0  0  0
   -4.9499   -2.1982   -0.5648 C   0  0  0  0  0  0  0  0  0  0  0  0
   -4.3784   -3.3691   -0.8947 N   0  0  0  0  0  0  0  0  0  0  0  0
   -3.0398   -3.4706   -0.9579 C   0  0  0  0  0  0  0  0  0  0  0  0
   -2.2148   -2.3987   -0.6914 C   0  0  0  0  0  0  0  0  0  0  0  0
   -2.8184   -1.1935   -0.3502 C   0  0  0  0  0  0  0  0  0  0  0  0
    0.0430    0.7652   -0.9410 C   0  0  0  0  0  0  0  0  0  0  0  0
    1.4180    0.7782   -1.0352 C   0  0  0  0  0  0  0  0  0  0  0  0
    2.0976    1.6619   -1.8629 O   0  0  0  0  0  0  0  0  0  0  0  0
    1.3295    2.5766   -2.6306 C   0  0  0  0  0  0  0  0  0  0  0  0
    2.1478   -0.1285   -0.2718 C   0  0  0  0  0  0  0  0  0  0  0  0
    3.6096   -0.1480   -0.3466 C   0  0  0  0  0  0  0  0  0  0  0  0
    4.2039    0.4717    0.8206 N   0  0  0  0  0  0  0  0  0  0  0  0
    5.6378    0.4637    0.7814 C   0  0  0  0  0  0  0  0  0  0  0  0
    3.7129    1.8215    1.0201 C   0  0  0  0  0  0  0  0  0  0  0  0
    1.0483   -3.6230    1.5830 H   0  0  0  0  0  0  0  0  0  0  0  0
    0.8528   -2.3541    2.8251 H   0  0  0  0  0  0  0  0  0  0  0  0
    2.3291   -3.4203    2.7898 H   0  0  0  0  0  0  0  0  0  0  0  0
   -0.3450   -1.7158    1.3051 H   0  0  0  0  0  0  0  0  0  0  0  0
   -2.1208    1.9782    0.4551 H   0  0  0  0  0  0  0  0  0  0  0  0
   -3.9630    3.2391    0.8174 H   0  0  0  0  0  0  0  0  0  0  0  0
   -5.3921    2.3351    1.5181 H   0  0  0  0  0  0  0  0  0  0  0  0
   -5.2843    2.7592   -0.2681 H   0  0  0  0  0  0  0  0  0  0  0  0
   -6.0274   -2.0882   -0.5070 H   0  0  0  0  0  0  0  0  0  0  0  0
   -2.5491   -4.3993   -1.2210 H   0  0  0  0  0  0  0  0  0  0  0  0
   -1.1245   -2.5048   -0.7632 H   0  0  0  0  0  0  0  0  0  0  0  0
   -0.5324    1.4613   -1.5267 H   0  0  0  0  0  0  0  0  0  0  0  0
    0.6206    2.0682   -3.3073 H   0  0  0  0  0  0  0  0  0  0  0  0
    0.6980    3.1988   -1.9363 H   0  0  0  0  0  0  0  0  0  0  0  0
    1.9625    3.2510   -3.2248 H   0  0  0  0  0  0  0  0  0  0  0  0
    3.9735   -1.2037   -0.3529 H   0  0  0  0  0  0  0  0  0  0  0  0
    3.9433    0.4017   -1.2491 H   0  0  0  0  0  0  0  0  0  0  0  0
    6.0428    1.2900    1.3945 H   0  0  0  0  0  0  0  0  0  0  0  0
    6.0168   -0.5406    1.1169 H   0  0  0  0  0  0  0  0  0  0  0  0
    5.9717    0.6481   -0.2632 H   0  0  0  0  0  0  0  0  0  0  0  0
    4.1002    2.4605    0.2015 H   0  0  0  0  0  0  0  0  0  0  0  0
    2.6089    1.8765    0.9808 H   0  0  0  0  0  0  0  0  0  0  0  0
    4.0726    2.2530    1.9739 H   0  0  0  0  0  0  0  0  0  0  0  0
  1  2  1  0
  2  3  1  0
  3  4  2  0
  4  5  1  0
  5  6  1  0
  6  7  2  0
  7  8  1  0
  8  9  1  0
  8 10  1  0
 10 11  2  0
 10 12  1  0
 12 13  2  0
 13 14  1  0
 14 15  2  0
 15 16  1  0
 16 17  2  0
  5 18  2  0
 18 19  1  0
 19 20  1  0
 20 21  1  0
 19 22  2  0
 22 23  1  0
 23 24  1  0
 24 25  1  0
 24 26  1  0
 22  3  1  0
 17  6  1  0
 17 12  1  0
  1 27  1  0
  1 28  1  0
  1 29  1  0
  4 30  1  0
  7 31  1  0
  9 32  1  0
  9 33  1  0
  9 34  1  0
 13 35  1  0
 15 36  1  0
 16 37  1  0
 18 38  1  0
 21 39  1  0
 21 40  1  0
 21 41  1  0
 23 42  1  0
 23 43  1  0
 25 44  1  0
 25 45  1  0
 25 46  1  0
 26 47  1  0
 26 48  1  0
 26 49  1  0
M  END
$$$$
