@<TRIPOS>MOLECULE
*****
 44 48 0 0 0
SMALL
GASTEIGER

@<TRIPOS>ATOM
      1 N          -5.8068    0.5139   -2.0755 N.pl3   1  UNL1       -0.3134
      2 C          -4.9294    0.5586   -0.9512 C.2     1  UNL1        0.2764
      3 N          -3.6900    0.2385   -1.0484 N.2     1  UNL1       -0.2194
      4 C          -2.8719    0.3214    0.1727 C.3     1  UNL1        0.1603
      5 C          -1.6346   -0.4696   -0.0073 C.ar    1  UNL1        0.0228
      6 C          -0.4104    0.0960    0.0923 C.ar    1  UNL1       -0.0321
      7 C           0.7633   -0.6749   -0.0742 C.ar    1  UNL1        0.0329
      8 N           2.0178   -0.0294    0.0563 N.pl3   1  UNL1       -0.2976
      9 C           3.2216   -0.5244   -0.4616 C.ar    1  UNL1        0.1523
     10 N           3.3598   -1.6382   -1.1894 N.ar    1  UNL1       -0.2184
     11 C           4.5346   -2.0826   -1.6705 C.ar    1  UNL1        0.1188
     12 N           5.6759   -1.3955   -1.4303 N.ar    1  UNL1       -0.2337
     13 C           5.6373   -0.2616   -0.7067 C.ar    1  UNL1        0.0957
     14 C           6.8013    0.4351   -0.4639 C.ar    1  UNL1       -0.0142
     15 C           6.7301    1.5899    0.2787 C.ar    1  UNL1        0.0611
     16 CL          8.1689    2.5370    0.6325 Cl      1  UNL1       -0.0819
     17 C           5.4849    1.9803    0.7377 C.ar    1  UNL1        0.0468
     18 N           4.3633    1.2889    0.4911 N.ar    1  UNL1       -0.2485
     19 C           4.4186    0.1669   -0.2282 C.ar    1  UNL1        0.1291
     20 C           0.5952   -2.0066   -0.3374 C.ar    1  UNL1       -0.0378
     21 C          -0.6411   -2.6368   -0.4499 C.ar    1  UNL1       -0.0243
     22 C          -1.7457   -1.8408   -0.2796 C.ar    1  UNL1        0.1292
     23 F          -2.9628   -2.4512   -0.3973 F       1  UNL1       -0.2051
     24 C          -2.5527    1.7734    0.3904 C.3     1  UNL1        0.2686
     25 F          -1.8599    2.2500   -0.6996 F       1  UNL1       -0.2062
     26 F          -1.8237    2.0353    1.5234 F       1  UNL1       -0.2062
     27 C          -3.6345   -0.2764    1.3165 C.3     1  UNL1        0.0344
     28 C          -4.0908    0.5674    2.4509 C.3     1  UNL1       -0.0064
     29 C          -5.0509    0.1518    1.4067 C.3     1  UNL1        0.1091
     30 O          -5.3806    0.9509    0.2997 O.2     1  UNL1       -0.4622
     31 H          -5.8640    1.3591   -2.6704 H       1  UNL1        0.1466
     32 H          -6.3814   -0.3106   -2.3223 H       1  UNL1        0.1466
     33 H          -0.2274    1.1501    0.3000 H       1  UNL1        0.0640
     34 H           2.0499    0.8885    0.5831 H       1  UNL1        0.1536
     35 H           4.5864   -3.0004   -2.2596 H       1  UNL1        0.1048
     36 H           7.7553    0.1078   -0.8326 H       1  UNL1        0.0654
     37 H           5.4073    2.8907    1.3272 H       1  UNL1        0.0844
     38 H           1.4693   -2.6536   -0.4654 H       1  UNL1        0.0637
     39 H          -0.7086   -3.6997   -0.6603 H       1  UNL1        0.0647
     40 H          -3.4961    2.3906    0.4123 H       1  UNL1        0.1047
     41 H          -3.4307   -1.3453    1.5144 H       1  UNL1        0.0366
     42 H          -4.1996    0.0298    3.4240 H       1  UNL1        0.0306
     43 H          -3.7920    1.6133    2.5936 H       1  UNL1        0.0306
     44 H          -5.8553   -0.5879    1.6781 H       1  UNL1        0.0737
@<TRIPOS>BOND
     1     1     2    1
     2     2     3    2
     3     3     4    1
     4     4     5    1
     5     5     6   ar
     6     6     7   ar
     7     7     8    1
     8     8     9    1
     9     9    10   ar
    10    10    11   ar
    11    11    12   ar
    12    12    13   ar
    13    13    14   ar
    14    14    15   ar
    15    15    16    1
    16    15    17   ar
    17    17    18   ar
    18    18    19   ar
    19     7    20   ar
    20    20    21   ar
    21    21    22   ar
    22    22    23    1
    23     4    24    1
    24    24    25    1
    25    24    26    1
    26     4    27    1
    27    27    28    1
    28    28    29    1
    29    29    30    1
    30    30     2    1
    31    22     5   ar
    32    29    27    1
    33    19     9   ar
    34    19    13   ar
    35     1    31    1
    36     1    32    1
    37     6    33    1
    38     8    34    1
    39    11    35    1
    40    14    36    1
    41    17    37    1
    42    20    38    1
    43    21    39    1
    44    24    40    1
    45    27    41    1
    46    28    42    1
    47    28    43    1
    48    29    44    1
