
     RDKit          3D

 44 48  0  0  0  0  0  0  0  0999 V2000
   -5.8068    0.5139   -2.0755 N   0  0  0  0  0  0  0  0  0  0  0  0
   -4.9294    0.5586   -0.9512 C   0  0  0  0  0  0  0  0  0  0  0  0
   -3.6900    0.2385   -1.0484 N   0  0  0  0  0  0  0  0  0  0  0  0
   -2.8719    0.3214    0.1727 C   0  0  1  0  0  0  0  0  0  0  0  0
   -1.6346   -0.4696   -0.0073 C   0  0  0  0  0  0  0  0  0  0  0  0
   -0.4104    0.0960    0.0923 C   0  0  0  0  0  0  0  0  0  0  0  0
    0.7633   -0.6749   -0.0742 C   0  0  0  0  0  0  0  0  0  0  0  0
    2.0178   -0.0294    0.0563 N   0  0  0  0  0  0  0  0  0  0  0  0
    3.2216   -0.5244   -0.4616 C   0  0  0  0  0  0  0  0  0  0  0  0
    3.3598   -1.6382   -1.1894 N   0  0  0  0  0  0  0  0  0  0  0  0
    4.5346   -2.0826   -1.6705 C   0  0  0  0  0  0  0  0  0  0  0  0
    5.6759   -1.3955   -1.4303 N   0  0  0  0  0  0  0  0  0  0  0  0
    5.6373   -0.2616   -0.7067 C   0  0  0  0  0  0  0  0  0  0  0  0
    6.8013    0.4351   -0.4639 C   0  0  0  0  0  0  0  0  0  0  0  0
    6.7301    1.5899    0.2787 C   0  0  0  0  0  0  0  0  0  0  0  0
    8.1689    2.5370    0.6325 Cl  0  0  0  0  0  0  0  0  0  0  0  0
    5.4849    1.9803    0.7377 C   0  0  0  0  0  0  0  0  0  0  0  0
    4.3633    1.2889    0.4911 N   0  0  0  0  0  0  0  0  0  0  0  0
    4.4186    0.1669   -0.2282 C   0  0  0  0  0  0  0  0  0  0  0  0
    0.5952   -2.0066   -0.3374 C   0  0  0  0  0  0  0  0  0  0  0  0
   -0.6411   -2.6368   -0.4499 C   0  0  0  0  0  0  0  0  0  0  0  0
   -1.7457   -1.8408   -0.2796 C   0  0  0  0  0  0  0  0  0  0  0  0
   -2.9628   -2.4512   -0.3973 F   0  0  0  0  0  0  0  0  0  0  0  0
   -2.5527    1.7734    0.3904 C   0  0  0  0  0  0  0  0  0  0  0  0
   -1.8599    2.2500   -0.6996 F   0  0  0  0  0  0  0  0  0  0  0  0
   -1.8237    2.0353    1.5234 F   0  0  0  0  0  0  0  0  0  0  0  0
   -3.6345   -0.2764    1.3165 C   0  0  1  0  0  0  0  0  0  0  0  0
   -4.0908    0.5674    2.4509 C   0  0  0  0  0  0  0  0  0  0  0  0
   -5.0509    0.1518    1.4067 C   0  0  1  0  0  0  0  0  0  0  0  0
   -5.3806    0.9509    0.2997 O   0  0  0  0  0  0  0  0  0  0  0  0
   -5.8640    1.3591   -2.6704 H   0  0  0  0  0  0  0  0  0  0  0  0
   -6.3814   -0.3106   -2.3223 H   0  0  0  0  0  0  0  0  0  0  0  0
   -0.2274    1.1501    0.3000 H   0  0  0  0  0  0  0  0  0  0  0  0
    2.0499    0.8885    0.5831 H   0  0  0  0  0  0  0  0  0  0  0  0
    4.5864   -3.0004   -2.2596 H   0  0  0  0  0  0  0  0  0  0  0  0
    7.7553    0.1078   -0.8326 H   0  0  0  0  0  0  0  0  0  0  0  0
    5.4073    2.8907    1.3272 H   0  0  0  0  0  0  0  0  0  0  0  0
    1.4693   -2.6536   -0.4654 H   0  0  0  0  0  0  0  0  0  0  0  0
   -0.7086   -3.6997   -0.6603 H   0  0  0  0  0  0  0  0  0  0  0  0
   -3.4961    2.3906    0.4123 H   0  0  0  0  0  0  0  0  0  0  0  0
   -3.4307   -1.3453    1.5144 H   0  0  0  0  0  0  0  0  0  0  0  0
   -4.1996    0.0298    3.4240 H   0  0  0  0  0  0  0  0  0  0  0  0
   -3.7920    1.6133    2.5936 H   0  0  0  0  0  0  0  0  0  0  0  0
   -5.8553   -0.5879    1.6781 H   0  0  0  0  0  0  0  0  0  0  0  0
  1  2  1  0
  2  3  2  0
  3  4  1  0
  4  5  1  0
  5  6  2  0
  6  7  1  0
  7  8  1  0
  8  9  1  0
  9 10  2  0
 10 11  1  0
 11 12  2  0
 12 13  1  0
 13 14  2  0
 14 15  1  0
 15 16  1  0
 15 17  2  0
 17 18  1  0
 18 19  2  0
  7 20  2  0
 20 21  1  0
 21 22  2  0
 22 23  1  0
  4 24  1  1
 24 25  1  0
 24 26  1  0
  4 27  1  0
 27 28  1  0
 28 29  1  0
 29 30  1  0
 30  2  1  0
 22  5  1  0
 29 27  1  0
 19  9  1  0
 19 13  1  0
  1 31  1  0
  1 32  1  0
  6 33  1  0
  8 34  1  0
 11 35  1  0
 14 36  1  0
 17 37  1  0
 20 38  1  0
 21 39  1  0
 24 40  1  0
 27 41  1  1
 28 42  1  0
 28 43  1  0
 29 44  1  1
M  END
$$$$
