@<TRIPOS>MOLECULE
*****
 39 39 0 0 0
SMALL
GASTEIGER

@<TRIPOS>ATOM
      1 O           3.1888   -0.2886   -1.6636 O.3     1  SER1       -0.3934
      2 C           2.8567   -1.2517   -0.7366 C.3     1  SER1        0.0617
      3 CA          2.4762   -0.6465    0.5684 C.3     1  SER1        0.0544
      4 CB          3.7367    0.1420    1.0132 C.3     1  SER1        0.0617
      5 OG          3.8866    1.2258    0.1368 O.3     1  SER1       -0.3934
      6 N           1.4097    0.2485    0.6560 N.3     1  SER1       -0.3039
      7 C           0.0967   -0.0852    0.2790 C.3     0  UNK0        0.0392
      8 C          -0.9140    0.9037    0.9042 C.3     0  UNK0       -0.0014
      9 C          -2.3170    0.4081    0.7344 C.3     0  UNK0        0.1186
     10 O          -3.1952    1.5044    0.6225 O.3     0  UNK0       -0.3836
     11 C          -2.7994   -0.3797    1.9301 C.3     0  UNK0        0.0755
     12 O          -2.7409    0.4604    3.0618 O.3     0  UNK0       -0.3921
     13 C          -2.3800   -0.4595   -0.5017 C.3     0  UNK0        0.1143
     14 O          -3.6801   -0.5350   -1.0060 O.3     0  UNK0       -0.3862
     15 C          -1.4994    0.0380   -1.5965 C.3     0  UNK0        0.1110
     16 O          -1.6468   -0.7793   -2.7126 O.3     0  UNK0       -0.3865
     17 C          -0.0277    0.0812   -1.2493 C.3     0  UNK0        0.0989
     18 O           0.5597    1.2695   -1.6797 O.3     0  UNK0       -0.3876
     19 H           2.7239   -0.3841   -2.5165 H       1  SER1        0.2095
     20 H1          2.2342   -2.0803   -1.0965 H       1  SER1        0.0573
     21 H2          3.8578   -1.7856   -0.5147 H       1  SER1        0.0573
     22 HA          2.4259   -1.4934    1.3119 H       1  SER1        0.0506
     23 HB1         4.6406   -0.4804    0.9136 H       1  SER1        0.0573
     24 HB2         3.6082    0.5554    2.0129 H       1  SER1        0.0573
     25 H           4.0044    2.0846    0.6010 H       1  SER1        0.2095
     26 H           1.5276    1.0858    1.2387 H       1  SER1        0.1227
     27 H          -0.2608   -1.0934    0.5202 H       0  UNK0        0.0488
     28 H          -0.6959    0.9853    1.9851 H       0  UNK0        0.0310
     29 H          -0.8339    1.9065    0.4564 H       0  UNK0        0.0310
     30 H          -4.0415    1.2086    0.1990 H       0  UNK0        0.2104
     31 H          -2.2132   -1.2877    2.1418 H       0  UNK0        0.0587
     32 H          -3.8379   -0.6964    1.7542 H       0  UNK0        0.0587
     33 H          -2.5417    1.3965    2.7808 H       0  UNK0        0.2095
     34 H          -2.1162   -1.4858   -0.1995 H       0  UNK0        0.0650
     35 H          -3.6832   -0.5160   -2.0156 H       0  UNK0        0.2100
     36 H          -1.8382    1.0599   -1.8731 H       0  UNK0        0.0646
     37 H          -1.5080   -1.7230   -2.4591 H       0  UNK0        0.2100
     38 H           0.4808   -0.7492   -1.7266 H       0  UNK0        0.0636
     39 H           1.0562    1.6369   -0.9102 H       0  UNK0        0.2100
@<TRIPOS>BOND
     1     1     2    1
     2     2     3    1
     3     3     4    1
     4     4     5    1
     5     3     6    1
     6     6     7    1
     7     7     8    1
     8     8     9    1
     9     9    10    1
    10     9    11    1
    11    11    12    1
    12     9    13    1
    13    13    14    1
    14    13    15    1
    15    15    16    1
    16    15    17    1
    17    17    18    1
    18    17     7    1
    19     1    19    1
    20     2    20    1
    21     2    21    1
    22     3    22    1
    23     4    23    1
    24     4    24    1
    25     5    25    1
    26     6    26    1
    27     7    27    1
    28     8    28    1
    29     8    29    1
    30    10    30    1
    31    11    31    1
    32    11    32    1
    33    12    33    1
    34    13    34    1
    35    14    35    1
    36    15    36    1
    37    16    37    1
    38    17    38    1
    39    18    39    1
