
     RDKit          3D

 35 37  0  0  0  0  0  0  0  0999 V2000
    5.8215   -0.8284    0.9349 C   0  0  0  0  0  0  0  0  0  0  0  0
    5.5007   -0.3312   -0.4406 C   0  0  0  0  0  0  0  0  0  0  0  0
    4.2113    0.3197   -0.5434 N   0  0  0  0  0  0  0  0  0  0  0  0
    3.0319   -0.3968   -0.2266 C   0  0  0  0  0  0  0  0  0  0  0  0
    3.0938   -1.5962    0.1439 O   0  0  0  0  0  0  0  0  0  0  0  0
    1.7596    0.2204   -0.3191 C   0  0  0  0  0  0  0  0  0  0  0  0
    0.4514   -0.0636   -0.1239 C   0  0  0  0  0  0  0  0  0  0  0  0
   -0.5595    0.8196   -0.3210 C   0  0  0  0  0  0  0  0  0  0  0  0
   -1.9033    0.6447   -0.1380 C   0  0  0  0  0  0  0  0  0  0  0  0
   -2.6600    1.7130   -0.3934 N   0  0  0  0  0  0  0  0  0  0  0  0
   -2.2955    2.9178   -0.8005 C   0  0  0  0  0  0  0  0  0  0  0  0
   -3.2479    3.9480   -1.0271 N   0  0  0  0  0  0  0  0  0  0  0  0
   -0.9814    3.0910   -0.9820 N   0  0  0  0  0  0  0  0  0  0  0  0
   -0.1758    2.0778   -0.7472 C   0  0  0  0  0  0  0  0  0  0  0  0
    1.6028    2.0147   -0.8714 S   0  0  0  0  0  0  0  0  0  0  0  0
   -2.6113   -0.5266    0.3159 C   0  0  0  0  0  0  0  0  0  0  0  0
   -3.9565   -0.3687    0.6323 C   0  0  0  0  0  0  0  0  0  0  0  0
   -4.7680    1.2036    0.5335 Cl  0  0  0  0  0  0  0  0  0  0  0  0
   -4.8109   -1.3636    1.0518 C   0  0  0  0  0  0  0  0  0  0  0  0
   -4.3554   -2.6432    1.1890 C   0  0  0  0  0  0  0  0  0  0  0  0
   -5.3762   -3.9485    1.7160 Cl  0  0  0  0  0  0  0  0  0  0  0  0
   -3.0346   -2.8929    0.8959 C   0  0  0  0  0  0  0  0  0  0  0  0
   -2.2725   -1.8344    0.4872 C   0  0  0  0  0  0  0  0  0  0  0  0
    6.4469   -1.7617    0.8167 H   0  0  0  0  0  0  0  0  0  0  0  0
    4.9096   -1.0380    1.4913 H   0  0  0  0  0  0  0  0  0  0  0  0
    6.4875   -0.0922    1.4614 H   0  0  0  0  0  0  0  0  0  0  0  0
    5.5876   -1.1789   -1.1694 H   0  0  0  0  0  0  0  0  0  0  0  0
    6.3067    0.3713   -0.7513 H   0  0  0  0  0  0  0  0  0  0  0  0
    4.1733    1.3153   -0.8514 H   0  0  0  0  0  0  0  0  0  0  0  0
    0.4550   -1.0732    0.2130 H   0  0  0  0  0  0  0  0  0  0  0  0
   -3.8789    3.6317   -1.8131 H   0  0  0  0  0  0  0  0  0  0  0  0
   -3.2199    4.8334   -0.4377 H   0  0  0  0  0  0  0  0  0  0  0  0
   -5.8428   -1.2210    1.2921 H   0  0  0  0  0  0  0  0  0  0  0  0
   -2.6192   -3.8828    0.9854 H   0  0  0  0  0  0  0  0  0  0  0  0
   -1.2701   -2.0800    0.2399 H   0  0  0  0  0  0  0  0  0  0  0  0
  1  2  1  0
  2  3  1  0
  3  4  1  0
  4  5  2  0
  4  6  1  0
  6  7  2  0
  7  8  1  0
  8  9  2  0
  9 10  1  0
 10 11  2  0
 11 12  1  0
 11 13  1  0
 13 14  2  0
 14 15  1  0
  9 16  1  0
 16 17  2  0
 17 18  1  0
 17 19  1  0
 19 20  2  0
 20 21  1  0
 20 22  1  0
 22 23  2  0
 15  6  1  0
 23 16  1  0
 14  8  1  0
  1 24  1  0
  1 25  1  0
  1 26  1  0
  2 27  1  0
  2 28  1  0
  3 29  1  0
  7 30  1  0
 12 31  1  0
 12 32  1  0
 19 33  1  0
 22 34  1  0
 23 35  1  0
M  END
$$$$
