@<TRIPOS>MOLECULE
*****
 35 37 0 0 0
SMALL
GASTEIGER

@<TRIPOS>ATOM
      1 C           5.8215   -0.8284    0.9349 C.3     1  UNL1       -0.0495
      2 C           5.5007   -0.3312   -0.4406 C.3     1  UNL1        0.0091
      3 N           4.2113    0.3197   -0.5434 N.am    1  UNL1       -0.3112
      4 C           3.0319   -0.3968   -0.2266 C.2     1  UNL1        0.2508
      5 O           3.0938   -1.5962    0.1439 O.2     1  UNL1       -0.2696
      6 C           1.7596    0.2204   -0.3191 C.ar    1  UNL1        0.0765
      7 C           0.4514   -0.0636   -0.1239 C.ar    1  UNL1       -0.0312
      8 C          -0.5595    0.8196   -0.3210 C.ar    1  UNL1        0.0345
      9 C          -1.9033    0.6447   -0.1380 C.ar    1  UNL1        0.0857
     10 N          -2.6600    1.7130   -0.3934 N.ar    1  UNL1       -0.2140
     11 C          -2.2955    2.9178   -0.8005 C.ar    1  UNL1        0.2141
     12 N          -3.2479    3.9480   -1.0271 N.pl3   1  UNL1       -0.3274
     13 N          -0.9814    3.0910   -0.9820 N.ar    1  UNL1       -0.2074
     14 C          -0.1758    2.0778   -0.7472 C.ar    1  UNL1        0.1145
     15 S           1.6028    2.0147   -0.8714 S.2     1  UNL1       -0.0639
     16 C          -2.6113   -0.5266    0.3159 C.ar    1  UNL1        0.0195
     17 C          -3.9565   -0.3687    0.6323 C.ar    1  UNL1        0.0515
     18 CL         -4.7680    1.2036    0.5335 Cl      1  UNL1       -0.0828
     19 C          -4.8109   -1.3636    1.0518 C.ar    1  UNL1       -0.0244
     20 C          -4.3554   -2.6432    1.1890 C.ar    1  UNL1        0.0424
     21 CL         -5.3762   -3.9485    1.7160 Cl      1  UNL1       -0.0835
     22 C          -3.0346   -2.8929    0.8959 C.ar    1  UNL1       -0.0427
     23 C          -2.2725   -1.8344    0.4872 C.ar    1  UNL1       -0.0498
     24 H           6.4469   -1.7617    0.8167 H       1  UNL1        0.0245
     25 H           4.9096   -1.0380    1.4913 H       1  UNL1        0.0245
     26 H           6.4875   -0.0922    1.4614 H       1  UNL1        0.0245
     27 H           5.5876   -1.1789   -1.1694 H       1  UNL1        0.0459
     28 H           6.3067    0.3713   -0.7513 H       1  UNL1        0.0459
     29 H           4.1733    1.3153   -0.8514 H       1  UNL1        0.1490
     30 H           0.4550   -1.0732    0.2130 H       1  UNL1        0.0638
     31 H          -3.8789    3.6317   -1.8131 H       1  UNL1        0.1452
     32 H          -3.2199    4.8334   -0.4377 H       1  UNL1        0.1452
     33 H          -5.8428   -1.2210    1.2921 H       1  UNL1        0.0647
     34 H          -2.6192   -3.8828    0.9854 H       1  UNL1        0.0632
     35 H          -1.2701   -2.0800    0.2399 H       1  UNL1        0.0625
@<TRIPOS>BOND
     1     1     2    1
     2     2     3    1
     3     3     4   am
     4     4     5    2
     5     4     6    1
     6     6     7   ar
     7     7     8   ar
     8     8     9   ar
     9     9    10   ar
    10    10    11   ar
    11    11    12    1
    12    11    13   ar
    13    13    14   ar
    14    14    15   ar
    15     9    16    1
    16    16    17   ar
    17    17    18    1
    18    17    19   ar
    19    19    20   ar
    20    20    21    1
    21    20    22   ar
    22    22    23   ar
    23    15     6   ar
    24    23    16   ar
    25    14     8   ar
    26     1    24    1
    27     1    25    1
    28     1    26    1
    29     2    27    1
    30     2    28    1
    31     3    29    1
    32     7    30    1
    33    12    31    1
    34    12    32    1
    35    19    33    1
    36    22    34    1
    37    23    35    1
