
     RDKit          3D

 44 46  0  0  0  0  0  0  0  0999 V2000
   -2.9537    1.9636   -2.2692 N   0  0  0  0  0  0  0  0  0  0  0  0
   -3.0436    1.0963   -1.1312 C   0  0  0  0  0  0  0  0  0  0  0  0
   -2.5297    1.3513   -0.0085 N   0  0  0  0  0  0  0  0  0  0  0  0
   -2.5767    0.5245    1.1896 C   0  0  2  0  0  0  0  0  0  0  0  0
   -2.9189    1.4498    2.3596 C   0  0  0  0  0  0  0  0  0  0  0  0
   -4.1452    2.0592    2.1572 F   0  0  0  0  0  0  0  0  0  0  0  0
   -1.2860   -0.1011    1.4720 C   0  0  0  0  0  0  0  0  0  0  0  0
   -0.1652    0.0891    0.6649 C   0  0  0  0  0  0  0  0  0  0  0  0
    1.0358   -0.5170    0.9582 C   0  0  0  0  0  0  0  0  0  0  0  0
    2.2014   -0.3413    0.1848 N   0  0  0  0  0  0  0  0  0  0  0  0
    3.3381    0.2603    0.7507 C   0  0  0  0  0  0  0  0  0  0  0  0
    3.3053    0.7349    2.3043 S   0  0  0  0  0  0  0  0  0  0  0  0
    4.5943    0.4878    0.0129 C   0  0  0  0  0  0  0  0  0  0  0  0
    4.9283   -0.2444   -1.0997 C   0  0  0  0  0  0  0  0  0  0  0  0
    6.1140   -0.0243   -1.7829 C   0  0  0  0  0  0  0  0  0  0  0  0
    6.9746    0.9569   -1.3270 C   0  0  0  0  0  0  0  0  0  0  0  0
    8.4994    1.2781   -2.1556 Cl  0  0  0  0  0  0  0  0  0  0  0  0
    6.6154    1.6752   -0.2105 C   0  0  0  0  0  0  0  0  0  0  0  0
    5.4601    1.4371    0.4279 N   0  0  0  0  0  0  0  0  0  0  0  0
    1.1591   -1.3448    2.0816 C   0  0  0  0  0  0  0  0  0  0  0  0
    0.0589   -1.5362    2.8810 C   0  0  0  0  0  0  0  0  0  0  0  0
   -1.1455   -0.9129    2.5657 C   0  0  0  0  0  0  0  0  0  0  0  0
   -2.1638   -1.1805    3.4516 F   0  0  0  0  0  0  0  0  0  0  0  0
   -3.6398   -0.5302    1.0446 C   0  0  0  0  0  0  0  0  0  0  0  0
   -3.6617   -1.0967   -0.3774 C   0  0  1  0  0  0  0  0  0  0  0  0
   -4.8523   -2.0434   -0.4091 C   0  0  0  0  0  0  0  0  0  0  0  0
   -5.9772   -1.2875   -0.1195 F   0  0  0  0  0  0  0  0  0  0  0  0
   -4.9675   -2.7282   -1.5830 F   0  0  0  0  0  0  0  0  0  0  0  0
   -4.6748   -2.9141    0.6685 F   0  0  0  0  0  0  0  0  0  0  0  0
   -3.7470   -0.0789   -1.3236 O   0  0  0  0  0  0  0  0  0  0  0  0
   -3.8289    2.4889   -2.5151 H   0  0  0  0  0  0  0  0  0  0  0  0
   -2.1088    2.0893   -2.8311 H   0  0  0  0  0  0  0  0  0  0  0  0
   -2.1358    2.2571    2.4072 H   0  0  0  0  0  0  0  0  0  0  0  0
   -2.9285    0.9538    3.3272 H   0  0  0  0  0  0  0  0  0  0  0  0
   -0.2585    0.7273   -0.2021 H   0  0  0  0  0  0  0  0  0  0  0  0
    2.2180   -0.6530   -0.7984 H   0  0  0  0  0  0  0  0  0  0  0  0
    4.2406   -1.0035   -1.4343 H   0  0  0  0  0  0  0  0  0  0  0  0
    6.3644   -0.5956   -2.6428 H   0  0  0  0  0  0  0  0  0  0  0  0
    7.2618    2.4328    0.1570 H   0  0  0  0  0  0  0  0  0  0  0  0
    2.1042   -1.8165    2.3038 H   0  0  0  0  0  0  0  0  0  0  0  0
    0.1422   -2.1754    3.7549 H   0  0  0  0  0  0  0  0  0  0  0  0
   -4.6388   -0.1028    1.2882 H   0  0  0  0  0  0  0  0  0  0  0  0
   -3.5232   -1.4069    1.6971 H   0  0  0  0  0  0  0  0  0  0  0  0
   -2.7444   -1.6785   -0.5520 H   0  0  0  0  0  0  0  0  0  0  0  0
  1  2  1  0
  2  3  2  0
  3  4  1  0
  4  5  1  1
  5  6  1  0
  4  7  1  0
  7  8  2  0
  8  9  1  0
  9 10  1  0
 10 11  1  0
 11 12  2  0
 11 13  1  0
 13 14  2  0
 14 15  1  0
 15 16  2  0
 16 17  1  0
 16 18  1  0
 18 19  2  0
  9 20  2  0
 20 21  1  0
 21 22  2  0
 22 23  1  0
  4 24  1  0
 24 25  1  0
 25 26  1  0
 26 27  1  0
 26 28  1  0
 26 29  1  0
 25 30  1  0
 30  2  1  0
 22  7  1  0
 19 13  1  0
  1 31  1  0
  1 32  1  0
  5 33  1  0
  5 34  1  0
  8 35  1  0
 10 36  1  0
 14 37  1  0
 15 38  1  0
 18 39  1  0
 20 40  1  0
 21 41  1  0
 24 42  1  0
 24 43  1  0
 25 44  1  6
M  END
$$$$
