@<TRIPOS>MOLECULE
*****
 44 46 0 0 0
SMALL
GASTEIGER

@<TRIPOS>ATOM
      1 N          -2.9537    1.9636   -2.2692 N.pl3   1  UNL1       -0.3134
      2 C          -3.0436    1.0963   -1.1312 C.2     1  UNL1        0.2766
      3 N          -2.5297    1.3513   -0.0085 N.2     1  UNL1       -0.2228
      4 C          -2.5767    0.5245    1.1896 C.3     1  UNL1        0.1258
      5 C          -2.9189    1.4498    2.3596 C.3     1  UNL1        0.1196
      6 F          -4.1452    2.0592    2.1572 F       1  UNL1       -0.2462
      7 C          -1.2860   -0.1011    1.4720 C.ar    1  UNL1        0.0196
      8 C          -0.1652    0.0891    0.6649 C.ar    1  UNL1       -0.0322
      9 C           1.0358   -0.5170    0.9582 C.ar    1  UNL1        0.0322
     10 N           2.2014   -0.3413    0.1848 N.am    1  UNL1       -0.3070
     11 C           3.3381    0.2603    0.7507 C.2     1  UNL1        0.1020
     12 S           3.3053    0.7349    2.3043 S.2     1  UNL1       -0.0330
     13 C           4.5943    0.4878    0.0129 C.ar    1  UNL1        0.0923
     14 C           4.9283   -0.2444   -1.0997 C.ar    1  UNL1       -0.0325
     15 C           6.1140   -0.0243   -1.7829 C.ar    1  UNL1       -0.0398
     16 C           6.9746    0.9569   -1.3270 C.ar    1  UNL1        0.0591
     17 CL          8.4994    1.2781   -2.1556 Cl      1  UNL1       -0.0820
     18 C           6.6154    1.6752   -0.2105 C.ar    1  UNL1        0.0466
     19 N           5.4601    1.4371    0.4279 N.ar    1  UNL1       -0.2517
     20 C           1.1591   -1.3448    2.0816 C.ar    1  UNL1       -0.0378
     21 C           0.0589   -1.5362    2.8810 C.ar    1  UNL1       -0.0243
     22 C          -1.1455   -0.9129    2.5657 C.ar    1  UNL1        0.1291
     23 F          -2.1638   -1.1805    3.4516 F       1  UNL1       -0.2051
     24 C          -3.6398   -0.5302    1.0446 C.3     1  UNL1        0.0251
     25 C          -3.6617   -1.0967   -0.3774 C.3     1  UNL1        0.1998
     26 C          -4.8523   -2.0434   -0.4091 C.3     1  UNL1        0.4266
     27 F          -5.9772   -1.2875   -0.1195 F       1  UNL1       -0.1669
     28 F          -4.9675   -2.7282   -1.5830 F       1  UNL1       -0.1669
     29 F          -4.6748   -2.9141    0.6685 F       1  UNL1       -0.1669
     30 O          -3.7470   -0.0789   -1.3236 O.2     1  UNL1       -0.4534
     31 H          -3.8289    2.4889   -2.5151 H       1  UNL1        0.1466
     32 H          -2.1088    2.0893   -2.8311 H       1  UNL1        0.1466
     33 H          -2.1358    2.2571    2.4072 H       1  UNL1        0.0643
     34 H          -2.9285    0.9538    3.3272 H       1  UNL1        0.0643
     35 H          -0.2585    0.7273   -0.2021 H       1  UNL1        0.0640
     36 H           2.2180   -0.6530   -0.7984 H       1  UNL1        0.1527
     37 H           4.2406   -1.0035   -1.4343 H       1  UNL1        0.0640
     38 H           6.3644   -0.5956   -2.6428 H       1  UNL1        0.0633
     39 H           7.2618    2.4328    0.1570 H       1  UNL1        0.0844
     40 H           2.1042   -1.8165    2.3038 H       1  UNL1        0.0637
     41 H           0.1422   -2.1754    3.7549 H       1  UNL1        0.0647
     42 H          -4.6388   -0.1028    1.2882 H       1  UNL1        0.0331
     43 H          -3.5232   -1.4069    1.6971 H       1  UNL1        0.0331
     44 H          -2.7444   -1.6785   -0.5520 H       1  UNL1        0.0826
@<TRIPOS>BOND
     1     1     2    1
     2     2     3    2
     3     3     4    1
     4     4     5    1
     5     5     6    1
     6     4     7    1
     7     7     8   ar
     8     8     9   ar
     9     9    10    1
    10    10    11    1
    11    11    12    2
    12    11    13    1
    13    13    14   ar
    14    14    15   ar
    15    15    16   ar
    16    16    17    1
    17    16    18   ar
    18    18    19   ar
    19     9    20   ar
    20    20    21   ar
    21    21    22   ar
    22    22    23    1
    23     4    24    1
    24    24    25    1
    25    25    26    1
    26    26    27    1
    27    26    28    1
    28    26    29    1
    29    25    30    1
    30    30     2    1
    31    22     7   ar
    32    19    13   ar
    33     1    31    1
    34     1    32    1
    35     5    33    1
    36     5    34    1
    37     8    35    1
    38    10    36    1
    39    14    37    1
    40    15    38    1
    41    18    39    1
    42    20    40    1
    43    21    41    1
    44    24    42    1
    45    24    43    1
    46    25    44    1
