@<TRIPOS>MOLECULE
*****
 48 51 0 0 0
SMALL
GASTEIGER

@<TRIPOS>ATOM
      1 O           2.9439    0.3299    1.4937 O.2     1  UNL1       -0.2523
      2 C           2.3561    0.2395    0.3826 C.2     1  UNL1        0.3064
      3 N           3.2328    0.1772   -0.7612 N.am    1  UNL1       -0.2693
      4 C           4.6482    0.2162   -0.6232 C.ar    1  UNL1        0.0348
      5 C           5.3581    1.3959   -0.6331 C.ar    1  UNL1       -0.0399
      6 C           6.7488    1.3813   -0.4939 C.ar    1  UNL1       -0.0484
      7 C           7.3941    0.1907   -0.3486 C.ar    1  UNL1        0.0549
      8 C           8.8811    0.1007   -0.1947 C.3     1  UNL1        0.4174
      9 F           9.1722   -0.8833    0.7452 F       1  UNL1       -0.1659
     10 F           9.3960   -0.3113   -1.3954 F       1  UNL1       -0.1659
     11 F           9.3369    1.3329    0.1669 F       1  UNL1       -0.1659
     12 C           6.7065   -1.0230   -0.3342 C.ar    1  UNL1       -0.0484
     13 C           5.3507   -0.9663   -0.4728 C.ar    1  UNL1       -0.0399
     14 N           0.9382    0.2010    0.2529 N.am    1  UNL1       -0.2853
     15 C           0.1706    0.2696    1.4532 C.3     1  UNL1        0.0168
     16 C          -1.1684   -0.3777    1.3906 C.3     1  UNL1       -0.0257
     17 C          -1.4890   -1.0186    0.0723 C.3     1  UNL1        0.0410
     18 C          -2.9657   -1.1913    0.0012 C.ar    1  UNL1        0.2309
     19 N          -3.9037   -0.2306    0.0865 N.ar    1  UNL1       -0.1898
     20 C          -5.1359   -0.7753   -0.0216 C.ar    1  UNL1        0.2204
     21 C          -6.4382   -0.1169    0.0145 C.ar    1  UNL1        0.1111
     22 C          -7.3873   -0.3140   -0.9636 C.ar    1  UNL1       -0.0325
     23 C          -8.6185    0.3024   -0.9384 C.ar    1  UNL1       -0.0582
     24 C          -8.9193    1.1476    0.0984 C.ar    1  UNL1       -0.0436
     25 C          -7.9729    1.3483    1.0800 C.ar    1  UNL1        0.0284
     26 N          -6.7911    0.7311    1.0180 N.ar    1  UNL1       -0.2517
     27 N          -4.9105   -2.0971   -0.1750 N.ar    1  UNL1       -0.0545
     28 O          -3.6198   -2.3318   -0.1599 O.2     1  UNL1       -0.3374
     29 C          -1.0768   -0.1765   -1.1081 C.3     1  UNL1       -0.0257
     30 C           0.3984    0.0962   -1.0760 C.3     1  UNL1        0.0168
     31 H           2.7552    0.1022   -1.6874 H       1  UNL1        0.1564
     32 H           4.8094    2.3107   -0.7499 H       1  UNL1        0.0636
     33 H           7.3009    2.2933   -0.5012 H       1  UNL1        0.0624
     34 H           7.2311   -1.9641   -0.2179 H       1  UNL1        0.0624
     35 H           4.7809   -1.8918   -0.4663 H       1  UNL1        0.0636
     36 H           0.7411   -0.1665    2.2993 H       1  UNL1        0.0465
     37 H           0.0630    1.3630    1.7156 H       1  UNL1        0.0465
     38 H          -1.2794   -1.1682    2.1730 H       1  UNL1        0.0288
     39 H          -1.9589    0.3714    1.6048 H       1  UNL1        0.0288
     40 H          -1.0076   -2.0092   -0.0321 H       1  UNL1        0.0397
     41 H          -7.1689   -0.9760   -1.7882 H       1  UNL1        0.0640
     42 H          -9.3403    0.1308   -1.7145 H       1  UNL1        0.0619
     43 H          -9.8897    1.6534    0.1479 H       1  UNL1        0.0633
     44 H          -8.2342    2.0180    1.8850 H       1  UNL1        0.0830
     45 H          -1.3236   -0.7544   -2.0231 H       1  UNL1        0.0288
     46 H          -1.6467    0.7842   -1.1134 H       1  UNL1        0.0288
     47 H           0.9042   -0.7507   -1.6004 H       1  UNL1        0.0465
     48 H           0.6277    1.0071   -1.6741 H       1  UNL1        0.0465
@<TRIPOS>BOND
     1     1     2    2
     2     2     3   am
     3     3     4    1
     4     4     5   ar
     5     5     6   ar
     6     6     7   ar
     7     7     8    1
     8     8     9    1
     9     8    10    1
    10     8    11    1
    11     7    12   ar
    12    12    13   ar
    13     2    14   am
    14    14    15    1
    15    15    16    1
    16    16    17    1
    17    17    18    1
    18    18    19   ar
    19    19    20   ar
    20    20    21    1
    21    21    22   ar
    22    22    23   ar
    23    23    24   ar
    24    24    25   ar
    25    25    26   ar
    26    20    27   ar
    27    27    28   ar
    28    17    29    1
    29    29    30    1
    30    13     4   ar
    31    30    14    1
    32    28    18   ar
    33    26    21   ar
    34     3    31    1
    35     5    32    1
    36     6    33    1
    37    12    34    1
    38    13    35    1
    39    15    36    1
    40    15    37    1
    41    16    38    1
    42    16    39    1
    43    17    40    1
    44    22    41    1
    45    23    42    1
    46    24    43    1
    47    25    44    1
    48    29    45    1
    49    29    46    1
    50    30    47    1
    51    30    48    1
