
     RDKit          3D

 48 51  0  0  0  0  0  0  0  0999 V2000
    2.9439    0.3299    1.4937 O   0  0  0  0  0  0  0  0  0  0  0  0
    2.3561    0.2395    0.3826 C   0  0  0  0  0  0  0  0  0  0  0  0
    3.2328    0.1772   -0.7612 N   0  0  0  0  0  0  0  0  0  0  0  0
    4.6482    0.2162   -0.6232 C   0  0  0  0  0  0  0  0  0  0  0  0
    5.3581    1.3959   -0.6331 C   0  0  0  0  0  0  0  0  0  0  0  0
    6.7488    1.3813   -0.4939 C   0  0  0  0  0  0  0  0  0  0  0  0
    7.3941    0.1907   -0.3486 C   0  0  0  0  0  0  0  0  0  0  0  0
    8.8811    0.1007   -0.1947 C   0  0  0  0  0  0  0  0  0  0  0  0
    9.1722   -0.8833    0.7452 F   0  0  0  0  0  0  0  0  0  0  0  0
    9.3960   -0.3113   -1.3954 F   0  0  0  0  0  0  0  0  0  0  0  0
    9.3369    1.3329    0.1669 F   0  0  0  0  0  0  0  0  0  0  0  0
    6.7065   -1.0230   -0.3342 C   0  0  0  0  0  0  0  0  0  0  0  0
    5.3507   -0.9663   -0.4728 C   0  0  0  0  0  0  0  0  0  0  0  0
    0.9382    0.2010    0.2529 N   0  0  0  0  0  0  0  0  0  0  0  0
    0.1706    0.2696    1.4532 C   0  0  0  0  0  0  0  0  0  0  0  0
   -1.1684   -0.3777    1.3906 C   0  0  0  0  0  0  0  0  0  0  0  0
   -1.4890   -1.0186    0.0723 C   0  0  0  0  0  0  0  0  0  0  0  0
   -2.9657   -1.1913    0.0012 C   0  0  0  0  0  0  0  0  0  0  0  0
   -3.9037   -0.2306    0.0865 N   0  0  0  0  0  0  0  0  0  0  0  0
   -5.1359   -0.7753   -0.0216 C   0  0  0  0  0  0  0  0  0  0  0  0
   -6.4382   -0.1169    0.0145 C   0  0  0  0  0  0  0  0  0  0  0  0
   -7.3873   -0.3140   -0.9636 C   0  0  0  0  0  0  0  0  0  0  0  0
   -8.6185    0.3024   -0.9384 C   0  0  0  0  0  0  0  0  0  0  0  0
   -8.9193    1.1476    0.0984 C   0  0  0  0  0  0  0  0  0  0  0  0
   -7.9729    1.3483    1.0800 C   0  0  0  0  0  0  0  0  0  0  0  0
   -6.7911    0.7311    1.0180 N   0  0  0  0  0  0  0  0  0  0  0  0
   -4.9105   -2.0971   -0.1750 N   0  0  0  0  0  0  0  0  0  0  0  0
   -3.6198   -2.3318   -0.1599 O   0  0  0  0  0  0  0  0  0  0  0  0
   -1.0768   -0.1765   -1.1081 C   0  0  0  0  0  0  0  0  0  0  0  0
    0.3984    0.0962   -1.0760 C   0  0  0  0  0  0  0  0  0  0  0  0
    2.7552    0.1022   -1.6874 H   0  0  0  0  0  0  0  0  0  0  0  0
    4.8094    2.3107   -0.7499 H   0  0  0  0  0  0  0  0  0  0  0  0
    7.3009    2.2933   -0.5012 H   0  0  0  0  0  0  0  0  0  0  0  0
    7.2311   -1.9641   -0.2179 H   0  0  0  0  0  0  0  0  0  0  0  0
    4.7809   -1.8918   -0.4663 H   0  0  0  0  0  0  0  0  0  0  0  0
    0.7411   -0.1665    2.2993 H   0  0  0  0  0  0  0  0  0  0  0  0
    0.0630    1.3630    1.7156 H   0  0  0  0  0  0  0  0  0  0  0  0
   -1.2794   -1.1682    2.1730 H   0  0  0  0  0  0  0  0  0  0  0  0
   -1.9589    0.3714    1.6048 H   0  0  0  0  0  0  0  0  0  0  0  0
   -1.0076   -2.0092   -0.0321 H   0  0  0  0  0  0  0  0  0  0  0  0
   -7.1689   -0.9760   -1.7882 H   0  0  0  0  0  0  0  0  0  0  0  0
   -9.3403    0.1308   -1.7145 H   0  0  0  0  0  0  0  0  0  0  0  0
   -9.8897    1.6534    0.1479 H   0  0  0  0  0  0  0  0  0  0  0  0
   -8.2342    2.0180    1.8850 H   0  0  0  0  0  0  0  0  0  0  0  0
   -1.3236   -0.7544   -2.0231 H   0  0  0  0  0  0  0  0  0  0  0  0
   -1.6467    0.7842   -1.1134 H   0  0  0  0  0  0  0  0  0  0  0  0
    0.9042   -0.7507   -1.6004 H   0  0  0  0  0  0  0  0  0  0  0  0
    0.6277    1.0071   -1.6741 H   0  0  0  0  0  0  0  0  0  0  0  0
  1  2  2  0
  2  3  1  0
  3  4  1  0
  4  5  2  0
  5  6  1  0
  6  7  2  0
  7  8  1  0
  8  9  1  0
  8 10  1  0
  8 11  1  0
  7 12  1  0
 12 13  2  0
  2 14  1  0
 14 15  1  0
 15 16  1  0
 16 17  1  0
 17 18  1  0
 18 19  2  0
 19 20  1  0
 20 21  1  0
 21 22  2  0
 22 23  1  0
 23 24  2  0
 24 25  1  0
 25 26  2  0
 20 27  2  0
 27 28  1  0
 17 29  1  0
 29 30  1  0
 13  4  1  0
 30 14  1  0
 28 18  1  0
 26 21  1  0
  3 31  1  0
  5 32  1  0
  6 33  1  0
 12 34  1  0
 13 35  1  0
 15 36  1  0
 15 37  1  0
 16 38  1  0
 16 39  1  0
 17 40  1  0
 22 41  1  0
 23 42  1  0
 24 43  1  0
 25 44  1  0
 29 45  1  0
 29 46  1  0
 30 47  1  0
 30 48  1  0
M  END
$$$$
