
     RDKit          3D

 68 72  0  0  0  0  0  0  0  0999 V2000
   -4.9363   -4.1317   -3.5765 C   0  0  0  0  0  0  0  0  0  0  0  0
   -4.2996   -3.1632   -2.7517 O   0  0  0  0  0  0  0  0  0  0  0  0
   -5.0948   -2.4820   -1.8467 C   0  0  0  0  0  0  0  0  0  0  0  0
   -6.4427   -2.6793   -1.6898 C   0  0  0  0  0  0  0  0  0  0  0  0
   -7.1889   -1.9690   -0.7632 C   0  0  0  0  0  0  0  0  0  0  0  0
   -6.5702   -1.0229    0.0403 C   0  0  0  0  0  0  0  0  0  0  0  0
   -5.2149   -0.8066   -0.0998 C   0  0  0  0  0  0  0  0  0  0  0  0
   -4.4911   -1.5278   -1.0313 C   0  0  0  0  0  0  0  0  0  0  0  0
   -3.0631   -1.2947   -1.1759 C   0  0  0  0  0  0  0  0  0  0  0  0
   -2.3811   -1.9361   -2.0163 O   0  0  0  0  0  0  0  0  0  0  0  0
   -2.4168   -0.2969   -0.3254 C   0  0  0  0  0  0  0  0  0  0  0  0
   -1.0413   -0.0282   -0.4151 C   0  0  0  0  0  0  0  0  0  0  0  0
   -0.3749   -0.7821   -1.3666 O   0  0  0  0  0  0  0  0  0  0  0  0
   -0.3935    0.8944    0.3618 C   0  0  0  0  0  0  0  0  0  0  0  0
   -1.1727    1.5753    1.2691 C   0  0  0  0  0  0  0  0  0  0  0  0
   -2.5400    1.3496    1.4013 C   0  0  0  0  0  0  0  0  0  0  0  0
   -3.2736    2.0897    2.3579 O   0  0  0  0  0  0  0  0  0  0  0  0
   -3.1463    0.4117    0.5968 C   0  0  0  0  0  0  0  0  0  0  0  0
   -4.5776    0.1944    0.7560 C   0  0  0  0  0  0  0  0  0  0  0  0
   -5.2523    0.8321    1.5894 O   0  0  0  0  0  0  0  0  0  0  0  0
   -0.5701    2.5827    2.1324 C   0  0  0  0  0  0  0  0  0  0  0  0
    0.5561    3.3452    1.5075 C   0  0  1  0  0  0  0  0  0  0  0  0
   -0.0312    4.4719    0.8790 O   0  0  0  0  0  0  0  0  0  0  0  0
    1.3893    3.8869    2.6262 C   0  0  0  0  0  0  0  0  0  0  0  0
    1.4847    5.0719    2.8631 O   0  0  0  0  0  0  0  0  0  0  0  0
    2.1403    2.9353    3.4958 C   0  0  0  0  0  0  0  0  0  0  0  0
    2.8618    3.6594    4.4669 O   0  0  0  0  0  0  0  0  0  0  0  0
    1.4078    2.6115    0.5757 C   0  0  0  0  0  0  0  0  0  0  0  0
    1.0162    1.1648    0.2810 C   0  0  2  0  0  0  0  0  0  0  0  0
    1.6223    0.8012   -0.9117 O   0  0  0  0  0  0  0  0  0  0  0  0
    2.6987   -0.0646   -0.7426 C   0  0  1  0  0  0  0  0  0  0  0  0
    2.8742   -1.1192   -1.7635 C   0  0  0  0  0  0  0  0  0  0  0  0
    4.0518   -1.9934   -1.3499 C   0  0  2  0  0  0  0  0  0  0  0  0
    3.7188   -2.8437   -0.2309 N   0  0  0  0  0  0  0  0  0  0  0  0
    5.2460   -1.1369   -1.1795 C   0  0  2  0  0  0  0  0  0  0  0  0
    6.2148   -1.8716   -0.4710 O   0  0  0  0  0  0  0  0  0  0  0  0
    4.9957    0.1603   -0.4728 C   0  0  2  0  0  0  0  0  0  0  0  0
    5.1846   -0.0140    1.0142 C   0  0  0  0  0  0  0  0  0  0  0  0
    3.8394    0.7972   -0.8358 O   0  0  0  0  0  0  0  0  0  0  0  0
   -5.3304   -4.9930   -2.9804 H   0  0  0  0  0  0  0  0  0  0  0  0
   -4.2098   -4.5996   -4.2914 H   0  0  0  0  0  0  0  0  0  0  0  0
   -5.7379   -3.7000   -4.1961 H   0  0  0  0  0  0  0  0  0  0  0  0
   -6.9282   -3.4075   -2.3111 H   0  0  0  0  0  0  0  0  0  0  0  0
   -8.2454   -2.1373   -0.6528 H   0  0  0  0  0  0  0  0  0  0  0  0
   -7.1121   -0.4499    0.7702 H   0  0  0  0  0  0  0  0  0  0  0  0
   -0.2506   -1.7844   -1.1747 H   0  0  0  0  0  0  0  0  0  0  0  0
   -3.5476    3.0544    2.1046 H   0  0  0  0  0  0  0  0  0  0  0  0
   -0.3135    2.1064    3.1014 H   0  0  0  0  0  0  0  0  0  0  0  0
   -1.3915    3.3137    2.4178 H   0  0  0  0  0  0  0  0  0  0  0  0
    0.4285    4.5861    0.0042 H   0  0  0  0  0  0  0  0  0  0  0  0
    2.8834    2.3175    2.9562 H   0  0  0  0  0  0  0  0  0  0  0  0
    1.4574    2.2666    4.0865 H   0  0  0  0  0  0  0  0  0  0  0  0
    2.6981    4.6347    4.3281 H   0  0  0  0  0  0  0  0  0  0  0  0
    1.4176    3.1222   -0.4165 H   0  0  0  0  0  0  0  0  0  0  0  0
    2.4756    2.5991    0.9041 H   0  0  0  0  0  0  0  0  0  0  0  0
    1.5514    0.5559    1.0746 H   0  0  0  0  0  0  0  0  0  0  0  0
    2.7214   -0.3723    0.3165 H   0  0  0  0  0  0  0  0  0  0  0  0
    3.2733   -0.5861   -2.6930 H   0  0  0  0  0  0  0  0  0  0  0  0
    1.9946   -1.7091   -2.0030 H   0  0  0  0  0  0  0  0  0  0  0  0
    4.2184   -2.6751   -2.2219 H   0  0  0  0  0  0  0  0  0  0  0  0
    3.0421   -3.5643   -0.5575 H   0  0  0  0  0  0  0  0  0  0  0  0
    4.5220   -3.2168    0.2775 H   0  0  0  0  0  0  0  0  0  0  0  0
    5.6828   -0.9070   -2.1840 H   0  0  0  0  0  0  0  0  0  0  0  0
    6.2078   -2.8185   -0.8218 H   0  0  0  0  0  0  0  0  0  0  0  0
    5.8260    0.8587   -0.7967 H   0  0  0  0  0  0  0  0  0  0  0  0
    4.6625    0.7838    1.5967 H   0  0  0  0  0  0  0  0  0  0  0  0
    6.2646    0.0976    1.3020 H   0  0  0  0  0  0  0  0  0  0  0  0
    4.9102   -1.0476    1.3432 H   0  0  0  0  0  0  0  0  0  0  0  0
  1  2  1  0
  2  3  1  0
  3  4  2  0
  4  5  1  0
  5  6  2  0
  6  7  1  0
  7  8  2  0
  8  9  1  0
  9 10  2  0
  9 11  1  0
 11 12  2  0
 12 13  1  0
 12 14  1  0
 14 15  2  0
 15 16  1  0
 16 17  1  0
 16 18  2  0
 18 19  1  0
 19 20  2  0
 15 21  1  0
 21 22  1  0
 22 23  1  6
 22 24  1  0
 24 25  2  0
 24 26  1  0
 26 27  1  0
 22 28  1  0
 28 29  1  0
 29 30  1  0
 30 31  1  0
 31 32  1  0
 32 33  1  0
 33 34  1  0
 33 35  1  0
 35 36  1  0
 35 37  1  0
 37 38  1  0
 37 39  1  0
  8  3  1  0
 18 11  1  0
 39 31  1  0
 19  7  1  0
 29 14  1  0
  1 40  1  0
  1 41  1  0
  1 42  1  0
  4 43  1  0
  5 44  1  0
  6 45  1  0
 13 46  1  0
 17 47  1  0
 21 48  1  0
 21 49  1  0
 23 50  1  0
 26 51  1  0
 26 52  1  0
 27 53  1  0
 28 54  1  0
 28 55  1  0
 29 56  1  1
 31 57  1  1
 32 58  1  0
 32 59  1  0
 33 60  1  6
 34 61  1  0
 34 62  1  0
 35 63  1  6
 36 64  1  0
 37 65  1  6
 38 66  1  0
 38 67  1  0
 38 68  1  0
M  END
$$$$
