@<TRIPOS>MOLECULE
*****
 68 72 0 0 0
SMALL
GASTEIGER

@<TRIPOS>ATOM
      1 C          -4.9363   -4.1317   -3.5765 C.3     1  UNL1        0.0788
      2 O          -4.2996   -3.1632   -2.7517 O.3     1  UNL1       -0.4944
      3 C          -5.0948   -2.4820   -1.8467 C.ar    1  UNL1        0.1316
      4 C          -6.4427   -2.6793   -1.6898 C.ar    1  UNL1       -0.0192
      5 C          -7.1889   -1.9690   -0.7632 C.ar    1  UNL1       -0.0576
      6 C          -6.5702   -1.0229    0.0403 C.ar    1  UNL1       -0.0500
      7 C          -5.2149   -0.8066   -0.0998 C.ar    1  UNL1        0.0367
      8 C          -4.4911   -1.5278   -1.0313 C.ar    1  UNL1        0.0748
      9 C          -3.0631   -1.2947   -1.1759 C.2     1  UNL1        0.2016
     10 O          -2.3811   -1.9361   -2.0163 O.2     1  UNL1       -0.2864
     11 C          -2.4168   -0.2969   -0.3254 C.ar    1  UNL1        0.0784
     12 C          -1.0413   -0.0282   -0.4151 C.ar    1  UNL1        0.1345
     13 O          -0.3749   -0.7821   -1.3666 O.3     1  UNL1       -0.5057
     14 C          -0.3935    0.8944    0.3618 C.ar    1  UNL1        0.0302
     15 C          -1.1727    1.5753    1.2691 C.ar    1  UNL1        0.0070
     16 C          -2.5400    1.3496    1.4013 C.ar    1  UNL1        0.1322
     17 O          -3.2736    2.0897    2.3579 O.3     1  UNL1       -0.5057
     18 C          -3.1463    0.4117    0.5968 C.ar    1  UNL1        0.0782
     19 C          -4.5776    0.1944    0.7560 C.2     1  UNL1        0.1982
     20 O          -5.2523    0.8321    1.5894 O.2     1  UNL1       -0.2865
     21 C          -0.5701    2.5827    2.1324 C.3     1  UNL1        0.0123
     22 C           0.5561    3.3452    1.5075 C.3     1  UNL1        0.1325
     23 O          -0.0312    4.4719    0.8790 O.3     1  UNL1       -0.3806
     24 C           1.3893    3.8869    2.6262 C.2     1  UNL1        0.1900
     25 O           1.4847    5.0719    2.8631 O.2     1  UNL1       -0.2919
     26 C           2.1403    2.9353    3.4958 C.3     1  UNL1        0.1051
     27 O           2.8618    3.6594    4.4669 O.3     1  UNL1       -0.3874
     28 C           1.4078    2.6115    0.5757 C.3     1  UNL1        0.0141
     29 C           1.0162    1.1648    0.2810 C.3     1  UNL1        0.0934
     30 O           1.6223    0.8012   -0.9117 O.3     1  UNL1       -0.3432
     31 C           2.6987   -0.0646   -0.7426 C.3     1  UNL1        0.1618
     32 C           2.8742   -1.1192   -1.7635 C.3     1  UNL1        0.0161
     33 C           4.0518   -1.9934   -1.3499 C.3     1  UNL1        0.0382
     34 N           3.7188   -2.8437   -0.2309 N.3     1  UNL1       -0.3249
     35 C           5.2460   -1.1369   -1.1795 C.3     1  UNL1        0.0963
     36 O           6.2148   -1.8716   -0.4710 O.3     1  UNL1       -0.3877
     37 C           4.9957    0.1603   -0.4728 C.3     1  UNL1        0.0861
     38 C           5.1846   -0.0140    1.0142 C.3     1  UNL1       -0.0361
     39 O           3.8394    0.7972   -0.8358 O.3     1  UNL1       -0.3457
     40 H          -5.3304   -4.9930   -2.9804 H       1  UNL1        0.0660
     41 H          -4.2098   -4.5996   -4.2914 H       1  UNL1        0.0660
     42 H          -5.7379   -3.7000   -4.1961 H       1  UNL1        0.0660
     43 H          -6.9282   -3.4075   -2.3111 H       1  UNL1        0.0654
     44 H          -8.2454   -2.1373   -0.6528 H       1  UNL1        0.0619
     45 H          -7.1121   -0.4499    0.7702 H       1  UNL1        0.0625
     46 H          -0.2506   -1.7844   -1.1747 H       1  UNL1        0.2922
     47 H          -3.5476    3.0544    2.1046 H       1  UNL1        0.2922
     48 H          -0.3135    2.1064    3.1014 H       1  UNL1        0.0347
     49 H          -1.3915    3.3137    2.4178 H       1  UNL1        0.0347
     50 H           0.4285    4.5861    0.0042 H       1  UNL1        0.2108
     51 H           2.8834    2.3175    2.9562 H       1  UNL1        0.0637
     52 H           1.4574    2.2666    4.0865 H       1  UNL1        0.0637
     53 H           2.6981    4.6347    4.3281 H       1  UNL1        0.2100
     54 H           1.4176    3.1222   -0.4165 H       1  UNL1        0.0326
     55 H           2.4756    2.5991    0.9041 H       1  UNL1        0.0326
     56 H           1.5514    0.5559    1.0746 H       1  UNL1        0.0649
     57 H           2.7214   -0.3723    0.3165 H       1  UNL1        0.0910
     58 H           3.2733   -0.5861   -2.6930 H       1  UNL1        0.0330
     59 H           1.9946   -1.7091   -2.0030 H       1  UNL1        0.0330
     60 H           4.2184   -2.6751   -2.2219 H       1  UNL1        0.0486
     61 H           3.0421   -3.5643   -0.5575 H       1  UNL1        0.1186
     62 H           4.5220   -3.2168    0.2775 H       1  UNL1        0.1186
     63 H           5.6828   -0.9070   -2.1840 H       1  UNL1        0.0635
     64 H           6.2078   -2.8185   -0.8218 H       1  UNL1        0.2100
     65 H           5.8260    0.8587   -0.7967 H       1  UNL1        0.0620
     66 H           4.6625    0.7838    1.5967 H       1  UNL1        0.0255
     67 H           6.2646    0.0976    1.3020 H       1  UNL1        0.0255
     68 H           4.9102   -1.0476    1.3432 H       1  UNL1        0.0255
@<TRIPOS>BOND
     1     1     2    1
     2     2     3    1
     3     3     4   ar
     4     4     5   ar
     5     5     6   ar
     6     6     7   ar
     7     7     8   ar
     8     8     9    1
     9     9    10    2
    10     9    11    1
    11    11    12   ar
    12    12    13    1
    13    12    14   ar
    14    14    15   ar
    15    15    16   ar
    16    16    17    1
    17    16    18   ar
    18    18    19    1
    19    19    20    2
    20    15    21    1
    21    21    22    1
    22    22    23    1
    23    22    24    1
    24    24    25    2
    25    24    26    1
    26    26    27    1
    27    22    28    1
    28    28    29    1
    29    29    30    1
    30    30    31    1
    31    31    32    1
    32    32    33    1
    33    33    34    1
    34    33    35    1
    35    35    36    1
    36    35    37    1
    37    37    38    1
    38    37    39    1
    39     8     3   ar
    40    18    11   ar
    41    39    31    1
    42    19     7    1
    43    29    14    1
    44     1    40    1
    45     1    41    1
    46     1    42    1
    47     4    43    1
    48     5    44    1
    49     6    45    1
    50    13    46    1
    51    17    47    1
    52    21    48    1
    53    21    49    1
    54    23    50    1
    55    26    51    1
    56    26    52    1
    57    27    53    1
    58    28    54    1
    59    28    55    1
    60    29    56    1
    61    31    57    1
    62    32    58    1
    63    32    59    1
    64    33    60    1
    65    34    61    1
    66    34    62    1
    67    35    63    1
    68    36    64    1
    69    37    65    1
    70    38    66    1
    71    38    67    1
    72    38    68    1
