
     RDKit          3D

 26 26  0  0  0  0  0  0  0  0999 V2000
    5.7174    1.1862    0.0225 O   0  0  0  0  0  0  0  0  0  0  0  0
    4.7397    0.8664    0.9533 C   0  0  0  0  0  0  0  0  0  0  0  0
    4.7575    1.7601    1.8402 O   0  0  0  0  0  0  0  0  0  0  0  0
    3.8663   -0.3288    0.8588 C   0  0  0  0  0  0  0  0  0  0  0  0
    2.3387    0.0354   -0.0664 S   0  0  0  0  0  0  0  0  0  0  0  0
    1.2887   -1.4373   -0.1692 C   0  0  0  0  0  0  0  0  0  0  0  0
    0.0341   -1.1651   -0.9206 C   0  0  0  0  0  0  0  0  0  0  0  0
   -0.0498   -1.3229   -2.1757 O   0  0  0  0  0  0  0  0  0  0  0  0
   -1.0939   -0.7111   -0.1648 N   0  0  0  0  0  0  0  0  0  0  0  0
   -2.4333   -0.3489   -0.4767 C   0  0  0  0  0  0  0  0  0  0  0  0
   -2.6588    1.1049   -0.1282 C   0  0  0  0  0  0  0  0  0  0  0  0
   -4.0799    1.4268   -0.4886 C   0  0  0  0  0  0  0  0  0  0  0  0
   -4.9347   -0.1793   -0.2600 S   0  0  0  0  0  0  0  0  0  0  0  0
   -3.4721   -1.1195    0.2645 C   0  0  0  0  0  0  0  0  0  0  0  0
   -3.9227   -1.9977    1.0071 O   0  0  0  0  0  0  0  0  0  0  0  0
    5.8640    2.1177   -0.3475 H   0  0  0  0  0  0  0  0  0  0  0  0
    4.4398   -1.1430    0.3577 H   0  0  0  0  0  0  0  0  0  0  0  0
    3.5740   -0.7118    1.8559 H   0  0  0  0  0  0  0  0  0  0  0  0
    1.8592   -2.2489   -0.6406 H   0  0  0  0  0  0  0  0  0  0  0  0
    1.0509   -1.7366    0.8712 H   0  0  0  0  0  0  0  0  0  0  0  0
   -1.0311   -0.5785    0.8739 H   0  0  0  0  0  0  0  0  0  0  0  0
   -2.6775   -0.4327   -1.5617 H   0  0  0  0  0  0  0  0  0  0  0  0
   -2.4581    1.3300    0.9302 H   0  0  0  0  0  0  0  0  0  0  0  0
   -2.0209    1.7010   -0.8144 H   0  0  0  0  0  0  0  0  0  0  0  0
   -4.2104    1.8101   -1.5048 H   0  0  0  0  0  0  0  0  0  0  0  0
   -4.4873    2.1235    0.2903 H   0  0  0  0  0  0  0  0  0  0  0  0
  1  2  1  0
  2  3  2  0
  2  4  1  0
  4  5  1  0
  5  6  1  0
  6  7  1  0
  7  8  2  0
  7  9  1  0
  9 10  1  0
 10 11  1  0
 11 12  1  0
 12 13  1  0
 13 14  1  0
 14 15  2  0
 14 10  1  0
  1 16  1  0
  4 17  1  0
  4 18  1  0
  6 19  1  0
  6 20  1  0
  9 21  1  0
 10 22  1  0
 11 23  1  0
 11 24  1  0
 12 25  1  0
 12 26  1  0
M  END
$$$$
