@<TRIPOS>MOLECULE
*****
 26 26 0 0 0
SMALL
GASTEIGER

@<TRIPOS>ATOM
      1 O           5.7174    1.1862    0.0225 O.3     1  UNL1       -0.4800
      2 C           4.7397    0.8664    0.9533 C.2     1  UNL1        0.3147
      3 O           4.7575    1.7601    1.8402 O.2     1  UNL1       -0.2501
      4 C           3.8663   -0.3288    0.8588 C.3     1  UNL1        0.0913
      5 S           2.3387    0.0354   -0.0664 S.3     1  UNL1       -0.1402
      6 C           1.2887   -1.4373   -0.1692 C.3     1  UNL1        0.0707
      7 C           0.0341   -1.1651   -0.9206 C.2     1  UNL1        0.2235
      8 O          -0.0498   -1.3229   -2.1757 O.2     1  UNL1       -0.2749
      9 N          -1.0939   -0.7111   -0.1648 N.am    1  UNL1       -0.3041
     10 C          -2.4333   -0.3489   -0.4767 C.3     1  UNL1        0.0925
     11 C          -2.6588    1.1049   -0.1282 C.3     1  UNL1       -0.0173
     12 C          -4.0799    1.4268   -0.4886 C.3     1  UNL1        0.0031
     13 S          -4.9347   -0.1793   -0.2600 S.3     1  UNL1       -0.0862
     14 C          -3.4721   -1.1195    0.2645 C.2     1  UNL1        0.2095
     15 O          -3.9227   -1.9977    1.0071 O.2     1  UNL1       -0.2832
     16 H           5.8640    2.1177   -0.3475 H       1  UNL1        0.2951
     17 H           4.4398   -1.1430    0.3577 H       1  UNL1        0.0490
     18 H           3.5740   -0.7118    1.8559 H       1  UNL1        0.0490
     19 H           1.8592   -2.2489   -0.6406 H       1  UNL1        0.0471
     20 H           1.0509   -1.7366    0.8712 H       1  UNL1        0.0471
     21 H          -1.0311   -0.5785    0.8739 H       1  UNL1        0.1494
     22 H          -2.6775   -0.4327   -1.5617 H       1  UNL1        0.0586
     23 H          -2.4581    1.3300    0.9302 H       1  UNL1        0.0296
     24 H          -2.0209    1.7010   -0.8144 H       1  UNL1        0.0296
     25 H          -4.2104    1.8101   -1.5048 H       1  UNL1        0.0381
     26 H          -4.4873    2.1235    0.2903 H       1  UNL1        0.0381
@<TRIPOS>BOND
     1     1     2    1
     2     2     3    2
     3     2     4    1
     4     4     5    1
     5     5     6    1
     6     6     7    1
     7     7     8    2
     8     7     9   am
     9     9    10    1
    10    10    11    1
    11    11    12    1
    12    12    13    1
    13    13    14    1
    14    14    15    2
    15    14    10    1
    16     1    16    1
    17     4    17    1
    18     4    18    1
    19     6    19    1
    20     6    20    1
    21     9    21    1
    22    10    22    1
    23    11    23    1
    24    11    24    1
    25    12    25    1
    26    12    26    1
