@<TRIPOS>MOLECULE
*****
 55 58 0 0 0
SMALL
GASTEIGER

@<TRIPOS>ATOM
      1 N          -0.0040    1.6709   -1.1534 N.3     1  UNL1       -0.3173
      2 C           0.4272    0.4714   -0.4503 C.3     1  UNL1        0.0965
      3 C          -0.7523   -0.3806   -0.1414 C.2     1  UNL1        0.2336
      4 O          -0.6748   -1.4681    0.4557 O.2     1  UNL1       -0.2738
      5 N          -2.0451    0.0543   -0.5417 N.am    1  UNL1       -0.3069
      6 C          -3.2571   -0.6997   -0.2898 C.3     1  UNL1        0.0505
      7 C          -3.8469   -1.0640   -1.6256 C.3     1  UNL1       -0.0071
      8 C          -5.1246   -1.8587   -1.4962 C.3     1  UNL1        0.0462
      9 O          -5.5809   -2.1400   -2.7825 O.3     1  UNL1       -0.3949
     10 C          -4.1955    0.1036    0.5402 C.ar    1  UNL1       -0.0271
     11 C          -4.4071    1.4224    0.2015 C.ar    1  UNL1       -0.0554
     12 C          -5.2629    2.1998    0.9398 C.ar    1  UNL1       -0.0431
     13 C          -5.9122    1.6436    2.0302 C.ar    1  UNL1        0.0410
     14 CL         -6.9995    2.6284    2.9697 Cl      1  UNL1       -0.0835
     15 C          -5.6883    0.3195    2.3556 C.ar    1  UNL1       -0.0431
     16 C          -4.8332   -0.4765    1.6267 C.ar    1  UNL1       -0.0554
     17 C           1.1533    0.9130    0.7789 C.3     1  UNL1       -0.0104
     18 C           2.6167    1.0759    0.4146 C.3     1  UNL1        0.0156
     19 N           3.1332   -0.2618    0.2068 N.pl3   1  UNL1       -0.3144
     20 C           4.3878   -0.6677    0.7315 C.ar    1  UNL1        0.1337
     21 N           4.5120   -1.6909    1.6025 N.ar    1  UNL1       -0.2200
     22 C           5.7038   -2.0600    2.0876 C.ar    1  UNL1        0.1204
     23 N           6.8302   -1.4200    1.7220 N.ar    1  UNL1       -0.2178
     24 C           6.7887   -0.3943    0.8611 C.ar    1  UNL1        0.1432
     25 N           7.7426    0.3986    0.3423 N.ar    1  UNL1       -0.3457
     26 C           7.1639    1.3012   -0.4961 C.ar    1  UNL1        0.0042
     27 C           5.8086    1.0413   -0.4812 C.ar    1  UNL1       -0.0318
     28 C           5.5576   -0.0189    0.3649 C.ar    1  UNL1        0.0585
     29 C           2.3111   -1.1736   -0.5630 C.3     1  UNL1        0.0156
     30 C           1.3524   -0.2908   -1.3616 C.3     1  UNL1       -0.0104
     31 H          -0.6184    2.2098   -0.5209 H       1  UNL1        0.1192
     32 H          -0.4115    1.4736   -2.0790 H       1  UNL1        0.1192
     33 H          -2.1562    0.9593   -1.0459 H       1  UNL1        0.1493
     34 H          -2.9919   -1.6576    0.2481 H       1  UNL1        0.0549
     35 H          -3.9996   -0.1340   -2.1977 H       1  UNL1        0.0308
     36 H          -3.0792   -1.6508   -2.1690 H       1  UNL1        0.0308
     37 H          -4.8578   -2.8207   -1.0124 H       1  UNL1        0.0558
     38 H          -5.9042   -1.3357   -0.9474 H       1  UNL1        0.0558
     39 H          -4.8520   -2.0177   -3.4434 H       1  UNL1        0.2094
     40 H          -3.9104    1.8999   -0.6586 H       1  UNL1        0.0621
     41 H          -5.4175    3.2374    0.6581 H       1  UNL1        0.0632
     42 H          -6.2098   -0.0836    3.2112 H       1  UNL1        0.0632
     43 H          -4.6485   -1.5122    1.8689 H       1  UNL1        0.0621
     44 H           1.0558    0.1914    1.6337 H       1  UNL1        0.0303
     45 H           0.7364    1.8844    1.1524 H       1  UNL1        0.0303
     46 H           2.6780    1.6254   -0.5274 H       1  UNL1        0.0465
     47 H           3.1066    1.5868    1.2648 H       1  UNL1        0.0465
     48 H           5.8120   -2.8750    2.7828 H       1  UNL1        0.1048
     49 H           8.7683    0.3698    0.5190 H       1  UNL1        0.1668
     50 H           7.6736    2.0780   -1.0675 H       1  UNL1        0.0807
     51 H           5.0225    1.5589   -1.0297 H       1  UNL1        0.0640
     52 H           2.8780   -1.7937   -1.2565 H       1  UNL1        0.0465
     53 H           1.6615   -1.8072    0.1045 H       1  UNL1        0.0465
     54 H           0.8049   -0.9556   -2.0613 H       1  UNL1        0.0303
     55 H           1.9546    0.3912   -1.9806 H       1  UNL1        0.0303
@<TRIPOS>BOND
     1     1     2    1
     2     2     3    1
     3     3     4    2
     4     3     5   am
     5     5     6    1
     6     6     7    1
     7     7     8    1
     8     8     9    1
     9     6    10    1
    10    10    11   ar
    11    11    12   ar
    12    12    13   ar
    13    13    14    1
    14    13    15   ar
    15    15    16   ar
    16     2    17    1
    17    17    18    1
    18    18    19    1
    19    19    20    1
    20    20    21   ar
    21    21    22   ar
    22    22    23   ar
    23    23    24   ar
    24    24    25   ar
    25    25    26   ar
    26    26    27   ar
    27    27    28   ar
    28    19    29    1
    29    29    30    1
    30    30     2    1
    31    16    10   ar
    32    28    20   ar
    33    28    24   ar
    34     1    31    1
    35     1    32    1
    36     5    33    1
    37     6    34    1
    38     7    35    1
    39     7    36    1
    40     8    37    1
    41     8    38    1
    42     9    39    1
    43    11    40    1
    44    12    41    1
    45    15    42    1
    46    16    43    1
    47    17    44    1
    48    17    45    1
    49    18    46    1
    50    18    47    1
    51    22    48    1
    52    25    49    1
    53    26    50    1
    54    27    51    1
    55    29    52    1
    56    29    53    1
    57    30    54    1
    58    30    55    1
