
     RDKit          3D

 55 58  0  0  0  0  0  0  0  0999 V2000
   -0.0040    1.6709   -1.1534 N   0  0  0  0  0  0  0  0  0  0  0  0
    0.4272    0.4714   -0.4503 C   0  0  0  0  0  0  0  0  0  0  0  0
   -0.7523   -0.3806   -0.1414 C   0  0  0  0  0  0  0  0  0  0  0  0
   -0.6748   -1.4681    0.4557 O   0  0  0  0  0  0  0  0  0  0  0  0
   -2.0451    0.0543   -0.5417 N   0  0  0  0  0  0  0  0  0  0  0  0
   -3.2571   -0.6997   -0.2898 C   0  0  2  0  0  0  0  0  0  0  0  0
   -3.8469   -1.0640   -1.6256 C   0  0  0  0  0  0  0  0  0  0  0  0
   -5.1246   -1.8587   -1.4962 C   0  0  0  0  0  0  0  0  0  0  0  0
   -5.5809   -2.1400   -2.7825 O   0  0  0  0  0  0  0  0  0  0  0  0
   -4.1955    0.1036    0.5402 C   0  0  0  0  0  0  0  0  0  0  0  0
   -4.4071    1.4224    0.2015 C   0  0  0  0  0  0  0  0  0  0  0  0
   -5.2629    2.1998    0.9398 C   0  0  0  0  0  0  0  0  0  0  0  0
   -5.9122    1.6436    2.0302 C   0  0  0  0  0  0  0  0  0  0  0  0
   -6.9995    2.6284    2.9697 Cl  0  0  0  0  0  0  0  0  0  0  0  0
   -5.6883    0.3195    2.3556 C   0  0  0  0  0  0  0  0  0  0  0  0
   -4.8332   -0.4765    1.6267 C   0  0  0  0  0  0  0  0  0  0  0  0
    1.1533    0.9130    0.7789 C   0  0  0  0  0  0  0  0  0  0  0  0
    2.6167    1.0759    0.4146 C   0  0  0  0  0  0  0  0  0  0  0  0
    3.1332   -0.2618    0.2068 N   0  0  0  0  0  0  0  0  0  0  0  0
    4.3878   -0.6677    0.7315 C   0  0  0  0  0  0  0  0  0  0  0  0
    4.5120   -1.6909    1.6025 N   0  0  0  0  0  0  0  0  0  0  0  0
    5.7038   -2.0600    2.0876 C   0  0  0  0  0  0  0  0  0  0  0  0
    6.8302   -1.4200    1.7220 N   0  0  0  0  0  0  0  0  0  0  0  0
    6.7887   -0.3943    0.8611 C   0  0  0  0  0  0  0  0  0  0  0  0
    7.7426    0.3986    0.3423 N   0  0  0  0  0  0  0  0  0  0  0  0
    7.1639    1.3012   -0.4961 C   0  0  0  0  0  0  0  0  0  0  0  0
    5.8086    1.0413   -0.4812 C   0  0  0  0  0  0  0  0  0  0  0  0
    5.5576   -0.0189    0.3649 C   0  0  0  0  0  0  0  0  0  0  0  0
    2.3111   -1.1736   -0.5630 C   0  0  0  0  0  0  0  0  0  0  0  0
    1.3524   -0.2908   -1.3616 C   0  0  0  0  0  0  0  0  0  0  0  0
   -0.6184    2.2098   -0.5209 H   0  0  0  0  0  0  0  0  0  0  0  0
   -0.4115    1.4736   -2.0790 H   0  0  0  0  0  0  0  0  0  0  0  0
   -2.1562    0.9593   -1.0459 H   0  0  0  0  0  0  0  0  0  0  0  0
   -2.9919   -1.6576    0.2481 H   0  0  0  0  0  0  0  0  0  0  0  0
   -3.9996   -0.1340   -2.1977 H   0  0  0  0  0  0  0  0  0  0  0  0
   -3.0792   -1.6508   -2.1690 H   0  0  0  0  0  0  0  0  0  0  0  0
   -4.8578   -2.8207   -1.0124 H   0  0  0  0  0  0  0  0  0  0  0  0
   -5.9042   -1.3357   -0.9474 H   0  0  0  0  0  0  0  0  0  0  0  0
   -4.8520   -2.0177   -3.4434 H   0  0  0  0  0  0  0  0  0  0  0  0
   -3.9104    1.8999   -0.6586 H   0  0  0  0  0  0  0  0  0  0  0  0
   -5.4175    3.2374    0.6581 H   0  0  0  0  0  0  0  0  0  0  0  0
   -6.2098   -0.0836    3.2112 H   0  0  0  0  0  0  0  0  0  0  0  0
   -4.6485   -1.5122    1.8689 H   0  0  0  0  0  0  0  0  0  0  0  0
    1.0558    0.1914    1.6337 H   0  0  0  0  0  0  0  0  0  0  0  0
    0.7364    1.8844    1.1524 H   0  0  0  0  0  0  0  0  0  0  0  0
    2.6780    1.6254   -0.5274 H   0  0  0  0  0  0  0  0  0  0  0  0
    3.1066    1.5868    1.2648 H   0  0  0  0  0  0  0  0  0  0  0  0
    5.8120   -2.8750    2.7828 H   0  0  0  0  0  0  0  0  0  0  0  0
    8.7683    0.3698    0.5190 H   0  0  0  0  0  0  0  0  0  0  0  0
    7.6736    2.0780   -1.0675 H   0  0  0  0  0  0  0  0  0  0  0  0
    5.0225    1.5589   -1.0297 H   0  0  0  0  0  0  0  0  0  0  0  0
    2.8780   -1.7937   -1.2565 H   0  0  0  0  0  0  0  0  0  0  0  0
    1.6615   -1.8072    0.1045 H   0  0  0  0  0  0  0  0  0  0  0  0
    0.8049   -0.9556   -2.0613 H   0  0  0  0  0  0  0  0  0  0  0  0
    1.9546    0.3912   -1.9806 H   0  0  0  0  0  0  0  0  0  0  0  0
  1  2  1  0
  2  3  1  0
  3  4  2  0
  3  5  1  0
  5  6  1  0
  6  7  1  0
  7  8  1  0
  8  9  1  0
  6 10  1  0
 10 11  2  0
 11 12  1  0
 12 13  2  0
 13 14  1  0
 13 15  1  0
 15 16  2  0
  2 17  1  0
 17 18  1  0
 18 19  1  0
 19 20  1  0
 20 21  2  0
 21 22  1  0
 22 23  2  0
 23 24  1  0
 24 25  1  0
 25 26  1  0
 26 27  2  0
 27 28  1  0
 19 29  1  0
 29 30  1  0
 30  2  1  0
 16 10  1  0
 28 20  1  0
 28 24  2  0
  1 31  1  0
  1 32  1  0
  5 33  1  0
  6 34  1  1
  7 35  1  0
  7 36  1  0
  8 37  1  0
  8 38  1  0
  9 39  1  0
 11 40  1  0
 12 41  1  0
 15 42  1  0
 16 43  1  0
 17 44  1  0
 17 45  1  0
 18 46  1  0
 18 47  1  0
 22 48  1  0
 25 49  1  0
 26 50  1  0
 27 51  1  0
 29 52  1  0
 29 53  1  0
 30 54  1  0
 30 55  1  0
M  END
$$$$
