@<TRIPOS>MOLECULE
*****
 49 51 0 0 0
SMALL
GASTEIGER

@<TRIPOS>ATOM
      1 O          -2.5928    0.7061   -1.6010 O.3     1  UNL1       -0.3839
      2 C          -2.9966    0.1683   -0.3756 C.3     1  UNL1        0.0933
      3 C          -2.2948    0.9196    0.7291 C.3     1  UNL1       -0.0070
      4 C          -0.8282    0.9372    0.4798 C.3     1  UNL1        0.0018
      5 N          -0.2602   -0.1173   -0.2509 N.3     1  UNL1       -0.3021
      6 C           0.6802    0.3632   -1.2069 C.3     1  UNL1       -0.0007
      7 C           1.9244    0.9525   -0.5748 C.3     1  UNL1       -0.0332
      8 C           2.5425   -0.1813    0.2349 C.3     1  UNL1        0.0116
      9 C           3.7735    0.2273    0.9216 C.2     1  UNL1        0.1632
     10 O           3.5313    0.9269    1.9153 O.2     1  UNL1       -0.2921
     11 C           5.1456   -0.1005    0.5541 C.ar    1  UNL1        0.0176
     12 C           6.1300    0.4133    1.3748 C.ar    1  UNL1       -0.0486
     13 C           7.4372    0.1201    1.0519 C.ar    1  UNL1       -0.0258
     14 C           7.7467   -0.6541   -0.0452 C.ar    1  UNL1        0.1234
     15 F           9.0188   -0.9589   -0.3874 F       1  UNL1       -0.2055
     16 C           6.7501   -1.1734   -0.8748 C.ar    1  UNL1       -0.0258
     17 C           5.4338   -0.8773   -0.5484 C.ar    1  UNL1       -0.0486
     18 C          -1.0202   -1.2383   -0.6242 C.3     1  UNL1        0.0018
     19 C          -2.4774   -1.2334   -0.3199 C.3     1  UNL1       -0.0070
     20 C          -4.4797    0.2342   -0.1990 C.ar    1  UNL1       -0.0160
     21 C          -5.1830    0.8676    0.8063 C.ar    1  UNL1       -0.0545
     22 C          -6.5629    0.8125    0.7908 C.ar    1  UNL1       -0.0430
     23 C          -7.2237    0.1287   -0.2232 C.ar    1  UNL1        0.0410
     24 CL         -8.9902    0.1203   -0.1475 Cl      1  UNL1       -0.0835
     25 C          -6.5235   -0.5052   -1.2290 C.ar    1  UNL1       -0.0430
     26 C          -5.1279   -0.4553   -1.2224 C.ar    1  UNL1       -0.0545
     27 H          -2.7591    0.0050   -2.2824 H       1  UNL1        0.2106
     28 H          -2.7492    1.9303    0.7977 H       1  UNL1        0.0309
     29 H          -2.4590    0.3910    1.7009 H       1  UNL1        0.0309
     30 H          -0.2336    1.0935    1.4163 H       1  UNL1        0.0427
     31 H          -0.6362    1.8975   -0.0937 H       1  UNL1        0.0427
     32 H           0.9312   -0.3726   -1.9962 H       1  UNL1        0.0427
     33 H           0.1974    1.2155   -1.7471 H       1  UNL1        0.0427
     34 H           2.6855    1.2063   -1.3402 H       1  UNL1        0.0282
     35 H           1.7196    1.8523    0.0064 H       1  UNL1        0.0282
     36 H           1.7880   -0.6126    0.9292 H       1  UNL1        0.0345
     37 H           2.7516   -0.9916   -0.4944 H       1  UNL1        0.0345
     38 H           5.9057    1.0234    2.2407 H       1  UNL1        0.0625
     39 H           8.2712    0.4892    1.6524 H       1  UNL1        0.0646
     40 H           6.9530   -1.7732   -1.7283 H       1  UNL1        0.0646
     41 H           4.6515   -1.2724   -1.1817 H       1  UNL1        0.0625
     42 H          -0.6211   -2.2143   -0.2269 H       1  UNL1        0.0427
     43 H          -0.8762   -1.3659   -1.7429 H       1  UNL1        0.0427
     44 H          -2.9794   -1.8714   -1.0870 H       1  UNL1        0.0309
     45 H          -2.6693   -1.7281    0.6473 H       1  UNL1        0.0309
     46 H          -4.5623    1.3655    1.5392 H       1  UNL1        0.0622
     47 H          -7.0777    1.3219    1.5966 H       1  UNL1        0.0632
     48 H          -7.1079   -1.0174   -1.9839 H       1  UNL1        0.0632
     49 H          -4.6766   -0.9745   -2.0409 H       1  UNL1        0.0622
@<TRIPOS>BOND
     1     1     2    1
     2     2     3    1
     3     3     4    1
     4     4     5    1
     5     5     6    1
     6     6     7    1
     7     7     8    1
     8     8     9    1
     9     9    10    2
    10     9    11    1
    11    11    12   ar
    12    12    13   ar
    13    13    14   ar
    14    14    15    1
    15    14    16   ar
    16    16    17   ar
    17     5    18    1
    18    18    19    1
    19     2    20    1
    20    20    21   ar
    21    21    22   ar
    22    22    23   ar
    23    23    24    1
    24    23    25   ar
    25    25    26   ar
    26    19     2    1
    27    26    20   ar
    28    17    11   ar
    29     1    27    1
    30     3    28    1
    31     3    29    1
    32     4    30    1
    33     4    31    1
    34     6    32    1
    35     6    33    1
    36     7    34    1
    37     7    35    1
    38     8    36    1
    39     8    37    1
    40    12    38    1
    41    13    39    1
    42    16    40    1
    43    17    41    1
    44    18    42    1
    45    18    43    1
    46    19    44    1
    47    19    45    1
    48    21    46    1
    49    22    47    1
    50    25    48    1
    51    26    49    1
