@<TRIPOS>MOLECULE
*****
 55 59 0 0 0
SMALL
GASTEIGER

@<TRIPOS>ATOM
      1 C          -3.0996   -0.6802   -3.6334 C.3     1  UNL1       -0.0598
      2 C          -3.6131   -0.1136   -2.3168 C.3     1  UNL1       -0.0111
      3 C          -3.0026   -0.8041   -1.1678 C.ar    1  UNL1        0.0688
      4 N          -3.6742   -1.7345   -0.4257 N.ar    1  UNL1       -0.1751
      5 N          -2.8880   -2.1790    0.5237 N.ar    1  UNL1       -0.2564
      6 C          -3.2095   -3.1680    1.5286 C.3     1  UNL1        0.0655
      7 C          -3.8046   -2.5287    2.7741 C.3     1  UNL1        0.0637
      8 O          -2.9345   -1.6300    3.3516 O.3     1  UNL1       -0.3932
      9 C          -1.6928   -1.5690    0.4422 C.ar    1  UNL1        0.1294
     10 C          -1.7517   -0.6988   -0.6195 C.ar    1  UNL1        0.0307
     11 C          -0.4641    0.0458   -0.7793 C.3     1  UNL1        0.0854
     12 C          -0.7423    1.5018   -0.5381 C.ar    1  UNL1       -0.0221
     13 C          -0.6329    2.4124   -1.5539 C.ar    1  UNL1       -0.0551
     14 C          -0.8886    3.7528   -1.3591 C.ar    1  UNL1       -0.0431
     15 C          -1.2641    4.2065   -0.1202 C.ar    1  UNL1        0.0410
     16 CL         -1.5917    5.9184    0.1332 Cl      1  UNL1       -0.0835
     17 C          -1.3795    3.2951    0.9208 C.ar    1  UNL1       -0.0431
     18 C          -1.1197    1.9567    0.7075 C.ar    1  UNL1       -0.0551
     19 N           0.4051   -0.4977    0.2506 N.am    1  UNL1       -0.2545
     20 C           1.7613   -0.1235    0.4287 C.ar    1  UNL1        0.0387
     21 C           2.2052    0.8779    1.2373 C.ar    1  UNL1       -0.0337
     22 C           3.5403    1.2120    1.3768 C.ar    1  UNL1       -0.0032
     23 C           3.9743    2.3006    2.2592 C.3     1  UNL1       -0.0361
     24 C           4.4582    0.4815    0.6514 C.ar    1  UNL1        0.1705
     25 O           5.7783    0.5203    0.5397 O.2     1  UNL1       -0.3541
     26 N           6.2054   -0.3845   -0.2811 N.ar    1  UNL1       -0.0823
     27 C           5.1796   -1.0968   -0.7780 C.ar    1  UNL1        0.0883
     28 C           5.2098   -2.2255   -1.7452 C.3     1  UNL1       -0.0185
     29 C           4.0535   -0.5420   -0.1800 C.ar    1  UNL1        0.0460
     30 C           2.7232   -0.8400   -0.2897 C.ar    1  UNL1       -0.0276
     31 C          -0.3371   -1.4502    1.0015 C.2     1  UNL1        0.2700
     32 O           0.1045   -2.0902    1.9921 O.2     1  UNL1       -0.2679
     33 H          -3.3976   -0.0005   -4.4418 H       1  UNL1        0.0233
     34 H          -3.5450   -1.6905   -3.8163 H       1  UNL1        0.0233
     35 H          -1.9786   -0.7414   -3.5286 H       1  UNL1        0.0233
     36 H          -3.2662    0.9504   -2.2837 H       1  UNL1        0.0326
     37 H          -4.7187   -0.1077   -2.2783 H       1  UNL1        0.0326
     38 H          -2.2916   -3.7277    1.8004 H       1  UNL1        0.0532
     39 H          -3.9792   -3.8516    1.1194 H       1  UNL1        0.0532
     40 H          -3.9948   -3.3553    3.4914 H       1  UNL1        0.0575
     41 H          -4.7882   -2.0792    2.5583 H       1  UNL1        0.0575
     42 H          -3.4351   -0.8664    3.7350 H       1  UNL1        0.2095
     43 H           0.0124   -0.0885   -1.7475 H       1  UNL1        0.0606
     44 H          -0.3373    2.0620   -2.5320 H       1  UNL1        0.0621
     45 H          -0.7935    4.4438   -2.1795 H       1  UNL1        0.0632
     46 H          -1.6814    3.6765    1.9040 H       1  UNL1        0.0632
     47 H          -1.2174    1.2598    1.5419 H       1  UNL1        0.0621
     48 H           1.4815    1.4436    1.8049 H       1  UNL1        0.0640
     49 H           4.6440    3.0343    1.7376 H       1  UNL1        0.0279
     50 H           4.6053    1.8625    3.0619 H       1  UNL1        0.0279
     51 H           3.1217    2.8400    2.6945 H       1  UNL1        0.0279
     52 H           4.3483   -2.1772   -2.4678 H       1  UNL1        0.0294
     53 H           6.1246   -2.1768   -2.3604 H       1  UNL1        0.0294
     54 H           5.1729   -3.1979   -1.2073 H       1  UNL1        0.0294
     55 H           2.4056   -1.6375   -0.9371 H       1  UNL1        0.0644
@<TRIPOS>BOND
     1     1     2    1
     2     2     3    1
     3     3     4   ar
     4     4     5   ar
     5     5     6    1
     6     6     7    1
     7     7     8    1
     8     5     9   ar
     9     9    10   ar
    10    10    11    1
    11    11    12    1
    12    12    13   ar
    13    13    14   ar
    14    14    15   ar
    15    15    16    1
    16    15    17   ar
    17    17    18   ar
    18    11    19    1
    19    19    20    1
    20    20    21   ar
    21    21    22   ar
    22    22    23    1
    23    22    24   ar
    24    24    25   ar
    25    25    26   ar
    26    26    27   ar
    27    27    28    1
    28    27    29   ar
    29    29    30   ar
    30    19    31   am
    31    31    32    2
    32    10     3   ar
    33    18    12   ar
    34    30    20   ar
    35    31     9    1
    36    29    24   ar
    37     1    33    1
    38     1    34    1
    39     1    35    1
    40     2    36    1
    41     2    37    1
    42     6    38    1
    43     6    39    1
    44     7    40    1
    45     7    41    1
    46     8    42    1
    47    11    43    1
    48    13    44    1
    49    14    45    1
    50    17    46    1
    51    18    47    1
    52    21    48    1
    53    23    49    1
    54    23    50    1
    55    23    51    1
    56    28    52    1
    57    28    53    1
    58    28    54    1
    59    30    55    1
