
     RDKit          3D

 55 59  0  0  0  0  0  0  0  0999 V2000
   -3.0996   -0.6802   -3.6334 C   0  0  0  0  0  0  0  0  0  0  0  0
   -3.6131   -0.1136   -2.3168 C   0  0  0  0  0  0  0  0  0  0  0  0
   -3.0026   -0.8041   -1.1678 C   0  0  0  0  0  0  0  0  0  0  0  0
   -3.6742   -1.7345   -0.4257 N   0  0  0  0  0  0  0  0  0  0  0  0
   -2.8880   -2.1790    0.5237 N   0  0  0  0  0  0  0  0  0  0  0  0
   -3.2095   -3.1680    1.5286 C   0  0  0  0  0  0  0  0  0  0  0  0
   -3.8046   -2.5287    2.7741 C   0  0  0  0  0  0  0  0  0  0  0  0
   -2.9345   -1.6300    3.3516 O   0  0  0  0  0  0  0  0  0  0  0  0
   -1.6928   -1.5690    0.4422 C   0  0  0  0  0  0  0  0  0  0  0  0
   -1.7517   -0.6988   -0.6195 C   0  0  0  0  0  0  0  0  0  0  0  0
   -0.4641    0.0458   -0.7793 C   0  0  0  0  0  0  0  0  0  0  0  0
   -0.7423    1.5018   -0.5381 C   0  0  0  0  0  0  0  0  0  0  0  0
   -0.6329    2.4124   -1.5539 C   0  0  0  0  0  0  0  0  0  0  0  0
   -0.8886    3.7528   -1.3591 C   0  0  0  0  0  0  0  0  0  0  0  0
   -1.2641    4.2065   -0.1202 C   0  0  0  0  0  0  0  0  0  0  0  0
   -1.5917    5.9184    0.1332 Cl  0  0  0  0  0  0  0  0  0  0  0  0
   -1.3795    3.2951    0.9208 C   0  0  0  0  0  0  0  0  0  0  0  0
   -1.1197    1.9567    0.7075 C   0  0  0  0  0  0  0  0  0  0  0  0
    0.4051   -0.4977    0.2506 N   0  0  0  0  0  0  0  0  0  0  0  0
    1.7613   -0.1235    0.4287 C   0  0  0  0  0  0  0  0  0  0  0  0
    2.2052    0.8779    1.2373 C   0  0  0  0  0  0  0  0  0  0  0  0
    3.5403    1.2120    1.3768 C   0  0  0  0  0  0  0  0  0  0  0  0
    3.9743    2.3006    2.2592 C   0  0  0  0  0  0  0  0  0  0  0  0
    4.4582    0.4815    0.6514 C   0  0  0  0  0  0  0  0  0  0  0  0
    5.7783    0.5203    0.5397 O   0  0  0  0  0  0  0  0  0  0  0  0
    6.2054   -0.3845   -0.2811 N   0  0  0  0  0  0  0  0  0  0  0  0
    5.1796   -1.0968   -0.7780 C   0  0  0  0  0  0  0  0  0  0  0  0
    5.2098   -2.2255   -1.7452 C   0  0  0  0  0  0  0  0  0  0  0  0
    4.0535   -0.5420   -0.1800 C   0  0  0  0  0  0  0  0  0  0  0  0
    2.7232   -0.8400   -0.2897 C   0  0  0  0  0  0  0  0  0  0  0  0
   -0.3371   -1.4502    1.0015 C   0  0  0  0  0  0  0  0  0  0  0  0
    0.1045   -2.0902    1.9921 O   0  0  0  0  0  0  0  0  0  0  0  0
   -3.3976   -0.0005   -4.4418 H   0  0  0  0  0  0  0  0  0  0  0  0
   -3.5450   -1.6905   -3.8163 H   0  0  0  0  0  0  0  0  0  0  0  0
   -1.9786   -0.7414   -3.5286 H   0  0  0  0  0  0  0  0  0  0  0  0
   -3.2662    0.9504   -2.2837 H   0  0  0  0  0  0  0  0  0  0  0  0
   -4.7187   -0.1077   -2.2783 H   0  0  0  0  0  0  0  0  0  0  0  0
   -2.2916   -3.7277    1.8004 H   0  0  0  0  0  0  0  0  0  0  0  0
   -3.9792   -3.8516    1.1194 H   0  0  0  0  0  0  0  0  0  0  0  0
   -3.9948   -3.3553    3.4914 H   0  0  0  0  0  0  0  0  0  0  0  0
   -4.7882   -2.0792    2.5583 H   0  0  0  0  0  0  0  0  0  0  0  0
   -3.4351   -0.8664    3.7350 H   0  0  0  0  0  0  0  0  0  0  0  0
    0.0124   -0.0885   -1.7475 H   0  0  0  0  0  0  0  0  0  0  0  0
   -0.3373    2.0620   -2.5320 H   0  0  0  0  0  0  0  0  0  0  0  0
   -0.7935    4.4438   -2.1795 H   0  0  0  0  0  0  0  0  0  0  0  0
   -1.6814    3.6765    1.9040 H   0  0  0  0  0  0  0  0  0  0  0  0
   -1.2174    1.2598    1.5419 H   0  0  0  0  0  0  0  0  0  0  0  0
    1.4815    1.4436    1.8049 H   0  0  0  0  0  0  0  0  0  0  0  0
    4.6440    3.0343    1.7376 H   0  0  0  0  0  0  0  0  0  0  0  0
    4.6053    1.8625    3.0619 H   0  0  0  0  0  0  0  0  0  0  0  0
    3.1217    2.8400    2.6945 H   0  0  0  0  0  0  0  0  0  0  0  0
    4.3483   -2.1772   -2.4678 H   0  0  0  0  0  0  0  0  0  0  0  0
    6.1246   -2.1768   -2.3604 H   0  0  0  0  0  0  0  0  0  0  0  0
    5.1729   -3.1979   -1.2073 H   0  0  0  0  0  0  0  0  0  0  0  0
    2.4056   -1.6375   -0.9371 H   0  0  0  0  0  0  0  0  0  0  0  0
  1  2  1  0
  2  3  1  0
  3  4  2  0
  4  5  1  0
  5  6  1  0
  6  7  1  0
  7  8  1  0
  5  9  1  0
  9 10  2  0
 10 11  1  0
 11 12  1  0
 12 13  2  0
 13 14  1  0
 14 15  2  0
 15 16  1  0
 15 17  1  0
 17 18  2  0
 11 19  1  0
 19 20  1  0
 20 21  2  0
 21 22  1  0
 22 23  1  0
 22 24  2  0
 24 25  1  0
 25 26  1  0
 26 27  2  0
 27 28  1  0
 27 29  1  0
 29 30  2  0
 19 31  1  0
 31 32  2  0
 10  3  1  0
 18 12  1  0
 30 20  1  0
 31  9  1  0
 29 24  1  0
  1 33  1  0
  1 34  1  0
  1 35  1  0
  2 36  1  0
  2 37  1  0
  6 38  1  0
  6 39  1  0
  7 40  1  0
  7 41  1  0
  8 42  1  0
 11 43  1  0
 13 44  1  0
 14 45  1  0
 17 46  1  0
 18 47  1  0
 21 48  1  0
 23 49  1  0
 23 50  1  0
 23 51  1  0
 28 52  1  0
 28 53  1  0
 28 54  1  0
 30 55  1  0
M  END
$$$$
