@<TRIPOS>MOLECULE
*****
 48 50 0 0 0
SMALL
GASTEIGER

@<TRIPOS>ATOM
      1 C           4.8029   -1.7711    0.0622 C.3     1  UNL1       -0.0375
      2 C           4.9599   -0.3239   -0.1217 C.ar    1  UNL1       -0.0187
      3 C           6.1454    0.2054   -0.5697 C.ar    1  UNL1       -0.0378
      4 C           6.2723    1.5667   -0.7346 C.ar    1  UNL1        0.0701
      5 C           7.4929    2.1553   -1.1999 C.1     1  UNL1        0.1007
      6 N           8.4824    2.6455   -1.5686 N.1     1  UNL1       -0.1908
      7 C           5.1897    2.3726   -0.4412 C.ar    1  UNL1        0.0458
      8 N           4.0525    1.8573   -0.0109 N.ar    1  UNL1       -0.2488
      9 C           3.9025    0.5065    0.1609 C.ar    1  UNL1        0.1286
     10 C           2.6358   -0.0337    0.6382 C.2     1  UNL1        0.2668
     11 O           2.5243   -1.2714    0.7854 O.2     1  UNL1       -0.2682
     12 N           1.5104    0.7606    0.9498 N.am    1  UNL1       -0.2802
     13 C           0.2759    0.2562    1.4136 C.ar    1  UNL1        0.0356
     14 C           0.1148    0.1334    2.7790 C.ar    1  UNL1       -0.0193
     15 C          -1.0441   -0.3472    3.3549 C.ar    1  UNL1        0.0782
     16 CL         -1.2094   -0.4874    5.0937 Cl      1  UNL1       -0.0805
     17 C          -2.0603   -0.7087    2.4878 C.ar    1  UNL1        0.1472
     18 F          -3.1956   -1.1779    3.0156 F       1  UNL1       -0.2036
     19 C          -1.9472   -0.6049    1.1266 C.ar    1  UNL1        0.0183
     20 C          -3.0827   -1.0126    0.2684 C.3     1  UNL1        0.0951
     21 C          -3.4900   -2.4401    0.5561 C.3     1  UNL1       -0.0352
     22 C          -2.8066   -0.9116   -1.1991 C.3     1  UNL1        0.0223
     23 C          -3.0090    0.4543   -1.7761 C.3     1  UNL1        0.1997
     24 C          -3.9718    0.4478   -2.9605 C.3     1  UNL1        0.4266
     25 F          -3.4648   -0.3615   -3.9394 F       1  UNL1       -0.1669
     26 F          -5.2371    0.0450   -2.5869 F       1  UNL1       -0.1669
     27 F          -4.0723    1.7633   -3.3991 F       1  UNL1       -0.1669
     28 O          -3.5097    1.3930   -0.8574 O.2     1  UNL1       -0.4534
     29 C          -4.4010    1.0064    0.1204 C.2     1  UNL1        0.2765
     30 N          -5.5049    1.7912    0.5542 N.pl3   1  UNL1       -0.3134
     31 N          -4.2020   -0.1511    0.6674 N.2     1  UNL1       -0.2257
     32 C          -0.7730   -0.1205    0.6009 C.ar    1  UNL1       -0.0322
     33 H           4.0827   -2.2508   -0.6291 H       1  UNL1        0.0278
     34 H           5.7908   -2.2484   -0.2118 H       1  UNL1        0.0278
     35 H           4.6711   -2.0801    1.1308 H       1  UNL1        0.0278
     36 H           6.9749   -0.4395   -0.7926 H       1  UNL1        0.0634
     37 H           5.2474    3.4651   -0.5590 H       1  UNL1        0.0843
     38 H           1.6235    1.7914    0.8198 H       1  UNL1        0.1552
     39 H           0.9237    0.4212    3.4712 H       1  UNL1        0.0652
     40 H          -4.0865   -2.7795   -0.3383 H       1  UNL1        0.0256
     41 H          -2.5954   -3.1108    0.5644 H       1  UNL1        0.0256
     42 H          -4.1386   -2.5518    1.4239 H       1  UNL1        0.0256
     43 H          -3.5364   -1.5900   -1.7358 H       1  UNL1        0.0330
     44 H          -1.8145   -1.3004   -1.4802 H       1  UNL1        0.0330
     45 H          -2.0543    0.8575   -2.1692 H       1  UNL1        0.0826
     46 H          -6.4277    1.7866    0.0715 H       1  UNL1        0.1466
     47 H          -5.4174    2.4079    1.3889 H       1  UNL1        0.1466
     48 H          -0.6236   -0.0153   -0.4533 H       1  UNL1        0.0640
@<TRIPOS>BOND
     1     1     2    1
     2     2     3   ar
     3     3     4   ar
     4     4     5    1
     5     5     6    3
     6     4     7   ar
     7     7     8   ar
     8     8     9   ar
     9     9    10    1
    10    10    11    2
    11    10    12   am
    12    12    13    1
    13    13    14   ar
    14    14    15   ar
    15    15    16    1
    16    15    17   ar
    17    17    18    1
    18    17    19   ar
    19    19    20    1
    20    20    21    1
    21    20    22    1
    22    22    23    1
    23    23    24    1
    24    24    25    1
    25    24    26    1
    26    24    27    1
    27    23    28    1
    28    28    29    1
    29    29    30    1
    30    29    31    2
    31    19    32   ar
    32     9     2   ar
    33    32    13   ar
    34    31    20    1
    35     1    33    1
    36     1    34    1
    37     1    35    1
    38     3    36    1
    39     7    37    1
    40    12    38    1
    41    14    39    1
    42    21    40    1
    43    21    41    1
    44    21    42    1
    45    22    43    1
    46    22    44    1
    47    23    45    1
    48    30    46    1
    49    30    47    1
    50    32    48    1
