@<TRIPOS>MOLECULE
*****
 57 60 0 0 0
SMALL
GASTEIGER

@<TRIPOS>ATOM
      1 C          -1.0955    6.7602    0.8015 C.3     1  UNL1       -0.0191
      2 C          -1.6975    5.5939    0.1047 C.ar    1  UNL1        0.0812
      3 C          -1.3834    4.2303    0.3164 C.ar    1  UNL1        0.0082
      4 C          -2.1401    3.4662   -0.5083 C.ar    1  UNL1        0.1722
      5 C          -2.2787    2.0365   -0.7487 C.ar    1  UNL1        0.0778
      6 C          -3.4535    1.5546   -1.3417 C.ar    1  UNL1        0.0452
      7 N          -3.6008    0.2709   -1.5787 N.ar    1  UNL1       -0.2218
      8 C          -2.6842   -0.6686   -1.2909 C.ar    1  UNL1        0.2212
      9 N          -2.9232   -2.0412   -1.5785 N.pl3   1  UNL1       -0.2835
     10 C          -3.5269   -2.9343   -0.6837 C.ar    1  UNL1        0.0363
     11 C          -3.7281   -4.2484   -1.0265 C.ar    1  UNL1       -0.0220
     12 C          -4.3223   -5.1356   -0.1511 C.ar    1  UNL1        0.0441
     13 CL         -4.5608   -6.7978   -0.6232 Cl      1  UNL1       -0.0834
     14 C          -4.7406   -4.7451    1.1055 C.ar    1  UNL1       -0.0249
     15 C          -4.5369   -3.4280    1.4441 C.ar    1  UNL1        0.0441
     16 CL         -5.0629   -2.9196    3.0352 Cl      1  UNL1       -0.0834
     17 C          -3.9453   -2.5422    0.5741 C.ar    1  UNL1       -0.0220
     18 N          -1.5579   -0.2255   -0.7273 N.ar    1  UNL1       -0.1988
     19 C          -1.3322    1.0971   -0.4522 C.ar    1  UNL1        0.1349
     20 N          -0.0554    1.4443    0.0451 N.pl3   1  UNL1       -0.3255
     21 C           0.8962    0.3850    0.4145 C.3     1  UNL1        0.0221
     22 C           2.1314    1.0280    1.0669 C.3     1  UNL1       -0.0331
     23 C           3.1437   -0.0259    1.3722 C.3     1  UNL1       -0.0357
     24 C           3.7092   -0.5930    0.0872 C.3     1  UNL1        0.0100
     25 N           4.6288   -1.6574    0.3830 N.3     1  UNL1       -0.3054
     26 C           5.7431   -1.2321    1.1931 C.3     1  UNL1       -0.0128
     27 C           5.1855   -2.1193   -0.8962 C.3     1  UNL1       -0.0128
     28 C           2.5537   -1.1712   -0.6794 C.3     1  UNL1       -0.0357
     29 C           1.4167   -0.1932   -0.8904 C.3     1  UNL1       -0.0331
     30 O          -2.8842    4.3452   -1.1891 O.2     1  UNL1       -0.3543
     31 N          -2.6397    5.5494   -0.8488 N.ar    1  UNL1       -0.0829
     32 H          -1.9560    7.4050    1.1366 H       1  UNL1        0.0294
     33 H          -0.5971    6.4028    1.7151 H       1  UNL1        0.0294
     34 H          -0.4255    7.3383    0.1266 H       1  UNL1        0.0294
     35 H          -0.6778    3.9259    1.0566 H       1  UNL1        0.0674
     36 H          -4.2026    2.3102   -1.5759 H       1  UNL1        0.0839
     37 H          -2.6242   -2.3833   -2.5158 H       1  UNL1        0.1550
     38 H          -3.4058   -4.5916   -2.0216 H       1  UNL1        0.0651
     39 H          -5.2073   -5.4242    1.8044 H       1  UNL1        0.0647
     40 H          -3.7936   -1.5154    0.8553 H       1  UNL1        0.0651
     41 H           0.2908    2.3836    0.1405 H       1  UNL1        0.1478
     42 H           0.4373   -0.3654    1.0491 H       1  UNL1        0.0498
     43 H           2.5419    1.7069    0.2673 H       1  UNL1        0.0284
     44 H           1.8629    1.6145    1.9524 H       1  UNL1        0.0284
     45 H           2.6810   -0.8289    1.9885 H       1  UNL1        0.0281
     46 H           3.9715    0.4219    1.9585 H       1  UNL1        0.0281
     47 H           4.2215    0.2155   -0.4385 H       1  UNL1        0.0462
     48 H           5.5033   -1.3198    2.2765 H       1  UNL1        0.0391
     49 H           6.0419   -0.2030    0.9134 H       1  UNL1        0.0391
     50 H           6.6066   -1.8883    0.9352 H       1  UNL1        0.0391
     51 H           4.4766   -2.7730   -1.4305 H       1  UNL1        0.0391
     52 H           6.1352   -2.6716   -0.7464 H       1  UNL1        0.0391
     53 H           5.4262   -1.2409   -1.5350 H       1  UNL1        0.0391
     54 H           2.1524   -2.0238   -0.0894 H       1  UNL1        0.0281
     55 H           2.9154   -1.4643   -1.6687 H       1  UNL1        0.0281
     56 H           1.7597    0.6477   -1.5254 H       1  UNL1        0.0284
     57 H           0.6076   -0.7620   -1.3576 H       1  UNL1        0.0284
@<TRIPOS>BOND
     1     1     2    1
     2     2     3   ar
     3     3     4   ar
     4     4     5    1
     5     5     6   ar
     6     6     7   ar
     7     7     8   ar
     8     8     9    1
     9     9    10    1
    10    10    11   ar
    11    11    12   ar
    12    12    13    1
    13    12    14   ar
    14    14    15   ar
    15    15    16    1
    16    15    17   ar
    17     8    18   ar
    18    18    19   ar
    19    19    20    1
    20    20    21    1
    21    21    22    1
    22    22    23    1
    23    23    24    1
    24    24    25    1
    25    25    26    1
    26    25    27    1
    27    24    28    1
    28    28    29    1
    29     4    30   ar
    30    30    31   ar
    31    31     2   ar
    32    19     5   ar
    33    29    21    1
    34    17    10   ar
    35     1    32    1
    36     1    33    1
    37     1    34    1
    38     3    35    1
    39     6    36    1
    40     9    37    1
    41    11    38    1
    42    14    39    1
    43    17    40    1
    44    20    41    1
    45    21    42    1
    46    22    43    1
    47    22    44    1
    48    23    45    1
    49    23    46    1
    50    24    47    1
    51    26    48    1
    52    26    49    1
    53    26    50    1
    54    27    51    1
    55    27    52    1
    56    27    53    1
    57    28    54    1
    58    28    55    1
    59    29    56    1
    60    29    57    1
