
     RDKit          3D

 38 40  0  0  0  0  0  0  0  0999 V2000
   -2.8207    3.6643   -0.9342 C   0  0  0  0  0  0  0  0  0  0  0  0
   -2.5860    3.0136    0.3872 C   0  0  0  0  0  0  0  0  0  0  0  0
   -1.8466    1.7694    0.2739 N   0  0  0  0  0  0  0  0  0  0  0  0
   -0.5289    1.7250    0.3244 N   0  0  0  0  0  0  0  0  0  0  0  0
    0.1748    0.5898    0.2222 C   0  0  0  0  0  0  0  0  0  0  0  0
    1.6527    0.6128    0.2872 C   0  0  0  0  0  0  0  0  0  0  0  0
    2.3547   -0.5016    0.1875 C   0  0  0  0  0  0  0  0  0  0  0  0
    3.8097   -0.5576    0.2424 C   0  0  0  0  0  0  0  0  0  0  0  0
    4.6012    0.5574    0.4051 C   0  0  0  0  0  0  0  0  0  0  0  0
    5.9805    0.4036    0.4454 C   0  0  0  0  0  0  0  0  0  0  0  0
    6.5672   -0.8273    0.3274 C   0  0  0  0  0  0  0  0  0  0  0  0
    5.7879   -1.9476    0.1646 C   0  0  0  0  0  0  0  0  0  0  0  0
    4.4304   -1.7982    0.1247 C   0  0  0  0  0  0  0  0  0  0  0  0
   -0.4400   -0.5956    0.0586 N   0  0  0  0  0  0  0  0  0  0  0  0
   -1.7899   -0.6632   -0.0062 C   0  0  0  0  0  0  0  0  0  0  0  0
   -2.4607   -1.8523   -0.1726 C   0  0  0  0  0  0  0  0  0  0  0  0
   -1.8340   -2.9325   -0.2715 O   0  0  0  0  0  0  0  0  0  0  0  0
   -3.8017   -1.8265   -0.2262 N   0  0  0  0  0  0  0  0  0  0  0  0
   -4.5644   -3.0759   -0.4035 C   0  0  0  0  0  0  0  0  0  0  0  0
   -4.4462   -0.6510   -0.1169 C   0  0  0  0  0  0  0  0  0  0  0  0
   -5.7131   -0.6439   -0.1695 O   0  0  0  0  0  0  0  0  0  0  0  0
   -3.8439    0.5390    0.0467 N   0  0  0  0  0  0  0  0  0  0  0  0
   -2.5111    0.6118    0.1114 C   0  0  0  0  0  0  0  0  0  0  0  0
   -2.2159    4.5931   -1.0752 H   0  0  0  0  0  0  0  0  0  0  0  0
   -2.6601    2.9414   -1.7596 H   0  0  0  0  0  0  0  0  0  0  0  0
   -3.8798    3.9893   -0.9886 H   0  0  0  0  0  0  0  0  0  0  0  0
   -3.5479    2.7875    0.8888 H   0  0  0  0  0  0  0  0  0  0  0  0
   -1.9867    3.6919    1.0573 H   0  0  0  0  0  0  0  0  0  0  0  0
    2.1420    1.5472    0.4163 H   0  0  0  0  0  0  0  0  0  0  0  0
    1.7735   -1.4060    0.0581 H   0  0  0  0  0  0  0  0  0  0  0  0
    4.1587    1.5375    0.5001 H   0  0  0  0  0  0  0  0  0  0  0  0
    6.5810    1.2978    0.5745 H   0  0  0  0  0  0  0  0  0  0  0  0
    7.6552   -0.9328    0.3610 H   0  0  0  0  0  0  0  0  0  0  0  0
    6.2651   -2.9282    0.0710 H   0  0  0  0  0  0  0  0  0  0  0  0
    3.8279   -2.6896   -0.0041 H   0  0  0  0  0  0  0  0  0  0  0  0
   -5.3980   -3.0057    0.3423 H   0  0  0  0  0  0  0  0  0  0  0  0
   -4.9973   -3.1381   -1.4042 H   0  0  0  0  0  0  0  0  0  0  0  0
   -3.8893   -3.8984   -0.1321 H   0  0  0  0  0  0  0  0  0  0  0  0
  1  2  1  0
  2  3  1  0
  3  4  1  0
  4  5  2  0
  5  6  1  0
  6  7  2  0
  7  8  1  0
  8  9  2  0
  9 10  1  0
 10 11  2  0
 11 12  1  0
 12 13  2  0
  5 14  1  0
 14 15  2  0
 15 16  1  0
 16 17  2  0
 16 18  1  0
 18 19  1  0
 18 20  1  0
 20 21  2  0
 20 22  1  0
 22 23  2  0
 23  3  1  0
 13  8  1  0
 23 15  1  0
  1 24  1  0
  1 25  1  0
  1 26  1  0
  2 27  1  0
  2 28  1  0
  6 29  1  0
  7 30  1  0
  9 31  1  0
 10 32  1  0
 11 33  1  0
 12 34  1  0
 13 35  1  0
 19 36  1  0
 19 37  1  0
 19 38  1  0
M  END
$$$$
