@<TRIPOS>MOLECULE
*****
 38 40 0 0 0
SMALL
GASTEIGER

@<TRIPOS>ATOM
      1 C          -2.8207    3.6643   -0.9342 C.3     1  UNL1       -0.0454
      2 C          -2.5860    3.0136    0.3872 C.3     1  UNL1        0.0411
      3 N          -1.8466    1.7694    0.2739 N.ar    1  UNL1       -0.2433
      4 N          -0.5289    1.7250    0.3244 N.ar    1  UNL1       -0.1499
      5 C           0.1748    0.5898    0.2222 C.ar    1  UNL1        0.1735
      6 C           1.6527    0.6128    0.2872 C.2     1  UNL1       -0.0152
      7 C           2.3547   -0.5016    0.1875 C.2     1  UNL1       -0.0510
      8 C           3.8097   -0.5576    0.2424 C.ar    1  UNL1       -0.0249
      9 C           4.6012    0.5574    0.4051 C.ar    1  UNL1       -0.0546
     10 C           5.9805    0.4036    0.4454 C.ar    1  UNL1       -0.0612
     11 C           6.5672   -0.8273    0.3274 C.ar    1  UNL1       -0.0617
     12 C           5.7879   -1.9476    0.1646 C.ar    1  UNL1       -0.0612
     13 C           4.4304   -1.7982    0.1247 C.ar    1  UNL1       -0.0546
     14 N          -0.4400   -0.5956    0.0586 N.ar    1  UNL1       -0.2177
     15 C          -1.7899   -0.6632   -0.0062 C.ar    1  UNL1        0.1744
     16 C          -2.4607   -1.8523   -0.1726 C.ar    1  UNL1        0.2841
     17 O          -1.8340   -2.9325   -0.2715 O.2     1  UNL1       -0.2651
     18 N          -3.8017   -1.8265   -0.2262 N.ar    1  UNL1       -0.2607
     19 C          -4.5644   -3.0759   -0.4035 C.3     1  UNL1        0.0197
     20 C          -4.4462   -0.6510   -0.1169 C.ar    1  UNL1        0.3529
     21 O          -5.7131   -0.6439   -0.1695 O.2     1  UNL1       -0.2443
     22 N          -3.8439    0.5390    0.0467 N.ar    1  UNL1       -0.1717
     23 C          -2.5111    0.6118    0.1114 C.ar    1  UNL1        0.1860
     24 H          -2.2159    4.5931   -1.0752 H       1  UNL1        0.0247
     25 H          -2.6601    2.9414   -1.7596 H       1  UNL1        0.0247
     26 H          -3.8798    3.9893   -0.9886 H       1  UNL1        0.0247
     27 H          -3.5479    2.7875    0.8888 H       1  UNL1        0.0507
     28 H          -1.9867    3.6919    1.0573 H       1  UNL1        0.0507
     29 H           2.1420    1.5472    0.4163 H       1  UNL1        0.0655
     30 H           1.7735   -1.4060    0.0581 H       1  UNL1        0.0625
     31 H           4.1587    1.5375    0.5001 H       1  UNL1        0.0623
     32 H           6.5810    1.2978    0.5745 H       1  UNL1        0.0618
     33 H           7.6552   -0.9328    0.3610 H       1  UNL1        0.0618
     34 H           6.2651   -2.9282    0.0710 H       1  UNL1        0.0618
     35 H           3.8279   -2.6896   -0.0041 H       1  UNL1        0.0623
     36 H          -5.3980   -3.0057    0.3423 H       1  UNL1        0.0458
     37 H          -4.9973   -3.1381   -1.4042 H       1  UNL1        0.0458
     38 H          -3.8893   -3.8984   -0.1321 H       1  UNL1        0.0458
@<TRIPOS>BOND
     1     1     2    1
     2     2     3    1
     3     3     4   ar
     4     4     5   ar
     5     5     6    1
     6     6     7    2
     7     7     8    1
     8     8     9   ar
     9     9    10   ar
    10    10    11   ar
    11    11    12   ar
    12    12    13   ar
    13     5    14   ar
    14    14    15   ar
    15    15    16   ar
    16    16    17    2
    17    16    18   ar
    18    18    19    1
    19    18    20   ar
    20    20    21    2
    21    20    22   ar
    22    22    23   ar
    23    23     3   ar
    24    13     8   ar
    25    23    15    1
    26     1    24    1
    27     1    25    1
    28     1    26    1
    29     2    27    1
    30     2    28    1
    31     6    29    1
    32     7    30    1
    33     9    31    1
    34    10    32    1
    35    11    33    1
    36    12    34    1
    37    13    35    1
    38    19    36    1
    39    19    37    1
    40    19    38    1
