@<TRIPOS>MOLECULE
*****
 71 74 0 0 0
SMALL
GASTEIGER

@<TRIPOS>ATOM
      1 C          -2.3273    2.7005    1.2773 C.3     1  UNL1       -0.0639
      2 C          -3.1644    1.9878    2.2843 C.3     1  UNL1       -0.0400
      3 C          -2.8926    0.5524    2.5073 C.3     1  UNL1        0.0155
      4 N          -3.0401   -0.3760    1.4617 N.am    1  UNL1       -0.2856
      5 C          -4.3271   -1.0255    1.2034 C.2     1  UNL1        0.2367
      6 O          -5.2603   -0.7691    1.9984 O.2     1  UNL1       -0.2735
      7 C          -4.5803   -1.9362    0.1056 C.3     1  UNL1        0.0999
      8 C          -5.1848   -1.4605   -1.1453 C.3     1  UNL1       -0.0236
      9 C          -6.5314   -0.8260   -1.1064 C.3     1  UNL1       -0.0446
     10 C          -6.9742   -0.4663   -2.5534 C.3     1  UNL1       -0.0626
     11 C          -6.4176    0.5280   -0.4098 C.3     1  UNL1       -0.0626
     12 N          -3.3732   -2.6851   -0.2447 N.am    1  UNL1       -0.3022
     13 C          -2.1666   -2.3128    0.3485 C.2     1  UNL1        0.2374
     14 O          -1.2887   -3.1295    0.6660 O.2     1  UNL1       -0.2734
     15 C          -1.9464   -0.8223    0.6073 C.3     1  UNL1        0.1156
     16 C          -0.5957   -0.7413    1.2761 C.3     1  UNL1       -0.0100
     17 C           0.4971   -0.9493    0.2056 C.3     1  UNL1        0.0016
     18 N           0.5739    0.1762   -0.6609 N.3     1  UNL1       -0.2980
     19 C           1.3981    1.2574   -0.2274 C.3     1  UNL1        0.0240
     20 C           2.8128    0.9089   -0.0071 C.ar    1  UNL1       -0.0331
     21 C           3.2276    0.5045    1.2501 C.ar    1  UNL1       -0.0539
     22 C           4.5613    0.1832    1.4063 C.ar    1  UNL1       -0.0190
     23 C           5.4838    0.2465    0.3817 C.ar    1  UNL1        0.1285
     24 O           6.7841   -0.1092    0.7021 O.3     1  UNL1       -0.4560
     25 C           7.8519   -0.1277   -0.1343 C.ar    1  UNL1        0.1284
     26 C           8.1543   -1.2633   -0.8399 C.ar    1  UNL1       -0.0193
     27 C           9.2458   -1.2971   -1.7008 C.ar    1  UNL1       -0.0583
     28 C          10.0247   -0.1832   -1.8431 C.ar    1  UNL1       -0.0615
     29 C           9.7341    0.9561   -1.1451 C.ar    1  UNL1       -0.0583
     30 C           8.6418    0.9804   -0.2876 C.ar    1  UNL1       -0.0193
     31 C           5.0755    0.6471   -0.8654 C.ar    1  UNL1       -0.0190
     32 C           3.7483    0.9714   -1.0391 C.ar    1  UNL1       -0.0539
     33 C          -0.7027    0.5934   -1.1200 C.3     1  UNL1        0.0016
     34 C          -1.8927   -0.1882   -0.7331 C.3     1  UNL1       -0.0100
     35 H          -1.2792    2.3433    1.2492 H       1  UNL1        0.0230
     36 H          -2.2416    3.7745    1.5801 H       1  UNL1        0.0230
     37 H          -2.7186    2.6194    0.2343 H       1  UNL1        0.0230
     38 H          -2.9472    2.4994    3.2769 H       1  UNL1        0.0278
     39 H          -4.2616    2.2166    2.1574 H       1  UNL1        0.0278
     40 H          -1.8676    0.5155    2.9940 H       1  UNL1        0.0465
     41 H          -3.6477    0.2351    3.3156 H       1  UNL1        0.0465
     42 H          -5.2671   -2.7474    0.5173 H       1  UNL1        0.0595
     43 H          -4.4783   -0.8442   -1.7876 H       1  UNL1        0.0290
     44 H          -5.3326   -2.3986   -1.7914 H       1  UNL1        0.0290
     45 H          -7.3051   -1.4699   -0.7032 H       1  UNL1        0.0296
     46 H          -7.9850    0.0065   -2.4949 H       1  UNL1        0.0232
     47 H          -6.2551    0.2597   -2.9725 H       1  UNL1        0.0232
     48 H          -7.0791   -1.3639   -3.1635 H       1  UNL1        0.0232
     49 H          -6.7754    1.3579   -1.0935 H       1  UNL1        0.0232
     50 H          -7.0282    0.5392    0.5048 H       1  UNL1        0.0232
     51 H          -5.3786    0.7929   -0.1544 H       1  UNL1        0.0232
     52 H          -3.4506   -3.4569   -0.9024 H       1  UNL1        0.1495
     53 H          -0.3750    0.2050    1.7734 H       1  UNL1        0.0303
     54 H          -0.4208   -1.5518    2.0137 H       1  UNL1        0.0303
     55 H           0.2422   -1.8286   -0.3903 H       1  UNL1        0.0427
     56 H           1.4179   -1.1865    0.7558 H       1  UNL1        0.0427
     57 H           0.9718    1.7621    0.6638 H       1  UNL1        0.0476
     58 H           1.3770    2.0283   -1.0392 H       1  UNL1        0.0476
     59 H           2.5266    0.4414    2.0991 H       1  UNL1        0.0622
     60 H           4.8619   -0.1344    2.4141 H       1  UNL1        0.0654
     61 H           7.5664   -2.1885   -0.7675 H       1  UNL1        0.0654
     62 H           9.5043   -2.1855   -2.2697 H       1  UNL1        0.0619
     63 H          10.8703   -0.2169   -2.5131 H       1  UNL1        0.0618
     64 H          10.3516    1.8265   -1.2631 H       1  UNL1        0.0619
     65 H           8.4663    1.9213    0.2389 H       1  UNL1        0.0654
     66 H           5.8062    0.6936   -1.6614 H       1  UNL1        0.0654
     67 H           3.4468    1.2833   -2.0232 H       1  UNL1        0.0622
     68 H          -0.6426    0.5129   -2.2635 H       1  UNL1        0.0427
     69 H          -0.8921    1.6790   -0.9803 H       1  UNL1        0.0427
     70 H          -2.7817    0.5045   -0.8122 H       1  UNL1        0.0303
     71 H          -2.1473   -0.9701   -1.5293 H       1  UNL1        0.0303
@<TRIPOS>BOND
     1     1     2    1
     2     2     3    1
     3     3     4    1
     4     4     5   am
     5     5     6    2
     6     5     7    1
     7     7     8    1
     8     8     9    1
     9     9    10    1
    10     9    11    1
    11     7    12    1
    12    12    13   am
    13    13    14    2
    14    13    15    1
    15    15    16    1
    16    16    17    1
    17    17    18    1
    18    18    19    1
    19    19    20    1
    20    20    21   ar
    21    21    22   ar
    22    22    23   ar
    23    23    24    1
    24    24    25    1
    25    25    26   ar
    26    26    27   ar
    27    27    28   ar
    28    28    29   ar
    29    29    30   ar
    30    23    31   ar
    31    31    32   ar
    32    18    33    1
    33    33    34    1
    34    15     4    1
    35    32    20   ar
    36    34    15    1
    37    30    25   ar
    38     1    35    1
    39     1    36    1
    40     1    37    1
    41     2    38    1
    42     2    39    1
    43     3    40    1
    44     3    41    1
    45     7    42    1
    46     8    43    1
    47     8    44    1
    48     9    45    1
    49    10    46    1
    50    10    47    1
    51    10    48    1
    52    11    49    1
    53    11    50    1
    54    11    51    1
    55    12    52    1
    56    16    53    1
    57    16    54    1
    58    17    55    1
    59    17    56    1
    60    19    57    1
    61    19    58    1
    62    21    59    1
    63    22    60    1
    64    26    61    1
    65    27    62    1
    66    28    63    1
    67    29    64    1
    68    30    65    1
    69    31    66    1
    70    32    67    1
    71    33    68    1
    72    33    69    1
    73    34    70    1
    74    34    71    1
