@<TRIPOS>MOLECULE
*****
 50 51 0 0 0
SMALL
GASTEIGER

@<TRIPOS>ATOM
      1 C          -7.6043   -0.7331   -1.2605 C.3     1  UNL1       -0.0587
      2 C          -6.8919   -0.8238    0.0385 C.3     1  UNL1       -0.0215
      3 C          -6.5472   -2.2635    0.4317 C.3     1  UNL1       -0.0587
      4 C          -5.6005   -0.1125   -0.0300 C.ar    1  UNL1       -0.0448
      5 C          -5.2235    0.5941    1.1210 C.ar    1  UNL1       -0.0580
      6 C          -4.0637    1.3087    1.2588 C.ar    1  UNL1       -0.0551
      7 C          -3.1894    1.3494    0.1974 C.ar    1  UNL1       -0.0104
      8 C          -1.8390    2.0081    0.0392 C.3     1  UNL1        0.1147
      9 O          -0.9099    1.0035    0.3990 O.3     1  UNL1       -0.4859
     10 C           0.4382    1.2805    0.3108 C.ar    1  UNL1        0.1392
     11 C           1.1806    0.1830    0.7022 C.ar    1  UNL1        0.0828
     12 CL          0.4947   -1.3623    1.2393 Cl      1  UNL1       -0.0797
     13 C           2.5581    0.2473    0.6843 C.ar    1  UNL1       -0.0362
     14 C           3.2410    1.3722    0.2884 C.ar    1  UNL1       -0.0370
     15 C           4.7113    1.5605    0.2194 C.3     1  UNL1        0.0491
     16 C           5.3147    0.1956    0.3492 C.2     1  UNL1        0.2174
     17 O           5.3209   -0.4270    1.4413 O.2     1  UNL1       -0.2755
     18 N           5.9122   -0.4906   -0.7328 N.am    1  UNL1       -0.3138
     19 C           6.5585   -1.7518   -0.9634 C.3     1  UNL1        0.0239
     20 C           7.8123   -1.9931   -0.1910 C.3     1  UNL1        0.0087
     21 N           7.6704   -1.9985    1.2165 N.3     1  UNL1       -0.3285
     22 C           2.4978    2.4735   -0.1047 C.ar    1  UNL1       -0.0546
     23 C           1.1198    2.4356   -0.0960 C.ar    1  UNL1       -0.0182
     24 C          -3.5495    0.6492   -0.9607 C.ar    1  UNL1       -0.0551
     25 C          -4.7204   -0.0643   -1.0785 C.ar    1  UNL1       -0.0580
     26 H          -7.7748    0.3369   -1.4958 H       1  UNL1        0.0235
     27 H          -8.5662   -1.3100   -1.2690 H       1  UNL1        0.0235
     28 H          -6.9234   -1.1286   -2.0635 H       1  UNL1        0.0235
     29 H          -7.4991   -0.3908    0.8649 H       1  UNL1        0.0343
     30 H          -7.4098   -2.9386    0.3031 H       1  UNL1        0.0235
     31 H          -5.6274   -2.6004   -0.0739 H       1  UNL1        0.0235
     32 H          -6.3212   -2.2300    1.5324 H       1  UNL1        0.0235
     33 H          -5.8772    0.6024    1.9951 H       1  UNL1        0.0620
     34 H          -3.6934    1.8704    2.0841 H       1  UNL1        0.0621
     35 H          -1.6935    2.2910   -0.9967 H       1  UNL1        0.0748
     36 H          -1.7790    2.8821    0.7286 H       1  UNL1        0.0748
     37 H           3.1434   -0.6089    0.9833 H       1  UNL1        0.0636
     38 H           5.0521    2.2301    1.0281 H       1  UNL1        0.0407
     39 H           5.0215    2.0039   -0.7490 H       1  UNL1        0.0407
     40 H           5.8662    0.1009   -1.6147 H       1  UNL1        0.1487
     41 H           6.6196   -2.0135   -2.0275 H       1  UNL1        0.0474
     42 H           5.7978   -2.5182   -0.5508 H       1  UNL1        0.0474
     43 H           8.2455   -2.9493   -0.5824 H       1  UNL1        0.0437
     44 H           8.5787   -1.2118   -0.4842 H       1  UNL1        0.0437
     45 H           6.9498   -2.5654    1.6530 H       1  UNL1        0.1183
     46 H           7.9008   -1.1654    1.7395 H       1  UNL1        0.1183
     47 H           2.8309    3.4668   -0.4513 H       1  UNL1        0.0622
     48 H           0.3959    3.2006   -0.3684 H       1  UNL1        0.0655
     49 H          -2.9377    0.6096   -1.8701 H       1  UNL1        0.0621
     50 H          -4.9906   -0.6050   -1.9750 H       1  UNL1        0.0620
@<TRIPOS>BOND
     1     1     2    1
     2     2     3    1
     3     2     4    1
     4     4     5   ar
     5     5     6   ar
     6     6     7   ar
     7     7     8    1
     8     8     9    1
     9     9    10    1
    10    10    11   ar
    11    11    12    1
    12    11    13   ar
    13    13    14   ar
    14    14    15    1
    15    15    16    1
    16    16    17    2
    17    16    18   am
    18    18    19    1
    19    19    20    1
    20    20    21    1
    21    14    22   ar
    22    22    23   ar
    23     7    24   ar
    24    24    25   ar
    25    25     4   ar
    26    23    10   ar
    27     1    26    1
    28     1    27    1
    29     1    28    1
    30     2    29    1
    31     3    30    1
    32     3    31    1
    33     3    32    1
    34     5    33    1
    35     6    34    1
    36     8    35    1
    37     8    36    1
    38    13    37    1
    39    15    38    1
    40    15    39    1
    41    18    40    1
    42    19    41    1
    43    19    42    1
    44    20    43    1
    45    20    44    1
    46    21    45    1
    47    21    46    1
    48    22    47    1
    49    23    48    1
    50    24    49    1
    51    25    50    1
