
     RDKit          3D

 50 51  0  0  0  0  0  0  0  0999 V2000
   -7.6043   -0.7331   -1.2605 C   0  0  0  0  0  0  0  0  0  0  0  0
   -6.8919   -0.8238    0.0385 C   0  0  0  0  0  0  0  0  0  0  0  0
   -6.5472   -2.2635    0.4317 C   0  0  0  0  0  0  0  0  0  0  0  0
   -5.6005   -0.1125   -0.0300 C   0  0  0  0  0  0  0  0  0  0  0  0
   -5.2235    0.5941    1.1210 C   0  0  0  0  0  0  0  0  0  0  0  0
   -4.0637    1.3087    1.2588 C   0  0  0  0  0  0  0  0  0  0  0  0
   -3.1894    1.3494    0.1974 C   0  0  0  0  0  0  0  0  0  0  0  0
   -1.8390    2.0081    0.0392 C   0  0  0  0  0  0  0  0  0  0  0  0
   -0.9099    1.0035    0.3990 O   0  0  0  0  0  0  0  0  0  0  0  0
    0.4382    1.2805    0.3108 C   0  0  0  0  0  0  0  0  0  0  0  0
    1.1806    0.1830    0.7022 C   0  0  0  0  0  0  0  0  0  0  0  0
    0.4947   -1.3623    1.2393 Cl  0  0  0  0  0  0  0  0  0  0  0  0
    2.5581    0.2473    0.6843 C   0  0  0  0  0  0  0  0  0  0  0  0
    3.2410    1.3722    0.2884 C   0  0  0  0  0  0  0  0  0  0  0  0
    4.7113    1.5605    0.2194 C   0  0  0  0  0  0  0  0  0  0  0  0
    5.3147    0.1956    0.3492 C   0  0  0  0  0  0  0  0  0  0  0  0
    5.3209   -0.4270    1.4413 O   0  0  0  0  0  0  0  0  0  0  0  0
    5.9122   -0.4906   -0.7328 N   0  0  0  0  0  0  0  0  0  0  0  0
    6.5585   -1.7518   -0.9634 C   0  0  0  0  0  0  0  0  0  0  0  0
    7.8123   -1.9931   -0.1910 C   0  0  0  0  0  0  0  0  0  0  0  0
    7.6704   -1.9985    1.2165 N   0  0  0  0  0  0  0  0  0  0  0  0
    2.4978    2.4735   -0.1047 C   0  0  0  0  0  0  0  0  0  0  0  0
    1.1198    2.4356   -0.0960 C   0  0  0  0  0  0  0  0  0  0  0  0
   -3.5495    0.6492   -0.9607 C   0  0  0  0  0  0  0  0  0  0  0  0
   -4.7204   -0.0643   -1.0785 C   0  0  0  0  0  0  0  0  0  0  0  0
   -7.7748    0.3369   -1.4958 H   0  0  0  0  0  0  0  0  0  0  0  0
   -8.5662   -1.3100   -1.2690 H   0  0  0  0  0  0  0  0  0  0  0  0
   -6.9234   -1.1286   -2.0635 H   0  0  0  0  0  0  0  0  0  0  0  0
   -7.4991   -0.3908    0.8649 H   0  0  0  0  0  0  0  0  0  0  0  0
   -7.4098   -2.9386    0.3031 H   0  0  0  0  0  0  0  0  0  0  0  0
   -5.6274   -2.6004   -0.0739 H   0  0  0  0  0  0  0  0  0  0  0  0
   -6.3212   -2.2300    1.5324 H   0  0  0  0  0  0  0  0  0  0  0  0
   -5.8772    0.6024    1.9951 H   0  0  0  0  0  0  0  0  0  0  0  0
   -3.6934    1.8704    2.0841 H   0  0  0  0  0  0  0  0  0  0  0  0
   -1.6935    2.2910   -0.9967 H   0  0  0  0  0  0  0  0  0  0  0  0
   -1.7790    2.8821    0.7286 H   0  0  0  0  0  0  0  0  0  0  0  0
    3.1434   -0.6089    0.9833 H   0  0  0  0  0  0  0  0  0  0  0  0
    5.0521    2.2301    1.0281 H   0  0  0  0  0  0  0  0  0  0  0  0
    5.0215    2.0039   -0.7490 H   0  0  0  0  0  0  0  0  0  0  0  0
    5.8662    0.1009   -1.6147 H   0  0  0  0  0  0  0  0  0  0  0  0
    6.6196   -2.0135   -2.0275 H   0  0  0  0  0  0  0  0  0  0  0  0
    5.7978   -2.5182   -0.5508 H   0  0  0  0  0  0  0  0  0  0  0  0
    8.2455   -2.9493   -0.5824 H   0  0  0  0  0  0  0  0  0  0  0  0
    8.5787   -1.2118   -0.4842 H   0  0  0  0  0  0  0  0  0  0  0  0
    6.9498   -2.5654    1.6530 H   0  0  0  0  0  0  0  0  0  0  0  0
    7.9008   -1.1654    1.7395 H   0  0  0  0  0  0  0  0  0  0  0  0
    2.8309    3.4668   -0.4513 H   0  0  0  0  0  0  0  0  0  0  0  0
    0.3959    3.2006   -0.3684 H   0  0  0  0  0  0  0  0  0  0  0  0
   -2.9377    0.6096   -1.8701 H   0  0  0  0  0  0  0  0  0  0  0  0
   -4.9906   -0.6050   -1.9750 H   0  0  0  0  0  0  0  0  0  0  0  0
  1  2  1  0
  2  3  1  0
  2  4  1  0
  4  5  2  0
  5  6  1  0
  6  7  2  0
  7  8  1  0
  8  9  1  0
  9 10  1  0
 10 11  2  0
 11 12  1  0
 11 13  1  0
 13 14  2  0
 14 15  1  0
 15 16  1  0
 16 17  2  0
 16 18  1  0
 18 19  1  0
 19 20  1  0
 20 21  1  0
 14 22  1  0
 22 23  2  0
  7 24  1  0
 24 25  2  0
 25  4  1  0
 23 10  1  0
  1 26  1  0
  1 27  1  0
  1 28  1  0
  2 29  1  0
  3 30  1  0
  3 31  1  0
  3 32  1  0
  5 33  1  0
  6 34  1  0
  8 35  1  0
  8 36  1  0
 13 37  1  0
 15 38  1  0
 15 39  1  0
 18 40  1  0
 19 41  1  0
 19 42  1  0
 20 43  1  0
 20 44  1  0
 21 45  1  0
 21 46  1  0
 22 47  1  0
 23 48  1  0
 24 49  1  0
 25 50  1  0
M  END
$$$$
