@<TRIPOS>MOLECULE
*****
 51 54 0 0 0
SMALL
GASTEIGER

@<TRIPOS>ATOM
      1 C           4.8157    0.3232    1.6198 C.3     1  UNL1       -0.0363
      2 C           4.1258    0.0714    0.3079 C.3     1  UNL1        0.0622
      3 C           5.1722   -0.4284   -0.6740 C.3     1  UNL1       -0.0363
      4 O           3.5572    1.2609   -0.1447 O.3     1  UNL1       -0.3891
      5 C           3.0798   -0.9648    0.4853 C.3     1  UNL1       -0.0064
      6 C           1.9876   -0.6551    1.4495 C.3     1  UNL1        0.0273
      7 N           1.2030    0.5042    1.1496 N.ar    1  UNL1       -0.3283
      8 C           1.4502    1.7469    1.5697 C.ar    1  UNL1        0.0971
      9 N           0.5010    2.5426    1.0917 N.ar    1  UNL1       -0.2351
     10 C          -0.3753    1.8358    0.3564 C.ar    1  UNL1        0.0983
     11 C          -1.5430    2.3661   -0.3245 C.ar    1  UNL1        0.0040
     12 C          -1.3525    3.3003   -1.3190 C.ar    1  UNL1       -0.0497
     13 C          -2.4097    3.8558   -2.0163 C.ar    1  UNL1       -0.0244
     14 C          -3.6922    3.4646   -1.7089 C.ar    1  UNL1        0.1417
     15 F          -4.7682    3.9858   -2.3711 F       1  UNL1       -0.2040
     16 C          -3.9240    2.5256   -0.7132 C.ar    1  UNL1        0.0767
     17 CL         -5.5675    2.0523   -0.3522 Cl      1  UNL1       -0.0806
     18 C          -2.8296    1.9884   -0.0321 C.ar    1  UNL1       -0.0313
     19 C           0.0904    0.5385    0.4060 C.ar    1  UNL1        0.0966
     20 C          -0.5772   -0.5912   -0.2686 C.ar    1  UNL1        0.1103
     21 C          -0.0685   -1.1233   -1.4354 C.ar    1  UNL1       -0.0290
     22 C          -0.6430   -2.1812   -2.1072 C.ar    1  UNL1       -0.0153
     23 C          -1.8014   -2.7038   -1.5303 C.ar    1  UNL1        0.1549
     24 N          -2.6302   -3.7091   -1.8733 N.ar    1  UNL1       -0.2339
     25 C          -3.6121   -3.7917   -0.9516 C.ar    1  UNL1        0.0605
     26 C          -3.4001   -2.8166   -0.0036 C.ar    1  UNL1        0.1470
     27 C          -4.2140   -2.5412    1.1736 C.2     1  UNL1        0.2615
     28 N          -3.9174   -1.5177    2.0982 N.am    1  UNL1       -0.3240
     29 O          -5.2521   -3.2339    1.4178 O.2     1  UNL1       -0.2687
     30 N          -2.2844   -2.1731   -0.3923 N.ar    1  UNL1       -0.2076
     31 N          -1.6962   -1.1445    0.2303 N.ar    1  UNL1       -0.1628
     32 H           5.3621   -0.6156    1.8908 H       1  UNL1        0.0257
     33 H           5.4954    1.1971    1.5882 H       1  UNL1        0.0257
     34 H           4.0462    0.4638    2.3939 H       1  UNL1        0.0257
     35 H           4.7420   -0.4954   -1.6950 H       1  UNL1        0.0257
     36 H           5.4121   -1.4722   -0.3567 H       1  UNL1        0.0257
     37 H           6.1083    0.1514   -0.6255 H       1  UNL1        0.0257
     38 H           4.2494    1.9342   -0.2766 H       1  UNL1        0.2101
     39 H           3.6046   -1.8757    0.9065 H       1  UNL1        0.0310
     40 H           2.7021   -1.3148   -0.4998 H       1  UNL1        0.0310
     41 H           2.3879   -0.6715    2.4937 H       1  UNL1        0.0493
     42 H           1.3009   -1.5592    1.4267 H       1  UNL1        0.0493
     43 H           2.2985    2.0657    2.2076 H       1  UNL1        0.1029
     44 H          -0.3428    3.6388   -1.5939 H       1  UNL1        0.0625
     45 H          -2.2758    4.5845   -2.7939 H       1  UNL1        0.0647
     46 H          -3.0183    1.2600    0.7416 H       1  UNL1        0.0640
     47 H           0.8224   -0.6771   -1.8302 H       1  UNL1        0.0641
     48 H          -0.2707   -2.6107   -3.0086 H       1  UNL1        0.0655
     49 H          -4.4251   -4.5106   -0.9674 H       1  UNL1        0.0854
     50 H          -3.4737   -1.7379    3.0032 H       1  UNL1        0.1453
     51 H          -4.1500   -0.5416    1.8577 H       1  UNL1        0.1453
@<TRIPOS>BOND
     1     1     2    1
     2     2     3    1
     3     2     4    1
     4     2     5    1
     5     5     6    1
     6     6     7    1
     7     7     8   ar
     8     8     9   ar
     9     9    10   ar
    10    10    11    1
    11    11    12   ar
    12    12    13   ar
    13    13    14   ar
    14    14    15    1
    15    14    16   ar
    16    16    17    1
    17    16    18   ar
    18    10    19   ar
    19    19    20    1
    20    20    21   ar
    21    21    22   ar
    22    22    23   ar
    23    23    24   ar
    24    24    25   ar
    25    25    26   ar
    26    26    27    1
    27    27    28   am
    28    27    29    2
    29    26    30   ar
    30    30    31   ar
    31    19     7   ar
    32    31    20   ar
    33    18    11   ar
    34    30    23   ar
    35     1    32    1
    36     1    33    1
    37     1    34    1
    38     3    35    1
    39     3    36    1
    40     3    37    1
    41     4    38    1
    42     5    39    1
    43     5    40    1
    44     6    41    1
    45     6    42    1
    46     8    43    1
    47    12    44    1
    48    13    45    1
    49    18    46    1
    50    21    47    1
    51    22    48    1
    52    25    49    1
    53    28    50    1
    54    28    51    1
