
     RDKit          3D

 51 54  0  0  0  0  0  0  0  0999 V2000
    4.8157    0.3232    1.6198 C   0  0  0  0  0  0  0  0  0  0  0  0
    4.1258    0.0714    0.3079 C   0  0  0  0  0  0  0  0  0  0  0  0
    5.1722   -0.4284   -0.6740 C   0  0  0  0  0  0  0  0  0  0  0  0
    3.5572    1.2609   -0.1447 O   0  0  0  0  0  0  0  0  0  0  0  0
    3.0798   -0.9648    0.4853 C   0  0  0  0  0  0  0  0  0  0  0  0
    1.9876   -0.6551    1.4495 C   0  0  0  0  0  0  0  0  0  0  0  0
    1.2030    0.5042    1.1496 N   0  0  0  0  0  0  0  0  0  0  0  0
    1.4502    1.7469    1.5697 C   0  0  0  0  0  0  0  0  0  0  0  0
    0.5010    2.5426    1.0917 N   0  0  0  0  0  0  0  0  0  0  0  0
   -0.3753    1.8358    0.3564 C   0  0  0  0  0  0  0  0  0  0  0  0
   -1.5430    2.3661   -0.3245 C   0  0  0  0  0  0  0  0  0  0  0  0
   -1.3525    3.3003   -1.3190 C   0  0  0  0  0  0  0  0  0  0  0  0
   -2.4097    3.8558   -2.0163 C   0  0  0  0  0  0  0  0  0  0  0  0
   -3.6922    3.4646   -1.7089 C   0  0  0  0  0  0  0  0  0  0  0  0
   -4.7682    3.9858   -2.3711 F   0  0  0  0  0  0  0  0  0  0  0  0
   -3.9240    2.5256   -0.7132 C   0  0  0  0  0  0  0  0  0  0  0  0
   -5.5675    2.0523   -0.3522 Cl  0  0  0  0  0  0  0  0  0  0  0  0
   -2.8296    1.9884   -0.0321 C   0  0  0  0  0  0  0  0  0  0  0  0
    0.0904    0.5385    0.4060 C   0  0  0  0  0  0  0  0  0  0  0  0
   -0.5772   -0.5912   -0.2686 C   0  0  0  0  0  0  0  0  0  0  0  0
   -0.0685   -1.1233   -1.4354 C   0  0  0  0  0  0  0  0  0  0  0  0
   -0.6430   -2.1812   -2.1072 C   0  0  0  0  0  0  0  0  0  0  0  0
   -1.8014   -2.7038   -1.5303 C   0  0  0  0  0  0  0  0  0  0  0  0
   -2.6302   -3.7091   -1.8733 N   0  0  0  0  0  0  0  0  0  0  0  0
   -3.6121   -3.7917   -0.9516 C   0  0  0  0  0  0  0  0  0  0  0  0
   -3.4001   -2.8166   -0.0036 C   0  0  0  0  0  0  0  0  0  0  0  0
   -4.2140   -2.5412    1.1736 C   0  0  0  0  0  0  0  0  0  0  0  0
   -3.9174   -1.5177    2.0982 N   0  0  0  0  0  0  0  0  0  0  0  0
   -5.2521   -3.2339    1.4178 O   0  0  0  0  0  0  0  0  0  0  0  0
   -2.2844   -2.1731   -0.3923 N   0  0  0  0  0  0  0  0  0  0  0  0
   -1.6962   -1.1445    0.2303 N   0  0  0  0  0  0  0  0  0  0  0  0
    5.3621   -0.6156    1.8908 H   0  0  0  0  0  0  0  0  0  0  0  0
    5.4954    1.1971    1.5882 H   0  0  0  0  0  0  0  0  0  0  0  0
    4.0462    0.4638    2.3939 H   0  0  0  0  0  0  0  0  0  0  0  0
    4.7420   -0.4954   -1.6950 H   0  0  0  0  0  0  0  0  0  0  0  0
    5.4121   -1.4722   -0.3567 H   0  0  0  0  0  0  0  0  0  0  0  0
    6.1083    0.1514   -0.6255 H   0  0  0  0  0  0  0  0  0  0  0  0
    4.2494    1.9342   -0.2766 H   0  0  0  0  0  0  0  0  0  0  0  0
    3.6046   -1.8757    0.9065 H   0  0  0  0  0  0  0  0  0  0  0  0
    2.7021   -1.3148   -0.4998 H   0  0  0  0  0  0  0  0  0  0  0  0
    2.3879   -0.6715    2.4937 H   0  0  0  0  0  0  0  0  0  0  0  0
    1.3009   -1.5592    1.4267 H   0  0  0  0  0  0  0  0  0  0  0  0
    2.2985    2.0657    2.2076 H   0  0  0  0  0  0  0  0  0  0  0  0
   -0.3428    3.6388   -1.5939 H   0  0  0  0  0  0  0  0  0  0  0  0
   -2.2758    4.5845   -2.7939 H   0  0  0  0  0  0  0  0  0  0  0  0
   -3.0183    1.2600    0.7416 H   0  0  0  0  0  0  0  0  0  0  0  0
    0.8224   -0.6771   -1.8302 H   0  0  0  0  0  0  0  0  0  0  0  0
   -0.2707   -2.6107   -3.0086 H   0  0  0  0  0  0  0  0  0  0  0  0
   -4.4251   -4.5106   -0.9674 H   0  0  0  0  0  0  0  0  0  0  0  0
   -3.4737   -1.7379    3.0032 H   0  0  0  0  0  0  0  0  0  0  0  0
   -4.1500   -0.5416    1.8577 H   0  0  0  0  0  0  0  0  0  0  0  0
  1  2  1  0
  2  3  1  0
  2  4  1  0
  2  5  1  0
  5  6  1  0
  6  7  1  0
  7  8  1  0
  8  9  2  0
  9 10  1  0
 10 11  1  0
 11 12  2  0
 12 13  1  0
 13 14  2  0
 14 15  1  0
 14 16  1  0
 16 17  1  0
 16 18  2  0
 10 19  2  0
 19 20  1  0
 20 21  1  0
 21 22  2  0
 22 23  1  0
 23 24  2  0
 24 25  1  0
 25 26  2  0
 26 27  1  0
 27 28  1  0
 27 29  2  0
 26 30  1  0
 30 31  1  0
 19  7  1  0
 31 20  2  0
 18 11  1  0
 30 23  1  0
  1 32  1  0
  1 33  1  0
  1 34  1  0
  3 35  1  0
  3 36  1  0
  3 37  1  0
  4 38  1  0
  5 39  1  0
  5 40  1  0
  6 41  1  0
  6 42  1  0
  8 43  1  0
 12 44  1  0
 13 45  1  0
 18 46  1  0
 21 47  1  0
 22 48  1  0
 25 49  1  0
 28 50  1  0
 28 51  1  0
M  END
$$$$
