@<TRIPOS>MOLECULE
*****
 44 46 0 0 0
SMALL
GASTEIGER

@<TRIPOS>ATOM
      1 C           4.7522    2.1752   -1.8721 C.3     1  UNL1        0.0790
      2 O           4.5910    1.3110   -0.7761 O.3     1  UNL1       -0.4915
      3 C           3.3806    0.7212   -0.4583 C.ar    1  UNL1        0.1615
      4 C           2.2821    0.9881   -1.2461 C.ar    1  UNL1       -0.0160
      5 C           1.0693    0.4022   -0.9347 C.ar    1  UNL1       -0.0530
      6 C           0.9555   -0.4403    0.1512 C.ar    1  UNL1       -0.0210
      7 C          -0.3621   -1.0599    0.4686 C.3     1  UNL1        0.0795
      8 C          -1.3281   -0.0811    1.0374 C.3     1  UNL1        0.0164
      9 C          -2.4958   -0.1409    0.1274 C.2     1  UNL1        0.0688
     10 C          -3.7151    0.6498    0.3152 C.ar    1  UNL1       -0.0022
     11 C          -3.8316    1.5101    1.3802 C.ar    1  UNL1       -0.0528
     12 C          -4.9958    2.2623    1.5555 C.ar    1  UNL1       -0.0611
     13 C          -6.0445    2.1650    0.6793 C.ar    1  UNL1       -0.0617
     14 C          -5.9353    1.3016   -0.3951 C.ar    1  UNL1       -0.0611
     15 C          -4.7748    0.5563   -0.5638 C.ar    1  UNL1       -0.0528
     16 N          -2.2596   -0.9779   -0.8212 N.2     1  UNL1       -0.1809
     17 N          -0.9977   -1.5712   -0.7158 N.am    1  UNL1       -0.1853
     18 C          -0.4011   -2.5137   -1.5902 C.2     1  UNL1        0.2322
     19 C           0.9428   -3.0261   -1.3100 C.3     1  UNL1        0.0140
     20 O          -1.0186   -2.9058   -2.5953 O.2     1  UNL1       -0.2741
     21 C           2.0736   -0.6835    0.9149 C.ar    1  UNL1       -0.0113
     22 C           3.2965   -0.1142    0.6296 C.ar    1  UNL1        0.1618
     23 O           4.4172   -0.3589    1.3963 O.3     1  UNL1       -0.4914
     24 C           4.2975   -1.2207    2.5057 C.3     1  UNL1        0.0790
     25 H           4.2652    3.1483   -1.6259 H       1  UNL1        0.0660
     26 H           5.8257    2.3298   -2.0815 H       1  UNL1        0.0660
     27 H           4.2644    1.6982   -2.7524 H       1  UNL1        0.0660
     28 H           2.3075    1.6376   -2.1076 H       1  UNL1        0.0655
     29 H           0.1723    0.5898   -1.5372 H       1  UNL1        0.0622
     30 H          -0.1283   -1.8950    1.1975 H       1  UNL1        0.0574
     31 H          -0.9192    0.9493    1.1350 H       1  UNL1        0.0351
     32 H          -1.6943   -0.4665    2.0324 H       1  UNL1        0.0351
     33 H          -3.0041    1.5838    2.0675 H       1  UNL1        0.0624
     34 H          -5.0837    2.9346    2.3901 H       1  UNL1        0.0618
     35 H          -6.9396    2.7516    0.8251 H       1  UNL1        0.0618
     36 H          -6.7570    1.2052   -1.1084 H       1  UNL1        0.0618
     37 H          -4.6978   -0.1149   -1.4046 H       1  UNL1        0.0624
     38 H           1.0600   -3.1610   -0.1992 H       1  UNL1        0.0323
     39 H           0.9950   -4.0742   -1.7284 H       1  UNL1        0.0323
     40 H           1.7650   -2.4009   -1.6898 H       1  UNL1        0.0323
     41 H           1.9962   -1.3437    1.7703 H       1  UNL1        0.0659
     42 H           5.2177   -1.3065    3.0958 H       1  UNL1        0.0660
     43 H           3.9733   -2.2141    2.1027 H       1  UNL1        0.0660
     44 H           3.4838   -0.7998    3.1452 H       1  UNL1        0.0660
@<TRIPOS>BOND
     1     1     2    1
     2     2     3    1
     3     3     4   ar
     4     4     5   ar
     5     5     6   ar
     6     6     7    1
     7     7     8    1
     8     8     9    1
     9     9    10    1
    10    10    11   ar
    11    11    12   ar
    12    12    13   ar
    13    13    14   ar
    14    14    15   ar
    15     9    16    2
    16    16    17    1
    17    17    18   am
    18    18    19    1
    19    18    20    2
    20     6    21   ar
    21    21    22   ar
    22    22    23    1
    23    23    24    1
    24    22     3   ar
    25    17     7    1
    26    15    10   ar
    27     1    25    1
    28     1    26    1
    29     1    27    1
    30     4    28    1
    31     5    29    1
    32     7    30    1
    33     8    31    1
    34     8    32    1
    35    11    33    1
    36    12    34    1
    37    13    35    1
    38    14    36    1
    39    15    37    1
    40    19    38    1
    41    19    39    1
    42    19    40    1
    43    21    41    1
    44    24    42    1
    45    24    43    1
    46    24    44    1
