
     RDKit          3D

 44 46  0  0  0  0  0  0  0  0999 V2000
    4.7522    2.1752   -1.8721 C   0  0  0  0  0  0  0  0  0  0  0  0
    4.5910    1.3110   -0.7761 O   0  0  0  0  0  0  0  0  0  0  0  0
    3.3806    0.7212   -0.4583 C   0  0  0  0  0  0  0  0  0  0  0  0
    2.2821    0.9881   -1.2461 C   0  0  0  0  0  0  0  0  0  0  0  0
    1.0693    0.4022   -0.9347 C   0  0  0  0  0  0  0  0  0  0  0  0
    0.9555   -0.4403    0.1512 C   0  0  0  0  0  0  0  0  0  0  0  0
   -0.3621   -1.0599    0.4686 C   0  0  0  0  0  0  0  0  0  0  0  0
   -1.3281   -0.0811    1.0374 C   0  0  0  0  0  0  0  0  0  0  0  0
   -2.4958   -0.1409    0.1274 C   0  0  0  0  0  0  0  0  0  0  0  0
   -3.7151    0.6498    0.3152 C   0  0  0  0  0  0  0  0  0  0  0  0
   -3.8316    1.5101    1.3802 C   0  0  0  0  0  0  0  0  0  0  0  0
   -4.9958    2.2623    1.5555 C   0  0  0  0  0  0  0  0  0  0  0  0
   -6.0445    2.1650    0.6793 C   0  0  0  0  0  0  0  0  0  0  0  0
   -5.9353    1.3016   -0.3951 C   0  0  0  0  0  0  0  0  0  0  0  0
   -4.7748    0.5563   -0.5638 C   0  0  0  0  0  0  0  0  0  0  0  0
   -2.2596   -0.9779   -0.8212 N   0  0  0  0  0  0  0  0  0  0  0  0
   -0.9977   -1.5712   -0.7158 N   0  0  0  0  0  0  0  0  0  0  0  0
   -0.4011   -2.5137   -1.5902 C   0  0  0  0  0  0  0  0  0  0  0  0
    0.9428   -3.0261   -1.3100 C   0  0  0  0  0  0  0  0  0  0  0  0
   -1.0186   -2.9058   -2.5953 O   0  0  0  0  0  0  0  0  0  0  0  0
    2.0736   -0.6835    0.9149 C   0  0  0  0  0  0  0  0  0  0  0  0
    3.2965   -0.1142    0.6296 C   0  0  0  0  0  0  0  0  0  0  0  0
    4.4172   -0.3589    1.3963 O   0  0  0  0  0  0  0  0  0  0  0  0
    4.2975   -1.2207    2.5057 C   0  0  0  0  0  0  0  0  0  0  0  0
    4.2652    3.1483   -1.6259 H   0  0  0  0  0  0  0  0  0  0  0  0
    5.8257    2.3298   -2.0815 H   0  0  0  0  0  0  0  0  0  0  0  0
    4.2644    1.6982   -2.7524 H   0  0  0  0  0  0  0  0  0  0  0  0
    2.3075    1.6376   -2.1076 H   0  0  0  0  0  0  0  0  0  0  0  0
    0.1723    0.5898   -1.5372 H   0  0  0  0  0  0  0  0  0  0  0  0
   -0.1283   -1.8950    1.1975 H   0  0  0  0  0  0  0  0  0  0  0  0
   -0.9192    0.9493    1.1350 H   0  0  0  0  0  0  0  0  0  0  0  0
   -1.6943   -0.4665    2.0324 H   0  0  0  0  0  0  0  0  0  0  0  0
   -3.0041    1.5838    2.0675 H   0  0  0  0  0  0  0  0  0  0  0  0
   -5.0837    2.9346    2.3901 H   0  0  0  0  0  0  0  0  0  0  0  0
   -6.9396    2.7516    0.8251 H   0  0  0  0  0  0  0  0  0  0  0  0
   -6.7570    1.2052   -1.1084 H   0  0  0  0  0  0  0  0  0  0  0  0
   -4.6978   -0.1149   -1.4046 H   0  0  0  0  0  0  0  0  0  0  0  0
    1.0600   -3.1610   -0.1992 H   0  0  0  0  0  0  0  0  0  0  0  0
    0.9950   -4.0742   -1.7284 H   0  0  0  0  0  0  0  0  0  0  0  0
    1.7650   -2.4009   -1.6898 H   0  0  0  0  0  0  0  0  0  0  0  0
    1.9962   -1.3437    1.7703 H   0  0  0  0  0  0  0  0  0  0  0  0
    5.2177   -1.3065    3.0958 H   0  0  0  0  0  0  0  0  0  0  0  0
    3.9733   -2.2141    2.1027 H   0  0  0  0  0  0  0  0  0  0  0  0
    3.4838   -0.7998    3.1452 H   0  0  0  0  0  0  0  0  0  0  0  0
  1  2  1  0
  2  3  1  0
  3  4  2  0
  4  5  1  0
  5  6  2  0
  6  7  1  0
  7  8  1  0
  8  9  1  0
  9 10  1  0
 10 11  2  0
 11 12  1  0
 12 13  2  0
 13 14  1  0
 14 15  2  0
  9 16  2  0
 16 17  1  0
 17 18  1  0
 18 19  1  0
 18 20  2  0
  6 21  1  0
 21 22  2  0
 22 23  1  0
 23 24  1  0
 22  3  1  0
 17  7  1  0
 15 10  1  0
  1 25  1  0
  1 26  1  0
  1 27  1  0
  4 28  1  0
  5 29  1  0
  7 30  1  0
  8 31  1  0
  8 32  1  0
 11 33  1  0
 12 34  1  0
 13 35  1  0
 14 36  1  0
 15 37  1  0
 19 38  1  0
 19 39  1  0
 19 40  1  0
 21 41  1  0
 24 42  1  0
 24 43  1  0
 24 44  1  0
M  END
$$$$
