@<TRIPOS>MOLECULE
*****
 32 34 0 0 0
SMALL
GASTEIGER

@<TRIPOS>ATOM
      1 O          -2.2332   -2.4929   -1.4965 O.2     1  UNL1       -0.2917
      2 C          -1.4848   -1.7706   -0.7623 C.2     1  UNL1        0.1740
      3 C          -0.1183   -2.2077   -0.4510 C.3     1  UNL1        0.0520
      4 C           0.4814   -1.5650    0.7520 C.3     1  UNL1        0.1322
      5 C           1.6816   -0.7333    0.3838 C.ar    1  UNL1       -0.0067
      6 C           1.5517    0.5419   -0.0815 C.ar    1  UNL1       -0.0516
      7 C           2.6592    1.3224   -0.4260 C.ar    1  UNL1       -0.0198
      8 C           3.9169    0.7935   -0.2937 C.ar    1  UNL1        0.1169
      9 O           5.0551    1.5179   -0.6190 O.3     1  UNL1       -0.5068
     10 C           4.0688   -0.4846    0.1715 C.ar    1  UNL1       -0.0198
     11 C           2.9705   -1.2438    0.5078 C.ar    1  UNL1       -0.0516
     12 O          -0.3711   -0.7549    1.4997 O.3     1  UNL1       -0.4828
     13 C          -1.3974   -0.0286    0.9139 C.ar    1  UNL1        0.1389
     14 C          -1.8549    1.1661    1.4382 C.ar    1  UNL1        0.0225
     15 C          -2.8773    1.8458    0.8152 C.ar    1  UNL1        0.1238
     16 O          -3.3561    3.0477    1.3200 O.3     1  UNL1       -0.5065
     17 C          -3.4497    1.3236   -0.3476 C.ar    1  UNL1        0.0222
     18 C          -3.0132    0.1339   -0.8925 C.ar    1  UNL1        0.1343
     19 O          -3.5746   -0.4070   -2.0587 O.3     1  UNL1       -0.5058
     20 C          -1.9837   -0.5154   -0.2336 C.ar    1  UNL1        0.1007
     21 H          -0.0717   -3.3294   -0.3681 H       1  UNL1        0.0385
     22 H           0.5447   -1.9796   -1.3363 H       1  UNL1        0.0385
     23 H           0.8739   -2.3542    1.4418 H       1  UNL1        0.0789
     24 H           0.5598    0.9791   -0.1934 H       1  UNL1        0.0623
     25 H           2.4953    2.3190   -0.7865 H       1  UNL1        0.0654
     26 H           5.2982    2.2941   -0.0145 H       1  UNL1        0.2921
     27 H           5.0485   -0.9083    0.2790 H       1  UNL1        0.0654
     28 H           3.0760   -2.2630    0.8795 H       1  UNL1        0.0623
     29 H          -1.4195    1.5802    2.3376 H       1  UNL1        0.0691
     30 H          -4.3672    3.2382    1.3412 H       1  UNL1        0.2921
     31 H          -4.2624    1.8565   -0.8492 H       1  UNL1        0.0691
     32 H          -4.4464   -0.9218   -1.9080 H       1  UNL1        0.2922
@<TRIPOS>BOND
     1     1     2    2
     2     2     3    1
     3     3     4    1
     4     4     5    1
     5     5     6   ar
     6     6     7   ar
     7     7     8   ar
     8     8     9    1
     9     8    10   ar
    10    10    11   ar
    11     4    12    1
    12    12    13    1
    13    13    14   ar
    14    14    15   ar
    15    15    16    1
    16    15    17   ar
    17    17    18   ar
    18    18    19    1
    19    18    20   ar
    20    20     2    1
    21    11     5   ar
    22    20    13   ar
    23     3    21    1
    24     3    22    1
    25     4    23    1
    26     6    24    1
    27     7    25    1
    28     9    26    1
    29    10    27    1
    30    11    28    1
    31    14    29    1
    32    16    30    1
    33    17    31    1
    34    19    32    1
