
     RDKit          3D

 32 34  0  0  0  0  0  0  0  0999 V2000
   -2.2332   -2.4929   -1.4965 O   0  0  0  0  0  0  0  0  0  0  0  0
   -1.4848   -1.7706   -0.7623 C   0  0  0  0  0  0  0  0  0  0  0  0
   -0.1183   -2.2077   -0.4510 C   0  0  0  0  0  0  0  0  0  0  0  0
    0.4814   -1.5650    0.7520 C   0  0  1  0  0  0  0  0  0  0  0  0
    1.6816   -0.7333    0.3838 C   0  0  0  0  0  0  0  0  0  0  0  0
    1.5517    0.5419   -0.0815 C   0  0  0  0  0  0  0  0  0  0  0  0
    2.6592    1.3224   -0.4260 C   0  0  0  0  0  0  0  0  0  0  0  0
    3.9169    0.7935   -0.2937 C   0  0  0  0  0  0  0  0  0  0  0  0
    5.0551    1.5179   -0.6190 O   0  0  0  0  0  0  0  0  0  0  0  0
    4.0688   -0.4846    0.1715 C   0  0  0  0  0  0  0  0  0  0  0  0
    2.9705   -1.2438    0.5078 C   0  0  0  0  0  0  0  0  0  0  0  0
   -0.3711   -0.7549    1.4997 O   0  0  0  0  0  0  0  0  0  0  0  0
   -1.3974   -0.0286    0.9139 C   0  0  0  0  0  0  0  0  0  0  0  0
   -1.8549    1.1661    1.4382 C   0  0  0  0  0  0  0  0  0  0  0  0
   -2.8773    1.8458    0.8152 C   0  0  0  0  0  0  0  0  0  0  0  0
   -3.3561    3.0477    1.3200 O   0  0  0  0  0  0  0  0  0  0  0  0
   -3.4497    1.3236   -0.3476 C   0  0  0  0  0  0  0  0  0  0  0  0
   -3.0132    0.1339   -0.8925 C   0  0  0  0  0  0  0  0  0  0  0  0
   -3.5746   -0.4070   -2.0587 O   0  0  0  0  0  0  0  0  0  0  0  0
   -1.9837   -0.5154   -0.2336 C   0  0  0  0  0  0  0  0  0  0  0  0
   -0.0717   -3.3294   -0.3681 H   0  0  0  0  0  0  0  0  0  0  0  0
    0.5447   -1.9796   -1.3363 H   0  0  0  0  0  0  0  0  0  0  0  0
    0.8739   -2.3542    1.4418 H   0  0  0  0  0  0  0  0  0  0  0  0
    0.5598    0.9791   -0.1934 H   0  0  0  0  0  0  0  0  0  0  0  0
    2.4953    2.3190   -0.7865 H   0  0  0  0  0  0  0  0  0  0  0  0
    5.2982    2.2941   -0.0145 H   0  0  0  0  0  0  0  0  0  0  0  0
    5.0485   -0.9083    0.2790 H   0  0  0  0  0  0  0  0  0  0  0  0
    3.0760   -2.2630    0.8795 H   0  0  0  0  0  0  0  0  0  0  0  0
   -1.4195    1.5802    2.3376 H   0  0  0  0  0  0  0  0  0  0  0  0
   -4.3672    3.2382    1.3412 H   0  0  0  0  0  0  0  0  0  0  0  0
   -4.2624    1.8565   -0.8492 H   0  0  0  0  0  0  0  0  0  0  0  0
   -4.4464   -0.9218   -1.9080 H   0  0  0  0  0  0  0  0  0  0  0  0
  1  2  2  0
  2  3  1  0
  3  4  1  0
  4  5  1  0
  5  6  2  0
  6  7  1  0
  7  8  2  0
  8  9  1  0
  8 10  1  0
 10 11  2  0
  4 12  1  0
 12 13  1  0
 13 14  2  0
 14 15  1  0
 15 16  1  0
 15 17  2  0
 17 18  1  0
 18 19  1  0
 18 20  2  0
 20  2  1  0
 11  5  1  0
 20 13  1  0
  3 21  1  0
  3 22  1  0
  4 23  1  1
  6 24  1  0
  7 25  1  0
  9 26  1  0
 10 27  1  0
 11 28  1  0
 14 29  1  0
 16 30  1  0
 17 31  1  0
 19 32  1  0
M  END
$$$$
