@<TRIPOS>MOLECULE
*****
 69 74 0 0 0
SMALL
GASTEIGER

@<TRIPOS>ATOM
      1 C          -0.4435    6.1440    0.5046 C.3     1  UNL1       -0.0649
      2 C           0.8768    5.4329    0.7078 C.3     1  UNL1       -0.0491
      3 C           1.0407    4.3259   -0.3295 C.3     1  UNL1        0.0054
      4 C          -0.0160    3.3220   -0.2510 C.ar    1  UNL1        0.1111
      5 N          -1.1749    3.4376   -0.9718 N.ar    1  UNL1       -0.2320
      6 C          -1.9475    2.4026   -0.7001 C.ar    1  UNL1        0.0922
      7 C          -3.2001    2.0587   -1.1555 C.ar    1  UNL1       -0.0223
      8 C          -3.9305    2.9090   -2.1368 C.3     1  UNL1       -0.0376
      9 C          -3.7688    0.8987   -0.6784 C.ar    1  UNL1       -0.0460
     10 C          -3.1409    0.0738    0.2295 C.ar    1  UNL1        0.0198
     11 C          -3.7478   -1.1489    0.7286 C.ar    1  UNL1        0.1417
     12 N          -3.9214   -1.4967    2.0121 N.ar    1  UNL1       -0.2275
     13 C          -4.5196   -2.7033    2.1084 C.ar    1  UNL1        0.0896
     14 C          -4.9224   -3.5140    3.1470 C.ar    1  UNL1       -0.0342
     15 C          -5.5244   -4.7289    2.9167 C.ar    1  UNL1       -0.0596
     16 C          -5.7245   -5.1351    1.6214 C.ar    1  UNL1       -0.0597
     17 C          -5.3262   -4.3334    0.5641 C.ar    1  UNL1       -0.0361
     18 C          -4.7242   -3.1184    0.7895 C.ar    1  UNL1        0.0688
     19 N          -4.2452   -2.1537   -0.0123 N.ar    1  UNL1       -0.3267
     20 C          -4.2586   -2.1834   -1.4753 C.3     1  UNL1        0.0138
     21 C          -1.8704    0.4819    0.6508 C.ar    1  UNL1       -0.0254
     22 C          -1.2620    1.6176    0.2111 C.ar    1  UNL1        0.0700
     23 N          -0.0576    2.2073    0.4792 N.ar    1  UNL1       -0.3231
     24 C           0.9393    1.6977    1.3673 C.3     1  UNL1        0.0500
     25 C           1.9584    0.8218    0.7517 C.ar    1  UNL1       -0.0277
     26 C           1.6828   -0.5073    0.5204 C.ar    1  UNL1       -0.0563
     27 C           2.6101   -1.3681   -0.0432 C.ar    1  UNL1       -0.0537
     28 C           3.8640   -0.9270   -0.4013 C.ar    1  UNL1       -0.0171
     29 C           4.8391   -1.8151   -1.0346 C.ar    1  UNL1       -0.0039
     30 C           4.4901   -2.3886   -2.2435 C.ar    1  UNL1       -0.0532
     31 C           5.3692   -3.1897   -2.9172 C.ar    1  UNL1       -0.0611
     32 C           6.6024   -3.4028   -2.3541 C.ar    1  UNL1       -0.0609
     33 C           6.9482   -2.8342   -1.1539 C.ar    1  UNL1       -0.0472
     34 C           6.0573   -2.0106   -0.4498 C.ar    1  UNL1        0.0665
     35 C           6.4649   -1.4742    0.8484 C.2     1  UNL1        0.3374
     36 O           7.6497   -1.7267    1.2340 O.2     1  UNL1       -0.2451
     37 O           5.7047   -0.7294    1.6968 O.3     1  UNL1       -0.4771
     38 C           4.1596    0.3988   -0.1785 C.ar    1  UNL1       -0.0537
     39 C           3.2174    1.2501    0.3887 C.ar    1  UNL1       -0.0563
     40 H          -1.2337    5.6605    1.1257 H       1  UNL1        0.0230
     41 H          -0.7982    6.0672   -0.5497 H       1  UNL1        0.0230
     42 H          -0.3477    7.1881    0.8412 H       1  UNL1        0.0230
     43 H           0.8838    5.0449    1.7332 H       1  UNL1        0.0267
     44 H           1.6942    6.1615    0.5036 H       1  UNL1        0.0267
     45 H           2.0607    3.9085   -0.3307 H       1  UNL1        0.0343
     46 H           0.9909    4.8907   -1.3129 H       1  UNL1        0.0343
     47 H          -4.6200    2.2626   -2.7324 H       1  UNL1        0.0278
     48 H          -3.2675    3.4045   -2.8537 H       1  UNL1        0.0278
     49 H          -4.5420    3.6824   -1.6401 H       1  UNL1        0.0278
     50 H          -4.7558    0.5814   -1.0061 H       1  UNL1        0.0628
     51 H          -4.7583   -3.1810    4.1557 H       1  UNL1        0.0639
     52 H          -5.8387   -5.3617    3.7406 H       1  UNL1        0.0618
     53 H          -6.2045   -6.1037    1.4560 H       1  UNL1        0.0618
     54 H          -5.4922   -4.6702   -0.4651 H       1  UNL1        0.0639
     55 H          -5.1314   -1.6302   -1.8875 H       1  UNL1        0.0456
     56 H          -4.3614   -3.2302   -1.8243 H       1  UNL1        0.0456
     57 H          -3.3325   -1.7317   -1.8704 H       1  UNL1        0.0456
     58 H          -1.3745   -0.1435    1.3622 H       1  UNL1        0.0646
     59 H           1.5178    2.5302    1.8743 H       1  UNL1        0.0542
     60 H           0.4600    1.1839    2.2587 H       1  UNL1        0.0542
     61 H           0.7306   -0.9762    0.7607 H       1  UNL1        0.0621
     62 H           2.3623   -2.4268   -0.2171 H       1  UNL1        0.0624
     63 H           3.5141   -2.2191   -2.6877 H       1  UNL1        0.0624
     64 H           5.1033   -3.6464   -3.8705 H       1  UNL1        0.0618
     65 H           7.3125   -4.0464   -2.8942 H       1  UNL1        0.0618
     66 H           7.9299   -3.0183   -0.7295 H       1  UNL1        0.0626
     67 H           6.1216    0.1242    2.0977 H       1  UNL1        0.2954
     68 H           5.1307    0.8156   -0.4467 H       1  UNL1        0.0624
     69 H           3.4976    2.2884    0.5556 H       1  UNL1        0.0621
@<TRIPOS>BOND
     1     1     2    1
     2     2     3    1
     3     3     4    1
     4     4     5   ar
     5     5     6   ar
     6     6     7   ar
     7     7     8    1
     8     7     9   ar
     9     9    10   ar
    10    10    11    1
    11    11    12   ar
    12    12    13   ar
    13    13    14   ar
    14    14    15   ar
    15    15    16   ar
    16    16    17   ar
    17    17    18   ar
    18    18    19   ar
    19    19    20    1
    20    10    21   ar
    21    21    22   ar
    22    22    23   ar
    23    23    24    1
    24    24    25    1
    25    25    26   ar
    26    26    27   ar
    27    27    28   ar
    28    28    29    1
    29    29    30   ar
    30    30    31   ar
    31    31    32   ar
    32    32    33   ar
    33    33    34   ar
    34    34    35    1
    35    35    36    2
    36    35    37    1
    37    28    38   ar
    38    38    39   ar
    39    23     4   ar
    40    39    25   ar
    41    22     6   ar
    42    34    29   ar
    43    19    11   ar
    44    18    13   ar
    45     1    40    1
    46     1    41    1
    47     1    42    1
    48     2    43    1
    49     2    44    1
    50     3    45    1
    51     3    46    1
    52     8    47    1
    53     8    48    1
    54     8    49    1
    55     9    50    1
    56    14    51    1
    57    15    52    1
    58    16    53    1
    59    17    54    1
    60    20    55    1
    61    20    56    1
    62    20    57    1
    63    21    58    1
    64    24    59    1
    65    24    60    1
    66    26    61    1
    67    27    62    1
    68    30    63    1
    69    31    64    1
    70    32    65    1
    71    33    66    1
    72    37    67    1
    73    38    68    1
    74    39    69    1
