
     RDKit          3D

 69 74  0  0  0  0  0  0  0  0999 V2000
   -0.4435    6.1440    0.5046 C   0  0  0  0  0  0  0  0  0  0  0  0
    0.8768    5.4329    0.7078 C   0  0  0  0  0  0  0  0  0  0  0  0
    1.0407    4.3259   -0.3295 C   0  0  0  0  0  0  0  0  0  0  0  0
   -0.0160    3.3220   -0.2510 C   0  0  0  0  0  0  0  0  0  0  0  0
   -1.1749    3.4376   -0.9718 N   0  0  0  0  0  0  0  0  0  0  0  0
   -1.9475    2.4026   -0.7001 C   0  0  0  0  0  0  0  0  0  0  0  0
   -3.2001    2.0587   -1.1555 C   0  0  0  0  0  0  0  0  0  0  0  0
   -3.9305    2.9090   -2.1368 C   0  0  0  0  0  0  0  0  0  0  0  0
   -3.7688    0.8987   -0.6784 C   0  0  0  0  0  0  0  0  0  0  0  0
   -3.1409    0.0738    0.2295 C   0  0  0  0  0  0  0  0  0  0  0  0
   -3.7478   -1.1489    0.7286 C   0  0  0  0  0  0  0  0  0  0  0  0
   -3.9214   -1.4967    2.0121 N   0  0  0  0  0  0  0  0  0  0  0  0
   -4.5196   -2.7033    2.1084 C   0  0  0  0  0  0  0  0  0  0  0  0
   -4.9224   -3.5140    3.1470 C   0  0  0  0  0  0  0  0  0  0  0  0
   -5.5244   -4.7289    2.9167 C   0  0  0  0  0  0  0  0  0  0  0  0
   -5.7245   -5.1351    1.6214 C   0  0  0  0  0  0  0  0  0  0  0  0
   -5.3262   -4.3334    0.5641 C   0  0  0  0  0  0  0  0  0  0  0  0
   -4.7242   -3.1184    0.7895 C   0  0  0  0  0  0  0  0  0  0  0  0
   -4.2452   -2.1537   -0.0123 N   0  0  0  0  0  0  0  0  0  0  0  0
   -4.2586   -2.1834   -1.4753 C   0  0  0  0  0  0  0  0  0  0  0  0
   -1.8704    0.4819    0.6508 C   0  0  0  0  0  0  0  0  0  0  0  0
   -1.2620    1.6176    0.2111 C   0  0  0  0  0  0  0  0  0  0  0  0
   -0.0576    2.2073    0.4792 N   0  0  0  0  0  0  0  0  0  0  0  0
    0.9393    1.6977    1.3673 C   0  0  0  0  0  0  0  0  0  0  0  0
    1.9584    0.8218    0.7517 C   0  0  0  0  0  0  0  0  0  0  0  0
    1.6828   -0.5073    0.5204 C   0  0  0  0  0  0  0  0  0  0  0  0
    2.6101   -1.3681   -0.0432 C   0  0  0  0  0  0  0  0  0  0  0  0
    3.8640   -0.9270   -0.4013 C   0  0  0  0  0  0  0  0  0  0  0  0
    4.8391   -1.8151   -1.0346 C   0  0  0  0  0  0  0  0  0  0  0  0
    4.4901   -2.3886   -2.2435 C   0  0  0  0  0  0  0  0  0  0  0  0
    5.3692   -3.1897   -2.9172 C   0  0  0  0  0  0  0  0  0  0  0  0
    6.6024   -3.4028   -2.3541 C   0  0  0  0  0  0  0  0  0  0  0  0
    6.9482   -2.8342   -1.1539 C   0  0  0  0  0  0  0  0  0  0  0  0
    6.0573   -2.0106   -0.4498 C   0  0  0  0  0  0  0  0  0  0  0  0
    6.4649   -1.4742    0.8484 C   0  0  0  0  0  0  0  0  0  0  0  0
    7.6497   -1.7267    1.2340 O   0  0  0  0  0  0  0  0  0  0  0  0
    5.7047   -0.7294    1.6968 O   0  0  0  0  0  0  0  0  0  0  0  0
    4.1596    0.3988   -0.1785 C   0  0  0  0  0  0  0  0  0  0  0  0
    3.2174    1.2501    0.3887 C   0  0  0  0  0  0  0  0  0  0  0  0
   -1.2337    5.6605    1.1257 H   0  0  0  0  0  0  0  0  0  0  0  0
   -0.7982    6.0672   -0.5497 H   0  0  0  0  0  0  0  0  0  0  0  0
   -0.3477    7.1881    0.8412 H   0  0  0  0  0  0  0  0  0  0  0  0
    0.8838    5.0449    1.7332 H   0  0  0  0  0  0  0  0  0  0  0  0
    1.6942    6.1615    0.5036 H   0  0  0  0  0  0  0  0  0  0  0  0
    2.0607    3.9085   -0.3307 H   0  0  0  0  0  0  0  0  0  0  0  0
    0.9909    4.8907   -1.3129 H   0  0  0  0  0  0  0  0  0  0  0  0
   -4.6200    2.2626   -2.7324 H   0  0  0  0  0  0  0  0  0  0  0  0
   -3.2675    3.4045   -2.8537 H   0  0  0  0  0  0  0  0  0  0  0  0
   -4.5420    3.6824   -1.6401 H   0  0  0  0  0  0  0  0  0  0  0  0
   -4.7558    0.5814   -1.0061 H   0  0  0  0  0  0  0  0  0  0  0  0
   -4.7583   -3.1810    4.1557 H   0  0  0  0  0  0  0  0  0  0  0  0
   -5.8387   -5.3617    3.7406 H   0  0  0  0  0  0  0  0  0  0  0  0
   -6.2045   -6.1037    1.4560 H   0  0  0  0  0  0  0  0  0  0  0  0
   -5.4922   -4.6702   -0.4651 H   0  0  0  0  0  0  0  0  0  0  0  0
   -5.1314   -1.6302   -1.8875 H   0  0  0  0  0  0  0  0  0  0  0  0
   -4.3614   -3.2302   -1.8243 H   0  0  0  0  0  0  0  0  0  0  0  0
   -3.3325   -1.7317   -1.8704 H   0  0  0  0  0  0  0  0  0  0  0  0
   -1.3745   -0.1435    1.3622 H   0  0  0  0  0  0  0  0  0  0  0  0
    1.5178    2.5302    1.8743 H   0  0  0  0  0  0  0  0  0  0  0  0
    0.4600    1.1839    2.2587 H   0  0  0  0  0  0  0  0  0  0  0  0
    0.7306   -0.9762    0.7607 H   0  0  0  0  0  0  0  0  0  0  0  0
    2.3623   -2.4268   -0.2171 H   0  0  0  0  0  0  0  0  0  0  0  0
    3.5141   -2.2191   -2.6877 H   0  0  0  0  0  0  0  0  0  0  0  0
    5.1033   -3.6464   -3.8705 H   0  0  0  0  0  0  0  0  0  0  0  0
    7.3125   -4.0464   -2.8942 H   0  0  0  0  0  0  0  0  0  0  0  0
    7.9299   -3.0183   -0.7295 H   0  0  0  0  0  0  0  0  0  0  0  0
    6.1216    0.1242    2.0977 H   0  0  0  0  0  0  0  0  0  0  0  0
    5.1307    0.8156   -0.4467 H   0  0  0  0  0  0  0  0  0  0  0  0
    3.4976    2.2884    0.5556 H   0  0  0  0  0  0  0  0  0  0  0  0
  1  2  1  0
  2  3  1  0
  3  4  1  0
  4  5  2  0
  5  6  1  0
  6  7  2  0
  7  8  1  0
  7  9  1  0
  9 10  2  0
 10 11  1  0
 11 12  2  0
 12 13  1  0
 13 14  2  0
 14 15  1  0
 15 16  2  0
 16 17  1  0
 17 18  2  0
 18 19  1  0
 19 20  1  0
 10 21  1  0
 21 22  2  0
 22 23  1  0
 23 24  1  0
 24 25  1  0
 25 26  2  0
 26 27  1  0
 27 28  2  0
 28 29  1  0
 29 30  2  0
 30 31  1  0
 31 32  2  0
 32 33  1  0
 33 34  2  0
 34 35  1  0
 35 36  2  0
 35 37  1  0
 28 38  1  0
 38 39  2  0
 23  4  1  0
 39 25  1  0
 22  6  1  0
 34 29  1  0
 19 11  1  0
 18 13  1  0
  1 40  1  0
  1 41  1  0
  1 42  1  0
  2 43  1  0
  2 44  1  0
  3 45  1  0
  3 46  1  0
  8 47  1  0
  8 48  1  0
  8 49  1  0
  9 50  1  0
 14 51  1  0
 15 52  1  0
 16 53  1  0
 17 54  1  0
 20 55  1  0
 20 56  1  0
 20 57  1  0
 21 58  1  0
 24 59  1  0
 24 60  1  0
 26 61  1  0
 27 62  1  0
 30 63  1  0
 31 64  1  0
 32 65  1  0
 33 66  1  0
 37 67  1  0
 38 68  1  0
 39 69  1  0
M  END
$$$$
