@<TRIPOS>MOLECULE
*****
 67 68 0 0 0
SMALL
GASTEIGER

@<TRIPOS>ATOM
      1 C           8.2318    3.2471    1.7766 C.3     1  UNL1       -0.0653
      2 C           7.8563    2.2185    0.6962 C.3     1  UNL1       -0.0559
      3 C           7.2995    0.9753    1.3063 C.3     1  UNL1       -0.0533
      4 C           6.9533   -0.0126    0.2361 C.3     1  UNL1       -0.0531
      5 C           5.9217    0.5561   -0.7017 C.3     1  UNL1       -0.0531
      6 C           5.5941   -0.4592   -1.7609 C.3     1  UNL1       -0.0531
      7 C           5.0411   -1.7378   -1.2169 C.3     1  UNL1       -0.0531
      8 C           3.7568   -1.5209   -0.4306 C.3     1  UNL1       -0.0530
      9 C           2.6802   -0.9152   -1.2628 C.3     1  UNL1       -0.0514
     10 C           1.4479   -0.6985   -0.4336 C.3     1  UNL1       -0.0333
     11 C           0.9502   -1.9905    0.1114 C.3     1  UNL1        0.0432
     12 N          -0.2768   -1.7861    0.9043 N.ar    1  UNL1       -0.2514
     13 C          -1.4960   -1.8375    0.3657 C.ar    1  UNL1        0.0499
     14 C          -2.4352   -1.6074    1.3573 C.ar    1  UNL1        0.0965
     15 C          -3.9284   -1.5842    1.1525 C.3     1  UNL1        0.0421
     16 N          -4.3546   -0.2681    0.8331 N.3     1  UNL1       -0.3031
     17 C          -5.7447   -0.0532    0.6488 C.3     1  UNL1        0.0652
     18 C          -5.9363    1.4265    0.3621 C.3     1  UNL1        0.1013
     19 O          -5.9257    2.1482    1.5472 O.3     1  UNL1       -0.3875
     20 C          -7.1882    1.5964   -0.4355 C.3     1  UNL1        0.1108
     21 O          -7.4606    2.9644   -0.5899 O.3     1  UNL1       -0.3865
     22 C          -6.9535    1.0294   -1.8185 C.3     1  UNL1        0.1117
     23 O          -8.1203    1.1149   -2.5752 O.3     1  UNL1       -0.3865
     24 C          -6.4230   -0.3728   -1.7414 C.3     1  UNL1        0.1108
     25 O          -5.1526   -0.4934   -2.2998 O.3     1  UNL1       -0.3865
     26 C          -6.4417   -0.9210   -0.3328 C.3     1  UNL1        0.1013
     27 O          -7.7810   -1.1833    0.0446 O.3     1  UNL1       -0.3875
     28 N          -1.7327   -1.4233    2.4729 N.ar    1  UNL1       -0.1332
     29 N          -0.4308   -1.5366    2.1711 N.ar    1  UNL1       -0.0654
     30 H           7.3798    3.9263    1.9759 H       1  UNL1        0.0230
     31 H           9.0408    3.8619    1.3262 H       1  UNL1        0.0230
     32 H           8.5601    2.7357    2.7069 H       1  UNL1        0.0230
     33 H           7.0928    2.7376    0.0783 H       1  UNL1        0.0263
     34 H           8.7481    1.9824    0.0953 H       1  UNL1        0.0263
     35 H           7.9607    0.5426    2.0898 H       1  UNL1        0.0265
     36 H           6.3269    1.2726    1.7935 H       1  UNL1        0.0265
     37 H           6.4961   -0.9222    0.6993 H       1  UNL1        0.0265
     38 H           7.8454   -0.2907   -0.3786 H       1  UNL1        0.0265
     39 H           6.2633    1.4728   -1.2348 H       1  UNL1        0.0265
     40 H           5.0366    0.8632   -0.1089 H       1  UNL1        0.0265
     41 H           4.8971   -0.0802   -2.5237 H       1  UNL1        0.0265
     42 H           6.5601   -0.7066   -2.2658 H       1  UNL1        0.0265
     43 H           4.7850   -2.3797   -2.0966 H       1  UNL1        0.0265
     44 H           5.7288   -2.2987   -0.5573 H       1  UNL1        0.0265
     45 H           3.9423   -0.9954    0.5068 H       1  UNL1        0.0265
     46 H           3.4323   -2.5739   -0.1666 H       1  UNL1        0.0265
     47 H           2.4525   -1.6302   -2.1089 H       1  UNL1        0.0266
     48 H           3.0041    0.0115   -1.7901 H       1  UNL1        0.0266
     49 H           1.6851    0.0040    0.4160 H       1  UNL1        0.0283
     50 H           0.6714   -0.1512   -1.0203 H       1  UNL1        0.0283
     51 H           0.7239   -2.7075   -0.6794 H       1  UNL1        0.0509
     52 H           1.7422   -2.4028    0.8044 H       1  UNL1        0.0509
     53 H          -1.7350   -2.0270   -0.6756 H       1  UNL1        0.0845
     54 H          -4.3655   -1.9593    2.1169 H       1  UNL1        0.0490
     55 H          -4.1575   -2.3220    0.3814 H       1  UNL1        0.0490
     56 H          -3.8252    0.5122    1.2226 H       1  UNL1        0.1227
     57 H          -6.2424   -0.2195    1.6495 H       1  UNL1        0.0513
     58 H          -5.0806    1.7122   -0.3070 H       1  UNL1        0.0636
     59 H          -6.2720    1.5575    2.2579 H       1  UNL1        0.2100
     60 H          -8.0716    1.1311    0.0342 H       1  UNL1        0.0646
     61 H          -7.8635    3.3100    0.2567 H       1  UNL1        0.2100
     62 H          -6.1978    1.6689   -2.3355 H       1  UNL1        0.0647
     63 H          -8.5840    1.9465   -2.2608 H       1  UNL1        0.2100
     64 H          -7.0952   -1.0183   -2.3511 H       1  UNL1        0.0646
     65 H          -4.7763    0.4056   -2.5499 H       1  UNL1        0.2100
     66 H          -5.9640   -1.9157   -0.3569 H       1  UNL1        0.0636
     67 H          -8.0958   -1.9294   -0.5237 H       1  UNL1        0.2100
@<TRIPOS>BOND
     1     1     2    1
     2     2     3    1
     3     3     4    1
     4     4     5    1
     5     5     6    1
     6     6     7    1
     7     7     8    1
     8     8     9    1
     9     9    10    1
    10    10    11    1
    11    11    12    1
    12    12    13   ar
    13    13    14   ar
    14    14    15    1
    15    15    16    1
    16    16    17    1
    17    17    18    1
    18    18    19    1
    19    18    20    1
    20    20    21    1
    21    20    22    1
    22    22    23    1
    23    22    24    1
    24    24    25    1
    25    24    26    1
    26    26    27    1
    27    14    28   ar
    28    28    29   ar
    29    29    12   ar
    30    26    17    1
    31     1    30    1
    32     1    31    1
    33     1    32    1
    34     2    33    1
    35     2    34    1
    36     3    35    1
    37     3    36    1
    38     4    37    1
    39     4    38    1
    40     5    39    1
    41     5    40    1
    42     6    41    1
    43     6    42    1
    44     7    43    1
    45     7    44    1
    46     8    45    1
    47     8    46    1
    48     9    47    1
    49     9    48    1
    50    10    49    1
    51    10    50    1
    52    11    51    1
    53    11    52    1
    54    13    53    1
    55    15    54    1
    56    15    55    1
    57    16    56    1
    58    17    57    1
    59    18    58    1
    60    19    59    1
    61    20    60    1
    62    21    61    1
    63    22    62    1
    64    23    63    1
    65    24    64    1
    66    25    65    1
    67    26    66    1
    68    27    67    1
