
     RDKit          3D

 67 68  0  0  0  0  0  0  0  0999 V2000
    8.2318    3.2471    1.7766 C   0  0  0  0  0  0  0  0  0  0  0  0
    7.8563    2.2185    0.6962 C   0  0  0  0  0  0  0  0  0  0  0  0
    7.2995    0.9753    1.3063 C   0  0  0  0  0  0  0  0  0  0  0  0
    6.9533   -0.0126    0.2361 C   0  0  0  0  0  0  0  0  0  0  0  0
    5.9217    0.5561   -0.7017 C   0  0  0  0  0  0  0  0  0  0  0  0
    5.5941   -0.4592   -1.7609 C   0  0  0  0  0  0  0  0  0  0  0  0
    5.0411   -1.7378   -1.2169 C   0  0  0  0  0  0  0  0  0  0  0  0
    3.7568   -1.5209   -0.4306 C   0  0  0  0  0  0  0  0  0  0  0  0
    2.6802   -0.9152   -1.2628 C   0  0  0  0  0  0  0  0  0  0  0  0
    1.4479   -0.6985   -0.4336 C   0  0  0  0  0  0  0  0  0  0  0  0
    0.9502   -1.9905    0.1114 C   0  0  0  0  0  0  0  0  0  0  0  0
   -0.2768   -1.7861    0.9043 N   0  0  0  0  0  0  0  0  0  0  0  0
   -1.4960   -1.8375    0.3657 C   0  0  0  0  0  0  0  0  0  0  0  0
   -2.4352   -1.6074    1.3573 C   0  0  0  0  0  0  0  0  0  0  0  0
   -3.9284   -1.5842    1.1525 C   0  0  0  0  0  0  0  0  0  0  0  0
   -4.3546   -0.2681    0.8331 N   0  0  0  0  0  0  0  0  0  0  0  0
   -5.7447   -0.0532    0.6488 C   0  0  1  0  0  0  0  0  0  0  0  0
   -5.9363    1.4265    0.3621 C   0  0  2  0  0  0  0  0  0  0  0  0
   -5.9257    2.1482    1.5472 O   0  0  0  0  0  0  0  0  0  0  0  0
   -7.1882    1.5964   -0.4355 C   0  0  1  0  0  0  0  0  0  0  0  0
   -7.4606    2.9644   -0.5899 O   0  0  0  0  0  0  0  0  0  0  0  0
   -6.9535    1.0294   -1.8185 C   0  0  2  0  0  0  0  0  0  0  0  0
   -8.1203    1.1149   -2.5752 O   0  0  0  0  0  0  0  0  0  0  0  0
   -6.4230   -0.3728   -1.7414 C   0  0  1  0  0  0  0  0  0  0  0  0
   -5.1526   -0.4934   -2.2998 O   0  0  0  0  0  0  0  0  0  0  0  0
   -6.4417   -0.9210   -0.3328 C   0  0  2  0  0  0  0  0  0  0  0  0
   -7.7810   -1.1833    0.0446 O   0  0  0  0  0  0  0  0  0  0  0  0
   -1.7327   -1.4233    2.4729 N   0  0  0  0  0  0  0  0  0  0  0  0
   -0.4308   -1.5366    2.1711 N   0  0  0  0  0  0  0  0  0  0  0  0
    7.3798    3.9263    1.9759 H   0  0  0  0  0  0  0  0  0  0  0  0
    9.0408    3.8619    1.3262 H   0  0  0  0  0  0  0  0  0  0  0  0
    8.5601    2.7357    2.7069 H   0  0  0  0  0  0  0  0  0  0  0  0
    7.0928    2.7376    0.0783 H   0  0  0  0  0  0  0  0  0  0  0  0
    8.7481    1.9824    0.0953 H   0  0  0  0  0  0  0  0  0  0  0  0
    7.9607    0.5426    2.0898 H   0  0  0  0  0  0  0  0  0  0  0  0
    6.3269    1.2726    1.7935 H   0  0  0  0  0  0  0  0  0  0  0  0
    6.4961   -0.9222    0.6993 H   0  0  0  0  0  0  0  0  0  0  0  0
    7.8454   -0.2907   -0.3786 H   0  0  0  0  0  0  0  0  0  0  0  0
    6.2633    1.4728   -1.2348 H   0  0  0  0  0  0  0  0  0  0  0  0
    5.0366    0.8632   -0.1089 H   0  0  0  0  0  0  0  0  0  0  0  0
    4.8971   -0.0802   -2.5237 H   0  0  0  0  0  0  0  0  0  0  0  0
    6.5601   -0.7066   -2.2658 H   0  0  0  0  0  0  0  0  0  0  0  0
    4.7850   -2.3797   -2.0966 H   0  0  0  0  0  0  0  0  0  0  0  0
    5.7288   -2.2987   -0.5573 H   0  0  0  0  0  0  0  0  0  0  0  0
    3.9423   -0.9954    0.5068 H   0  0  0  0  0  0  0  0  0  0  0  0
    3.4323   -2.5739   -0.1666 H   0  0  0  0  0  0  0  0  0  0  0  0
    2.4525   -1.6302   -2.1089 H   0  0  0  0  0  0  0  0  0  0  0  0
    3.0041    0.0115   -1.7901 H   0  0  0  0  0  0  0  0  0  0  0  0
    1.6851    0.0040    0.4160 H   0  0  0  0  0  0  0  0  0  0  0  0
    0.6714   -0.1512   -1.0203 H   0  0  0  0  0  0  0  0  0  0  0  0
    0.7239   -2.7075   -0.6794 H   0  0  0  0  0  0  0  0  0  0  0  0
    1.7422   -2.4028    0.8044 H   0  0  0  0  0  0  0  0  0  0  0  0
   -1.7350   -2.0270   -0.6756 H   0  0  0  0  0  0  0  0  0  0  0  0
   -4.3655   -1.9593    2.1169 H   0  0  0  0  0  0  0  0  0  0  0  0
   -4.1575   -2.3220    0.3814 H   0  0  0  0  0  0  0  0  0  0  0  0
   -3.8252    0.5122    1.2226 H   0  0  0  0  0  0  0  0  0  0  0  0
   -6.2424   -0.2195    1.6495 H   0  0  0  0  0  0  0  0  0  0  0  0
   -5.0806    1.7122   -0.3070 H   0  0  0  0  0  0  0  0  0  0  0  0
   -6.2720    1.5575    2.2579 H   0  0  0  0  0  0  0  0  0  0  0  0
   -8.0716    1.1311    0.0342 H   0  0  0  0  0  0  0  0  0  0  0  0
   -7.8635    3.3100    0.2567 H   0  0  0  0  0  0  0  0  0  0  0  0
   -6.1978    1.6689   -2.3355 H   0  0  0  0  0  0  0  0  0  0  0  0
   -8.5840    1.9465   -2.2608 H   0  0  0  0  0  0  0  0  0  0  0  0
   -7.0952   -1.0183   -2.3511 H   0  0  0  0  0  0  0  0  0  0  0  0
   -4.7763    0.4056   -2.5499 H   0  0  0  0  0  0  0  0  0  0  0  0
   -5.9640   -1.9157   -0.3569 H   0  0  0  0  0  0  0  0  0  0  0  0
   -8.0958   -1.9294   -0.5237 H   0  0  0  0  0  0  0  0  0  0  0  0
  1  2  1  0
  2  3  1  0
  3  4  1  0
  4  5  1  0
  5  6  1  0
  6  7  1  0
  7  8  1  0
  8  9  1  0
  9 10  1  0
 10 11  1  0
 11 12  1  0
 12 13  1  0
 13 14  2  0
 14 15  1  0
 15 16  1  0
 16 17  1  0
 17 18  1  0
 18 19  1  0
 18 20  1  0
 20 21  1  0
 20 22  1  0
 22 23  1  0
 22 24  1  0
 24 25  1  0
 24 26  1  0
 26 27  1  0
 14 28  1  0
 28 29  2  0
 29 12  1  0
 26 17  1  0
  1 30  1  0
  1 31  1  0
  1 32  1  0
  2 33  1  0
  2 34  1  0
  3 35  1  0
  3 36  1  0
  4 37  1  0
  4 38  1  0
  5 39  1  0
  5 40  1  0
  6 41  1  0
  6 42  1  0
  7 43  1  0
  7 44  1  0
  8 45  1  0
  8 46  1  0
  9 47  1  0
  9 48  1  0
 10 49  1  0
 10 50  1  0
 11 51  1  0
 11 52  1  0
 13 53  1  0
 15 54  1  0
 15 55  1  0
 16 56  1  0
 17 57  1  1
 18 58  1  6
 19 59  1  0
 20 60  1  1
 21 61  1  0
 22 62  1  6
 23 63  1  0
 24 64  1  6
 25 65  1  0
 26 66  1  6
 27 67  1  0
M  END
$$$$
