@<TRIPOS>MOLECULE
*****
 42 44 0 0 0
SMALL
GASTEIGER

@<TRIPOS>ATOM
      1 O           7.6316    2.3560   -1.1278 O.3     1  UNL1       -0.4770
      2 C           6.3291    2.2345   -0.7263 C.2     1  UNL1        0.3404
      3 O           5.6935    3.3288   -0.6027 O.2     1  UNL1       -0.2450
      4 C           5.7108    0.9278   -0.4574 C.ar    1  UNL1        0.1021
      5 C           4.3905    0.9345   -0.0585 C.ar    1  UNL1       -0.0170
      6 C           3.7778   -0.2697    0.2022 C.ar    1  UNL1        0.0872
      7 C           4.4801   -1.4440    0.0635 C.ar    1  UNL1       -0.0311
      8 C           5.8088   -1.4533   -0.3377 C.ar    1  UNL1       -0.0173
      9 C           6.4288   -0.2497   -0.6007 C.ar    1  UNL1        0.1309
     10 O           7.7448   -0.2094   -1.0012 O.3     1  UNL1       -0.5059
     11 N           2.4386   -0.5078    0.6222 N.2     1  UNL1       -0.1493
     12 N           1.4971   -0.5555   -0.2390 N.2     1  UNL1       -0.1493
     13 C           0.1969   -0.7985    0.2834 C.ar    1  UNL1        0.0863
     14 C          -0.4738   -2.0029    0.2409 C.ar    1  UNL1       -0.0327
     15 C          -1.7339   -2.0755    0.7941 C.ar    1  UNL1       -0.0330
     16 C          -2.3996   -1.0047    1.4071 C.ar    1  UNL1        0.1087
     17 C          -1.7042    0.1659    1.4289 C.ar    1  UNL1       -0.0330
     18 C          -0.4479    0.2622    0.8841 C.ar    1  UNL1       -0.0327
     19 S          -3.9813   -1.4059    2.0268 S.O2    1  UNL1        0.0735
     20 O          -3.9129   -2.7527    2.6375 O.2     1  UNL1       -0.1499
     21 O          -4.3487   -0.4324    3.1182 O.2     1  UNL1       -0.1499
     22 N          -5.1128   -1.3288    0.7290 N.pl3   1  UNL1       -0.1995
     23 C          -5.5340   -0.2747   -0.1171 C.ar    1  UNL1        0.1377
     24 N          -6.4589   -0.4748   -1.0990 N.ar    1  UNL1       -0.2390
     25 C          -6.8003    0.5844   -1.8447 C.ar    1  UNL1        0.0297
     26 C          -6.3243    1.8575   -1.7350 C.ar    1  UNL1       -0.0435
     27 C          -5.3901    2.0719   -0.7472 C.ar    1  UNL1       -0.0570
     28 C          -5.0286    0.9909    0.0287 C.ar    1  UNL1       -0.0204
     29 H           8.2130    3.0992   -0.7363 H       1  UNL1        0.2954
     30 H           3.7591    1.7928    0.0786 H       1  UNL1        0.0649
     31 H           4.1036   -2.4519    0.2405 H       1  UNL1        0.0640
     32 H           6.3997   -2.3502   -0.4602 H       1  UNL1        0.0655
     33 H           8.5226    0.0047   -0.3919 H       1  UNL1        0.2922
     34 H           0.0183   -2.8219   -0.2202 H       1  UNL1        0.0640
     35 H          -2.1788   -3.0794    0.7066 H       1  UNL1        0.0638
     36 H          -2.2466    0.9702    1.9160 H       1  UNL1        0.0638
     37 H           0.0012    1.2567    0.9670 H       1  UNL1        0.0640
     38 H          -5.5868   -2.2626    0.5271 H       1  UNL1        0.1752
     39 H          -7.5461    0.3783   -2.6213 H       1  UNL1        0.0830
     40 H          -6.6517    2.6602   -2.3781 H       1  UNL1        0.0633
     41 H          -4.9888    3.0726   -0.6303 H       1  UNL1        0.0619
     42 H          -4.2957    1.2569    0.7780 H       1  UNL1        0.0652
@<TRIPOS>BOND
     1     1     2    1
     2     2     3    2
     3     2     4    1
     4     4     5   ar
     5     5     6   ar
     6     6     7   ar
     7     7     8   ar
     8     8     9   ar
     9     9    10    1
    10     6    11    1
    11    11    12    2
    12    12    13    1
    13    13    14   ar
    14    14    15   ar
    15    15    16   ar
    16    16    17   ar
    17    17    18   ar
    18    16    19    1
    19    19    20    2
    20    19    21    2
    21    19    22    1
    22    22    23    1
    23    23    24   ar
    24    24    25   ar
    25    25    26   ar
    26    26    27   ar
    27    27    28   ar
    28     9     4   ar
    29    18    13   ar
    30    28    23   ar
    31     1    29    1
    32     5    30    1
    33     7    31    1
    34     8    32    1
    35    10    33    1
    36    14    34    1
    37    15    35    1
    38    17    36    1
    39    18    37    1
    40    22    38    1
    41    25    39    1
    42    26    40    1
    43    27    41    1
    44    28    42    1
