@<TRIPOS>MOLECULE
*****
 67 70 0 0 0
SMALL
GASTEIGER

@<TRIPOS>ATOM
      1 C          -5.8574   -5.3405    0.5656 C.3     1  UNL1       -0.0652
      2 C          -4.3935   -5.0437    0.2722 C.3     1  UNL1       -0.0545
      3 C          -4.3071   -3.6535   -0.3697 C.3     1  UNL1       -0.0376
      4 C          -4.8805   -2.6719    0.6327 C.3     1  UNL1        0.0118
      5 N          -4.8407   -1.3217    0.1079 N.pl3   1  UNL1       -0.3134
      6 C          -3.5421   -0.8028   -0.2198 C.ar    1  UNL1        0.2169
      7 N          -3.0943   -1.0156   -1.4653 N.ar    1  UNL1       -0.2222
      8 C          -1.8998   -0.5647   -1.8267 C.ar    1  UNL1        0.0436
      9 C          -1.1044    0.1452   -0.8773 C.ar    1  UNL1        0.0584
     10 C           0.3256    0.2036   -1.2394 C.ar    1  UNL1        0.0807
     11 C           1.2672    0.1830   -0.2466 C.ar    1  UNL1        0.0046
     12 C           2.6184    0.0316   -0.5793 C.ar    1  UNL1        0.1267
     13 N           3.5964    0.0129    0.4523 N.pl3   1  UNL1       -0.2965
     14 C           4.9562   -0.1467    0.0752 C.ar    1  UNL1        0.0746
     15 C           5.8552    0.8451    0.4032 C.ar    1  UNL1       -0.0369
     16 C           7.1886    0.7303    0.0553 C.ar    1  UNL1       -0.0598
     17 C           7.5638   -0.4090   -0.6251 C.ar    1  UNL1       -0.0582
     18 C           6.6687   -1.4042   -0.9558 C.ar    1  UNL1       -0.0181
     19 C           5.3390   -1.2812   -0.6044 C.ar    1  UNL1        0.1412
     20 O           4.4013   -2.2803   -0.9279 O.3     1  UNL1       -0.4933
     21 C           4.8622   -3.4185   -1.6260 C.3     1  UNL1        0.0789
     22 N           2.9355   -0.0902   -1.8663 N.ar    1  UNL1       -0.2206
     23 C           1.9987   -0.0701   -2.8219 C.ar    1  UNL1        0.1187
     24 N           0.7061    0.0743   -2.5256 N.ar    1  UNL1       -0.2351
     25 C          -1.5419    0.3722    0.3472 C.ar    1  UNL1        0.1333
     26 N          -1.0665    1.3748    1.2316 N.pl3   1  UNL1       -0.3256
     27 C          -0.3707    2.5513    0.8474 C.3     1  UNL1        0.0221
     28 C          -1.0959    3.2776   -0.2546 C.3     1  UNL1       -0.0322
     29 C          -2.0545    4.3239    0.1802 C.3     1  UNL1       -0.0252
     30 C          -1.5845    5.2756    1.2065 C.3     1  UNL1        0.0554
     31 O          -1.5749    6.5775    0.7089 O.3     1  UNL1       -0.3918
     32 C          -0.1963    4.8551    1.6481 C.3     1  UNL1       -0.0252
     33 C          -0.3559    3.4320    2.1250 C.3     1  UNL1       -0.0322
     34 N          -2.8112   -0.1351    0.6748 N.ar    1  UNL1       -0.1991
     35 H          -5.9725   -6.4423    0.5327 H       1  UNL1        0.0230
     36 H          -6.1466   -4.9375    1.5421 H       1  UNL1        0.0230
     37 H          -6.4825   -4.8408   -0.2086 H       1  UNL1        0.0230
     38 H          -3.7981   -5.0707    1.1969 H       1  UNL1        0.0263
     39 H          -4.0082   -5.7713   -0.4575 H       1  UNL1        0.0263
     40 H          -4.8966   -3.6467   -1.3003 H       1  UNL1        0.0280
     41 H          -3.2455   -3.4190   -0.5834 H       1  UNL1        0.0280
     42 H          -4.2581   -2.7573    1.5545 H       1  UNL1        0.0462
     43 H          -5.9037   -2.9197    0.9125 H       1  UNL1        0.0462
     44 H          -5.7059   -0.7796   -0.0165 H       1  UNL1        0.1489
     45 H          -1.5051   -0.7136   -2.8173 H       1  UNL1        0.0838
     46 H           1.0375    0.2225    0.8291 H       1  UNL1        0.0673
     47 H           3.3105    0.1133    1.4375 H       1  UNL1        0.1537
     48 H           5.5502    1.7455    0.9429 H       1  UNL1        0.0637
     49 H           7.9249    1.4955    0.2995 H       1  UNL1        0.0618
     50 H           8.6064   -0.5388   -0.9178 H       1  UNL1        0.0619
     51 H           6.9597   -2.2981   -1.4887 H       1  UNL1        0.0655
     52 H           5.5127   -4.0073   -0.9179 H       1  UNL1        0.0660
     53 H           3.9750   -4.0735   -1.8430 H       1  UNL1        0.0660
     54 H           5.3985   -3.1819   -2.5559 H       1  UNL1        0.0660
     55 H           2.2499   -0.1686   -3.8628 H       1  UNL1        0.1048
     56 H          -1.2671    1.1756    2.2774 H       1  UNL1        0.1478
     57 H           0.6604    2.4376    0.6287 H       1  UNL1        0.0498
     58 H          -0.3420    3.7150   -0.9389 H       1  UNL1        0.0284
     59 H          -1.6456    2.5227   -0.8480 H       1  UNL1        0.0284
     60 H          -3.0032    3.8476    0.5604 H       1  UNL1        0.0291
     61 H          -2.3974    4.9047   -0.7081 H       1  UNL1        0.0291
     62 H          -2.2232    5.2325    2.1041 H       1  UNL1        0.0593
     63 H          -1.9697    6.5729   -0.1959 H       1  UNL1        0.2098
     64 H           0.1173    5.5425    2.4521 H       1  UNL1        0.0291
     65 H           0.4892    4.9308    0.7870 H       1  UNL1        0.0291
     66 H           0.5286    3.1763    2.7326 H       1  UNL1        0.0284
     67 H          -1.2608    3.3150    2.7145 H       1  UNL1        0.0284
@<TRIPOS>BOND
     1     1     2    1
     2     2     3    1
     3     3     4    1
     4     4     5    1
     5     5     6    1
     6     6     7   ar
     7     7     8   ar
     8     8     9   ar
     9     9    10    1
    10    10    11   ar
    11    11    12   ar
    12    12    13    1
    13    13    14    1
    14    14    15   ar
    15    15    16   ar
    16    16    17   ar
    17    17    18   ar
    18    18    19   ar
    19    19    20    1
    20    20    21    1
    21    12    22   ar
    22    22    23   ar
    23    23    24   ar
    24     9    25   ar
    25    25    26    1
    26    26    27    1
    27    27    28    1
    28    28    29    1
    29    29    30    1
    30    30    31    1
    31    30    32    1
    32    32    33    1
    33    25    34   ar
    34    34     6   ar
    35    24    10   ar
    36    33    27    1
    37    19    14   ar
    38     1    35    1
    39     1    36    1
    40     1    37    1
    41     2    38    1
    42     2    39    1
    43     3    40    1
    44     3    41    1
    45     4    42    1
    46     4    43    1
    47     5    44    1
    48     8    45    1
    49    11    46    1
    50    13    47    1
    51    15    48    1
    52    16    49    1
    53    17    50    1
    54    18    51    1
    55    21    52    1
    56    21    53    1
    57    21    54    1
    58    23    55    1
    59    26    56    1
    60    27    57    1
    61    28    58    1
    62    28    59    1
    63    29    60    1
    64    29    61    1
    65    30    62    1
    66    31    63    1
    67    32    64    1
    68    32    65    1
    69    33    66    1
    70    33    67    1
