
     RDKit          3D

 67 70  0  0  0  0  0  0  0  0999 V2000
   -5.8574   -5.3405    0.5656 C   0  0  0  0  0  0  0  0  0  0  0  0
   -4.3935   -5.0437    0.2722 C   0  0  0  0  0  0  0  0  0  0  0  0
   -4.3071   -3.6535   -0.3697 C   0  0  0  0  0  0  0  0  0  0  0  0
   -4.8805   -2.6719    0.6327 C   0  0  0  0  0  0  0  0  0  0  0  0
   -4.8407   -1.3217    0.1079 N   0  0  0  0  0  0  0  0  0  0  0  0
   -3.5421   -0.8028   -0.2198 C   0  0  0  0  0  0  0  0  0  0  0  0
   -3.0943   -1.0156   -1.4653 N   0  0  0  0  0  0  0  0  0  0  0  0
   -1.8998   -0.5647   -1.8267 C   0  0  0  0  0  0  0  0  0  0  0  0
   -1.1044    0.1452   -0.8773 C   0  0  0  0  0  0  0  0  0  0  0  0
    0.3256    0.2036   -1.2394 C   0  0  0  0  0  0  0  0  0  0  0  0
    1.2672    0.1830   -0.2466 C   0  0  0  0  0  0  0  0  0  0  0  0
    2.6184    0.0316   -0.5793 C   0  0  0  0  0  0  0  0  0  0  0  0
    3.5964    0.0129    0.4523 N   0  0  0  0  0  0  0  0  0  0  0  0
    4.9562   -0.1467    0.0752 C   0  0  0  0  0  0  0  0  0  0  0  0
    5.8552    0.8451    0.4032 C   0  0  0  0  0  0  0  0  0  0  0  0
    7.1886    0.7303    0.0553 C   0  0  0  0  0  0  0  0  0  0  0  0
    7.5638   -0.4090   -0.6251 C   0  0  0  0  0  0  0  0  0  0  0  0
    6.6687   -1.4042   -0.9558 C   0  0  0  0  0  0  0  0  0  0  0  0
    5.3390   -1.2812   -0.6044 C   0  0  0  0  0  0  0  0  0  0  0  0
    4.4013   -2.2803   -0.9279 O   0  0  0  0  0  0  0  0  0  0  0  0
    4.8622   -3.4185   -1.6260 C   0  0  0  0  0  0  0  0  0  0  0  0
    2.9355   -0.0902   -1.8663 N   0  0  0  0  0  0  0  0  0  0  0  0
    1.9987   -0.0701   -2.8219 C   0  0  0  0  0  0  0  0  0  0  0  0
    0.7061    0.0743   -2.5256 N   0  0  0  0  0  0  0  0  0  0  0  0
   -1.5419    0.3722    0.3472 C   0  0  0  0  0  0  0  0  0  0  0  0
   -1.0665    1.3748    1.2316 N   0  0  0  0  0  0  0  0  0  0  0  0
   -0.3707    2.5513    0.8474 C   0  0  1  0  0  0  0  0  0  0  0  0
   -1.0959    3.2776   -0.2546 C   0  0  0  0  0  0  0  0  0  0  0  0
   -2.0545    4.3239    0.1802 C   0  0  0  0  0  0  0  0  0  0  0  0
   -1.5845    5.2756    1.2065 C   0  0  2  0  0  0  0  0  0  0  0  0
   -1.5749    6.5775    0.7089 O   0  0  0  0  0  0  0  0  0  0  0  0
   -0.1963    4.8551    1.6481 C   0  0  0  0  0  0  0  0  0  0  0  0
   -0.3559    3.4320    2.1250 C   0  0  0  0  0  0  0  0  0  0  0  0
   -2.8112   -0.1351    0.6748 N   0  0  0  0  0  0  0  0  0  0  0  0
   -5.9725   -6.4423    0.5327 H   0  0  0  0  0  0  0  0  0  0  0  0
   -6.1466   -4.9375    1.5421 H   0  0  0  0  0  0  0  0  0  0  0  0
   -6.4825   -4.8408   -0.2086 H   0  0  0  0  0  0  0  0  0  0  0  0
   -3.7981   -5.0707    1.1969 H   0  0  0  0  0  0  0  0  0  0  0  0
   -4.0082   -5.7713   -0.4575 H   0  0  0  0  0  0  0  0  0  0  0  0
   -4.8966   -3.6467   -1.3003 H   0  0  0  0  0  0  0  0  0  0  0  0
   -3.2455   -3.4190   -0.5834 H   0  0  0  0  0  0  0  0  0  0  0  0
   -4.2581   -2.7573    1.5545 H   0  0  0  0  0  0  0  0  0  0  0  0
   -5.9037   -2.9197    0.9125 H   0  0  0  0  0  0  0  0  0  0  0  0
   -5.7059   -0.7796   -0.0165 H   0  0  0  0  0  0  0  0  0  0  0  0
   -1.5051   -0.7136   -2.8173 H   0  0  0  0  0  0  0  0  0  0  0  0
    1.0375    0.2225    0.8291 H   0  0  0  0  0  0  0  0  0  0  0  0
    3.3105    0.1133    1.4375 H   0  0  0  0  0  0  0  0  0  0  0  0
    5.5502    1.7455    0.9429 H   0  0  0  0  0  0  0  0  0  0  0  0
    7.9249    1.4955    0.2995 H   0  0  0  0  0  0  0  0  0  0  0  0
    8.6064   -0.5388   -0.9178 H   0  0  0  0  0  0  0  0  0  0  0  0
    6.9597   -2.2981   -1.4887 H   0  0  0  0  0  0  0  0  0  0  0  0
    5.5127   -4.0073   -0.9179 H   0  0  0  0  0  0  0  0  0  0  0  0
    3.9750   -4.0735   -1.8430 H   0  0  0  0  0  0  0  0  0  0  0  0
    5.3985   -3.1819   -2.5559 H   0  0  0  0  0  0  0  0  0  0  0  0
    2.2499   -0.1686   -3.8628 H   0  0  0  0  0  0  0  0  0  0  0  0
   -1.2671    1.1756    2.2774 H   0  0  0  0  0  0  0  0  0  0  0  0
    0.6604    2.4376    0.6287 H   0  0  0  0  0  0  0  0  0  0  0  0
   -0.3420    3.7150   -0.9389 H   0  0  0  0  0  0  0  0  0  0  0  0
   -1.6456    2.5227   -0.8480 H   0  0  0  0  0  0  0  0  0  0  0  0
   -3.0032    3.8476    0.5604 H   0  0  0  0  0  0  0  0  0  0  0  0
   -2.3974    4.9047   -0.7081 H   0  0  0  0  0  0  0  0  0  0  0  0
   -2.2232    5.2325    2.1041 H   0  0  0  0  0  0  0  0  0  0  0  0
   -1.9697    6.5729   -0.1959 H   0  0  0  0  0  0  0  0  0  0  0  0
    0.1173    5.5425    2.4521 H   0  0  0  0  0  0  0  0  0  0  0  0
    0.4892    4.9308    0.7870 H   0  0  0  0  0  0  0  0  0  0  0  0
    0.5286    3.1763    2.7326 H   0  0  0  0  0  0  0  0  0  0  0  0
   -1.2608    3.3150    2.7145 H   0  0  0  0  0  0  0  0  0  0  0  0
  1  2  1  0
  2  3  1  0
  3  4  1  0
  4  5  1  0
  5  6  1  0
  6  7  2  0
  7  8  1  0
  8  9  2  0
  9 10  1  0
 10 11  2  0
 11 12  1  0
 12 13  1  0
 13 14  1  0
 14 15  2  0
 15 16  1  0
 16 17  2  0
 17 18  1  0
 18 19  2  0
 19 20  1  0
 20 21  1  0
 12 22  2  0
 22 23  1  0
 23 24  2  0
  9 25  1  0
 25 26  1  0
 26 27  1  0
 27 28  1  0
 28 29  1  0
 29 30  1  0
 30 31  1  0
 30 32  1  0
 32 33  1  0
 25 34  2  0
 34  6  1  0
 24 10  1  0
 33 27  1  0
 19 14  1  0
  1 35  1  0
  1 36  1  0
  1 37  1  0
  2 38  1  0
  2 39  1  0
  3 40  1  0
  3 41  1  0
  4 42  1  0
  4 43  1  0
  5 44  1  0
  8 45  1  0
 11 46  1  0
 13 47  1  0
 15 48  1  0
 16 49  1  0
 17 50  1  0
 18 51  1  0
 21 52  1  0
 21 53  1  0
 21 54  1  0
 23 55  1  0
 26 56  1  0
 27 57  1  6
 28 58  1  0
 28 59  1  0
 29 60  1  0
 29 61  1  0
 30 62  1  1
 31 63  1  0
 32 64  1  0
 32 65  1  0
 33 66  1  0
 33 67  1  0
M  END
$$$$
