@<TRIPOS>MOLECULE
*****
 47 50 0 0 0
SMALL
GASTEIGER

@<TRIPOS>ATOM
      1 N           3.8976   -3.8113   -0.5783 N.am    1  UNL1       -0.3241
      2 C           2.8347   -2.8847   -0.4284 C.2     1  UNL1        0.2599
      3 O           1.9971   -3.0850    0.4780 O.2     1  UNL1       -0.2687
      4 C           2.7565   -1.7415   -1.3281 C.ar    1  UNL1        0.1280
      5 C           3.6393   -1.4329   -2.3687 C.ar    1  UNL1        0.0588
      6 N           3.2128   -0.2999   -2.9507 N.ar    1  UNL1       -0.2353
      7 C           2.0960    0.1344   -2.3319 C.ar    1  UNL1        0.1381
      8 C           1.2924    1.2517   -2.5651 C.ar    1  UNL1       -0.0182
      9 C           0.2028    1.4327   -1.7536 C.ar    1  UNL1       -0.0477
     10 C          -0.0968    0.5561   -0.7473 C.ar    1  UNL1        0.0173
     11 C          -1.2405    0.7631    0.1134 C.ar    1  UNL1        0.0779
     12 C          -1.2162    1.7624    1.1016 C.ar    1  UNL1        0.0967
     13 C          -0.1069    2.6688    1.3960 C.ar    1  UNL1        0.0026
     14 C          -0.2886    4.0378    1.2895 C.ar    1  UNL1       -0.0498
     15 C           0.7445    4.9288    1.5604 C.ar    1  UNL1       -0.0258
     16 C           1.9817    4.4758    1.9434 C.ar    1  UNL1        0.1234
     17 F           3.0121    5.3220    2.2150 F       1  UNL1       -0.2055
     18 C           2.1863    3.1148    2.0563 C.ar    1  UNL1       -0.0258
     19 C           1.1454    2.2533    1.7819 C.ar    1  UNL1       -0.0498
     20 N          -2.4179    1.7230    1.7281 N.ar    1  UNL1       -0.2351
     21 C          -3.1354    0.7529    1.1534 C.ar    1  UNL1        0.0972
     22 N          -2.4172    0.1535    0.1545 N.ar    1  UNL1       -0.3270
     23 C          -2.8519   -0.9113   -0.6721 C.3     1  UNL1        0.0529
     24 C          -2.5682   -2.2989   -0.1286 C.3     1  UNL1        0.0961
     25 O          -3.0430   -3.2706   -1.0277 O.3     1  UNL1       -0.3878
     26 C          -3.2798   -2.4848    1.1868 C.3     1  UNL1        0.0718
     27 O          -3.0152   -3.7646    1.6773 O.3     1  UNL1       -0.3924
     28 C           0.7497   -0.5383   -0.5715 C.ar    1  UNL1        0.0211
     29 N           1.8389   -0.7494   -1.3571 N.ar    1  UNL1       -0.2949
     30 H           3.7782   -4.8036   -0.2726 H       1  UNL1        0.1453
     31 H           4.8257   -3.5644   -0.9873 H       1  UNL1        0.1453
     32 H           4.5059   -2.0332   -2.6259 H       1  UNL1        0.0853
     33 H           1.5169    1.9457   -3.3509 H       1  UNL1        0.0654
     34 H          -0.4813    2.2758   -1.8605 H       1  UNL1        0.0626
     35 H          -1.2417    4.4502    0.9921 H       1  UNL1        0.0625
     36 H           0.6008    5.9926    1.4773 H       1  UNL1        0.0646
     37 H           3.1701    2.7859    2.3594 H       1  UNL1        0.0646
     38 H           1.3495    1.1990    1.8828 H       1  UNL1        0.0625
     39 H          -4.1522    0.4498    1.4136 H       1  UNL1        0.1029
     40 H          -2.6046   -0.8183   -1.7445 H       1  UNL1        0.0518
     41 H          -3.9891   -0.8803   -0.6810 H       1  UNL1        0.0518
     42 H          -1.4798   -2.4190   -0.0722 H       1  UNL1        0.0634
     43 H          -3.6562   -2.8444   -1.6895 H       1  UNL1        0.2100
     44 H          -2.9173   -1.7702    1.9441 H       1  UNL1        0.0583
     45 H          -4.3741   -2.3528    0.9766 H       1  UNL1        0.0583
     46 H          -3.3335   -4.4027    1.0025 H       1  UNL1        0.2095
     47 H           0.5730   -1.2681    0.2092 H       1  UNL1        0.0820
@<TRIPOS>BOND
     1     1     2   am
     2     2     3    2
     3     2     4    1
     4     4     5   ar
     5     5     6   ar
     6     6     7   ar
     7     7     8   ar
     8     8     9   ar
     9     9    10   ar
    10    10    11    1
    11    11    12   ar
    12    12    13    1
    13    13    14   ar
    14    14    15   ar
    15    15    16   ar
    16    16    17    1
    17    16    18   ar
    18    18    19   ar
    19    12    20   ar
    20    20    21   ar
    21    21    22   ar
    22    22    23    1
    23    23    24    1
    24    24    25    1
    25    24    26    1
    26    26    27    1
    27    10    28   ar
    28    28    29   ar
    29    29     4   ar
    30    29     7   ar
    31    22    11   ar
    32    19    13   ar
    33     1    30    1
    34     1    31    1
    35     5    32    1
    36     8    33    1
    37     9    34    1
    38    14    35    1
    39    15    36    1
    40    18    37    1
    41    19    38    1
    42    21    39    1
    43    23    40    1
    44    23    41    1
    45    24    42    1
    46    25    43    1
    47    26    44    1
    48    26    45    1
    49    27    46    1
    50    28    47    1
