
     RDKit          3D

 43 44  0  0  0  0  0  0  0  0999 V2000
   -0.4623   -2.6190    1.3049 C   0  0  0  0  0  0  0  0  0  0  0  0
   -0.4830   -1.7213    0.1140 C   0  0  0  0  0  0  0  0  0  0  0  0
   -0.2220   -2.5239   -1.0263 O   0  0  0  0  0  0  0  0  0  0  0  0
   -1.8216   -1.0990   -0.1607 C   0  0  0  0  0  0  0  0  0  0  0  0
   -2.4798   -0.0990    1.1135 S   0  0  0  0  0  0  0  0  0  0  0  0
   -1.6098    1.0805    1.4462 O   0  0  0  0  0  0  0  0  0  0  0  0
   -2.7966   -0.8908    2.3619 O   0  0  0  0  0  0  0  0  0  0  0  0
   -4.0414    0.4826    0.5105 C   0  0  0  0  0  0  0  0  0  0  0  0
   -5.1893   -0.2644    0.7576 C   0  0  0  0  0  0  0  0  0  0  0  0
   -6.4643    0.0696    0.3481 C   0  0  0  0  0  0  0  0  0  0  0  0
   -6.5846    1.2559   -0.3693 C   0  0  0  0  0  0  0  0  0  0  0  0
   -7.8290    1.6390   -0.8026 F   0  0  0  0  0  0  0  0  0  0  0  0
   -5.4629    2.0281   -0.6357 C   0  0  0  0  0  0  0  0  0  0  0  0
   -4.2047    1.6525   -0.2045 C   0  0  0  0  0  0  0  0  0  0  0  0
    0.5628   -0.6851    0.3080 C   0  0  0  0  0  0  0  0  0  0  0  0
    0.8579    0.2649    1.1129 O   0  0  0  0  0  0  0  0  0  0  0  0
    1.6256   -0.6609   -0.6687 N   0  0  0  0  0  0  0  0  0  0  0  0
    2.7166    0.2550   -0.6546 C   0  0  0  0  0  0  0  0  0  0  0  0
    3.7885   -0.2582    0.0810 C   0  0  0  0  0  0  0  0  0  0  0  0
    4.9613    0.4545    0.2351 C   0  0  0  0  0  0  0  0  0  0  0  0
    5.0568    1.6890   -0.3532 C   0  0  0  0  0  0  0  0  0  0  0  0
    3.9978    2.2127   -1.0885 C   0  0  0  0  0  0  0  0  0  0  0  0
    2.8299    1.4970   -1.2388 C   0  0  0  0  0  0  0  0  0  0  0  0
    6.2615    2.4762   -0.2231 C   0  0  0  0  0  0  0  0  0  0  0  0
    7.2296    3.1248   -0.1102 N   0  0  0  0  0  0  0  0  0  0  0  0
    6.1268   -0.0642    1.0149 C   0  0  0  0  0  0  0  0  0  0  0  0
    7.2521   -0.1729    0.2289 F   0  0  0  0  0  0  0  0  0  0  0  0
    6.3631    0.7370    2.1124 F   0  0  0  0  0  0  0  0  0  0  0  0
    5.7812   -1.3168    1.5096 F   0  0  0  0  0  0  0  0  0  0  0  0
   -1.3549   -3.2328    1.4613 H   0  0  0  0  0  0  0  0  0  0  0  0
   -0.2028   -2.0741    2.2554 H   0  0  0  0  0  0  0  0  0  0  0  0
    0.3973   -3.3389    1.1901 H   0  0  0  0  0  0  0  0  0  0  0  0
   -0.5059   -3.4557   -0.8220 H   0  0  0  0  0  0  0  0  0  0  0  0
   -1.7285   -0.4577   -1.0705 H   0  0  0  0  0  0  0  0  0  0  0  0
   -2.5937   -1.8476   -0.4320 H   0  0  0  0  0  0  0  0  0  0  0  0
   -5.0817   -1.1760    1.3115 H   0  0  0  0  0  0  0  0  0  0  0  0
   -7.3007   -0.5643    0.5808 H   0  0  0  0  0  0  0  0  0  0  0  0
   -5.5902    2.9299   -1.1870 H   0  0  0  0  0  0  0  0  0  0  0  0
   -3.3108    2.2268   -0.3925 H   0  0  0  0  0  0  0  0  0  0  0  0
    1.7365   -1.3017   -1.5045 H   0  0  0  0  0  0  0  0  0  0  0  0
    3.8131   -1.2327    0.5896 H   0  0  0  0  0  0  0  0  0  0  0  0
    4.0215    3.1940   -1.5792 H   0  0  0  0  0  0  0  0  0  0  0  0
    1.9406    1.7870   -1.7798 H   0  0  0  0  0  0  0  0  0  0  0  0
  1  2  1  0
  2  3  1  0
  2  4  1  0
  4  5  1  0
  5  6  2  0
  5  7  2  0
  5  8  1  0
  8  9  2  0
  9 10  1  0
 10 11  2  0
 11 12  1  0
 11 13  1  0
 13 14  2  0
  2 15  1  0
 15 16  2  0
 15 17  1  0
 17 18  1  0
 18 19  2  0
 19 20  1  0
 20 21  2  0
 21 22  1  0
 22 23  2  0
 21 24  1  0
 24 25  3  0
 20 26  1  0
 26 27  1  0
 26 28  1  0
 26 29  1  0
 14  8  1  0
 23 18  1  0
  1 30  1  0
  1 31  1  0
  1 32  1  0
  3 33  1  0
  4 34  1  0
  4 35  1  0
  9 36  1  0
 10 37  1  0
 13 38  1  0
 14 39  1  0
 17 40  1  0
 19 41  1  0
 22 42  1  0
 23 43  1  0
M  END
$$$$
