@<TRIPOS>MOLECULE
*****
 43 44 0 0 0
SMALL
GASTEIGER

@<TRIPOS>ATOM
      1 C          -0.4623   -2.6190    1.3049 C.3     1  UNL1       -0.0259
      2 C          -0.4830   -1.7213    0.1140 C.3     1  UNL1        0.1583
      3 O          -0.2220   -2.5239   -1.0263 O.3     1  UNL1       -0.3780
      4 C          -1.8216   -1.0990   -0.1607 C.3     1  UNL1        0.1078
      5 S          -2.4798   -0.0990    1.1135 S.O2    1  UNL1        0.0001
      6 O          -1.6098    1.0805    1.4462 O.2     1  UNL1       -0.1693
      7 O          -2.7966   -0.8908    2.3619 O.2     1  UNL1       -0.1693
      8 C          -4.0414    0.4826    0.5105 C.ar    1  UNL1        0.0885
      9 C          -5.1893   -0.2644    0.7576 C.ar    1  UNL1       -0.0342
     10 C          -6.4643    0.0696    0.3481 C.ar    1  UNL1       -0.0247
     11 C          -6.5846    1.2559   -0.3693 C.ar    1  UNL1        0.1235
     12 F          -7.8290    1.6390   -0.8026 F       1  UNL1       -0.2055
     13 C          -5.4629    2.0281   -0.6357 C.ar    1  UNL1       -0.0247
     14 C          -4.2047    1.6525   -0.2045 C.ar    1  UNL1       -0.0342
     15 C           0.5628   -0.6851    0.3080 C.2     1  UNL1        0.2503
     16 O           0.8579    0.2649    1.1129 O.2     1  UNL1       -0.2723
     17 N           1.6256   -0.6609   -0.6687 N.am    1  UNL1       -0.2831
     18 C           2.7166    0.2550   -0.6546 C.ar    1  UNL1        0.0341
     19 C           3.7885   -0.2582    0.0810 C.ar    1  UNL1       -0.0276
     20 C           4.9613    0.4545    0.2351 C.ar    1  UNL1        0.0739
     21 C           5.0568    1.6890   -0.3532 C.ar    1  UNL1        0.0635
     22 C           3.9978    2.2127   -1.0885 C.ar    1  UNL1       -0.0421
     23 C           2.8299    1.4970   -1.2388 C.ar    1  UNL1       -0.0392
     24 C           6.2615    2.4762   -0.2231 C.1     1  UNL1        0.0997
     25 N           7.2296    3.1248   -0.1102 N.1     1  UNL1       -0.1909
     26 C           6.1268   -0.0642    1.0149 C.3     1  UNL1        0.4187
     27 F           7.2521   -0.1729    0.2289 F       1  UNL1       -0.1659
     28 F           6.3631    0.7370    2.1124 F       1  UNL1       -0.1659
     29 F           5.7812   -1.3168    1.5096 F       1  UNL1       -0.1659
     30 H          -1.3549   -3.2328    1.4613 H       1  UNL1        0.0263
     31 H          -0.2028   -2.0741    2.2554 H       1  UNL1        0.0263
     32 H           0.3973   -3.3389    1.1901 H       1  UNL1        0.0263
     33 H          -0.5059   -3.4557   -0.8220 H       1  UNL1        0.2109
     34 H          -1.7285   -0.4577   -1.0705 H       1  UNL1        0.0538
     35 H          -2.5937   -1.8476   -0.4320 H       1  UNL1        0.0538
     36 H          -5.0817   -1.1760    1.3115 H       1  UNL1        0.0637
     37 H          -7.3007   -0.5643    0.5808 H       1  UNL1        0.0647
     38 H          -5.5902    2.9299   -1.1870 H       1  UNL1        0.0647
     39 H          -3.3108    2.2268   -0.3925 H       1  UNL1        0.0637
     40 H           1.7365   -1.3017   -1.5045 H       1  UNL1        0.1549
     41 H           3.8131   -1.2327    0.5896 H       1  UNL1        0.0642
     42 H           4.0215    3.1940   -1.5792 H       1  UNL1        0.0631
     43 H           1.9406    1.7870   -1.7798 H       1  UNL1        0.0636
@<TRIPOS>BOND
     1     1     2    1
     2     2     3    1
     3     2     4    1
     4     4     5    1
     5     5     6    2
     6     5     7    2
     7     5     8    1
     8     8     9   ar
     9     9    10   ar
    10    10    11   ar
    11    11    12    1
    12    11    13   ar
    13    13    14   ar
    14     2    15    1
    15    15    16    2
    16    15    17   am
    17    17    18    1
    18    18    19   ar
    19    19    20   ar
    20    20    21   ar
    21    21    22   ar
    22    22    23   ar
    23    21    24    1
    24    24    25    3
    25    20    26    1
    26    26    27    1
    27    26    28    1
    28    26    29    1
    29    14     8   ar
    30    23    18   ar
    31     1    30    1
    32     1    31    1
    33     1    32    1
    34     3    33    1
    35     4    34    1
    36     4    35    1
    37     9    36    1
    38    10    37    1
    39    13    38    1
    40    14    39    1
    41    17    40    1
    42    19    41    1
    43    22    42    1
    44    23    43    1
