
     RDKit          3D

 32 33  0  0  0  0  0  0  0  0999 V2000
   -3.6621    2.0930   -0.2504 C   0  0  0  0  0  0  0  0  0  0  0  0
   -2.7465    0.9652   -0.1821 N   0  0  0  0  0  0  0  0  0  0  0  0
   -1.4692    1.2243    0.1791 C   0  0  0  0  0  0  0  0  0  0  0  0
   -0.5305    0.2409    0.2741 C   0  0  0  0  0  0  0  0  0  0  0  0
    0.6783    0.7277    0.6525 N   0  0  0  0  0  0  0  0  0  0  0  0
    1.9495    0.1198    0.8797 C   0  0  0  0  0  0  0  0  0  0  0  0
    2.8343    0.0753   -0.3273 C   0  0  0  0  0  0  0  0  0  0  0  0
    2.2907   -0.6342   -1.3936 O   0  0  0  0  0  0  0  0  0  0  0  0
    4.1975   -0.4835    0.0236 C   0  0  0  0  0  0  0  0  0  0  0  0
    4.6827    0.2759    1.1008 O   0  0  0  0  0  0  0  0  0  0  0  0
    0.4400    2.0665    0.7878 C   0  0  0  0  0  0  0  0  0  0  0  0
   -0.8435    2.3631    0.5048 N   0  0  0  0  0  0  0  0  0  0  0  0
   -0.8841   -1.0451   -0.0020 C   0  0  0  0  0  0  0  0  0  0  0  0
   -0.0694   -1.9722    0.0704 O   0  0  0  0  0  0  0  0  0  0  0  0
   -2.1639   -1.3015   -0.3635 N   0  0  0  0  0  0  0  0  0  0  0  0
   -2.6170   -2.6500   -0.6740 C   0  0  0  0  0  0  0  0  0  0  0  0
   -3.0791   -0.3188   -0.4528 C   0  0  0  0  0  0  0  0  0  0  0  0
   -4.2564   -0.5178   -0.7800 O   0  0  0  0  0  0  0  0  0  0  0  0
   -3.2700    2.9015   -0.8999 H   0  0  0  0  0  0  0  0  0  0  0  0
   -4.6501    1.7117   -0.5705 H   0  0  0  0  0  0  0  0  0  0  0  0
   -3.7937    2.4625    0.7963 H   0  0  0  0  0  0  0  0  0  0  0  0
    2.5009    0.7184    1.6456 H   0  0  0  0  0  0  0  0  0  0  0  0
    1.8877   -0.9106    1.2793 H   0  0  0  0  0  0  0  0  0  0  0  0
    3.0403    1.1244   -0.6938 H   0  0  0  0  0  0  0  0  0  0  0  0
    2.9629   -1.1083   -1.9459 H   0  0  0  0  0  0  0  0  0  0  0  0
    4.8881   -0.2315   -0.8219 H   0  0  0  0  0  0  0  0  0  0  0  0
    4.2101   -1.5593    0.2235 H   0  0  0  0  0  0  0  0  0  0  0  0
    4.6092   -0.1944    1.9579 H   0  0  0  0  0  0  0  0  0  0  0  0
    1.1712    2.8143    1.0832 H   0  0  0  0  0  0  0  0  0  0  0  0
   -3.0900   -3.0274    0.2761 H   0  0  0  0  0  0  0  0  0  0  0  0
   -1.7783   -3.2903   -0.9556 H   0  0  0  0  0  0  0  0  0  0  0  0
   -3.4397   -2.6397   -1.4212 H   0  0  0  0  0  0  0  0  0  0  0  0
  1  2  1  0
  2  3  1  0
  3  4  2  0
  4  5  1  0
  5  6  1  0
  6  7  1  0
  7  8  1  0
  7  9  1  0
  9 10  1  0
  5 11  1  0
 11 12  2  0
  4 13  1  0
 13 14  2  0
 13 15  1  0
 15 16  1  0
 15 17  1  0
 17 18  2  0
 17  2  1  0
 12  3  1  0
  1 19  1  0
  1 20  1  0
  1 21  1  0
  6 22  1  0
  6 23  1  0
  7 24  1  0
  8 25  1  0
  9 26  1  0
  9 27  1  0
 10 28  1  0
 11 29  1  0
 16 30  1  0
 16 31  1  0
 16 32  1  0
M  END
$$$$
