@<TRIPOS>MOLECULE
*****
 54 57 0 0 0
SMALL
GASTEIGER

@<TRIPOS>ATOM
      1 C           4.2993   -0.6966    3.9273 C.3     1  UNL1        0.0790
      2 O           5.1729   -0.6398    2.8144 O.3     1  UNL1       -0.4914
      3 C           4.6662   -0.4348    1.5434 C.ar    1  UNL1        0.1623
      4 C           3.3121   -0.2846    1.3543 C.ar    1  UNL1       -0.0038
      5 C           2.8487   -0.0831    0.0768 C.ar    1  UNL1        0.0441
      6 C           1.4938    0.0770   -0.1781 C.ar    1  UNL1        0.1340
      7 N           0.5165    0.0185    0.8340 N.pl3   1  UNL1       -0.2989
      8 C          -0.8543    0.2915    0.6047 C.ar    1  UNL1        0.0325
      9 C          -1.3310    1.0826   -0.4003 C.ar    1  UNL1       -0.0388
     10 C          -2.7102    1.2865   -0.5711 C.ar    1  UNL1       -0.0387
     11 C          -3.6316    0.7003    0.2644 C.ar    1  UNL1        0.0338
     12 N          -5.0450    0.8953    0.1023 N.am    1  UNL1       -0.2815
     13 C          -5.8322    0.0310   -0.6931 C.2     1  UNL1        0.2483
     14 O          -5.2090   -0.9215   -1.2470 O.2     1  UNL1       -0.2699
     15 C          -7.2537    0.1726   -0.8981 C.ar    1  UNL1        0.0370
     16 C          -7.9946    1.1956   -0.3558 C.ar    1  UNL1       -0.0496
     17 C          -9.3684    1.2911   -0.5795 C.ar    1  UNL1       -0.0610
     18 C          -9.9875    0.3440   -1.3559 C.ar    1  UNL1       -0.0617
     19 C          -9.2754   -0.6929   -1.9137 C.ar    1  UNL1       -0.0610
     20 C          -7.9210   -0.7519   -1.6693 C.ar    1  UNL1       -0.0496
     21 C          -3.1284   -0.0928    1.2715 C.ar    1  UNL1       -0.0387
     22 C          -1.7996   -0.3020    1.4522 C.ar    1  UNL1       -0.0388
     23 N           1.1442    0.2702   -1.4623 N.ar    1  UNL1       -0.2200
     24 C           2.0158    0.3128   -2.4669 C.ar    1  UNL1        0.1187
     25 N           3.3145    0.1589   -2.2202 N.ar    1  UNL1       -0.2352
     26 C           3.7341   -0.0370   -0.9677 C.ar    1  UNL1        0.0797
     27 C           5.0967   -0.1904   -0.7618 C.ar    1  UNL1        0.0098
     28 C           5.6014   -0.3922    0.4935 C.ar    1  UNL1        0.1641
     29 O           6.9276   -0.5467    0.7727 O.3     1  UNL1       -0.4860
     30 C           8.0064   -0.5034   -0.0613 C.3     1  UNL1        0.1127
     31 C           8.3008    0.7999   -0.7494 C.3     1  UNL1        0.0783
     32 O           9.4478    0.5806   -1.5461 O.3     1  UNL1       -0.3917
     33 H           3.7407    0.2644    3.9975 H       1  UNL1        0.0660
     34 H           4.8464   -0.9238    4.8667 H       1  UNL1        0.0660
     35 H           3.5807   -1.5423    3.7927 H       1  UNL1        0.0660
     36 H           2.6210   -0.3226    2.2018 H       1  UNL1        0.0663
     37 H           0.7847   -0.2419    1.8235 H       1  UNL1        0.1536
     38 H          -0.6463    1.5757   -1.0726 H       1  UNL1        0.0637
     39 H          -3.0835    1.9082   -1.3625 H       1  UNL1        0.0637
     40 H          -5.5098    1.6969    0.5836 H       1  UNL1        0.1551
     41 H          -7.4775    1.9252    0.2501 H       1  UNL1        0.0625
     42 H          -9.9272    2.0969   -0.1477 H       1  UNL1        0.0618
     43 H         -11.0515    0.4171   -1.5295 H       1  UNL1        0.0618
     44 H          -9.8191   -1.4062   -2.5145 H       1  UNL1        0.0618
     45 H          -7.3932   -1.5885   -2.1293 H       1  UNL1        0.0625
     46 H          -3.8443   -0.5719    1.9521 H       1  UNL1        0.0637
     47 H          -1.4512   -0.9292    2.2519 H       1  UNL1        0.0637
     48 H           1.6340    0.4754   -3.4787 H       1  UNL1        0.1048
     49 H           5.7797   -0.1691   -1.6292 H       1  UNL1        0.0677
     50 H           8.9272   -0.7053    0.5776 H       1  UNL1        0.0720
     51 H           8.0337   -1.3423   -0.8088 H       1  UNL1        0.0720
     52 H           7.5149    1.2452   -1.3294 H       1  UNL1        0.0591
     53 H           8.6291    1.5373    0.0259 H       1  UNL1        0.0591
     54 H           9.5546   -0.3726   -1.7349 H       1  UNL1        0.2095
@<TRIPOS>BOND
     1     1     2    1
     2     2     3    1
     3     3     4   ar
     4     4     5   ar
     5     5     6   ar
     6     6     7    1
     7     7     8    1
     8     8     9   ar
     9     9    10   ar
    10    10    11   ar
    11    11    12    1
    12    12    13   am
    13    13    14    2
    14    13    15    1
    15    15    16   ar
    16    16    17   ar
    17    17    18   ar
    18    18    19   ar
    19    19    20   ar
    20    11    21   ar
    21    21    22   ar
    22     6    23   ar
    23    23    24   ar
    24    24    25   ar
    25    25    26   ar
    26    26    27   ar
    27    27    28   ar
    28    28    29    1
    29    29    30    1
    30    30    31    1
    31    31    32    1
    32    28     3   ar
    33    26     5   ar
    34    22     8   ar
    35    20    15   ar
    36     1    33    1
    37     1    34    1
    38     1    35    1
    39     4    36    1
    40     7    37    1
    41     9    38    1
    42    10    39    1
    43    12    40    1
    44    16    41    1
    45    17    42    1
    46    18    43    1
    47    19    44    1
    48    20    45    1
    49    21    46    1
    50    22    47    1
    51    24    48    1
    52    27    49    1
    53    30    50    1
    54    30    51    1
    55    31    52    1
    56    31    53    1
    57    32    54    1
