
     RDKit          3D

 54 57  0  0  0  0  0  0  0  0999 V2000
    4.2993   -0.6966    3.9273 C   0  0  0  0  0  0  0  0  0  0  0  0
    5.1729   -0.6398    2.8144 O   0  0  0  0  0  0  0  0  0  0  0  0
    4.6662   -0.4348    1.5434 C   0  0  0  0  0  0  0  0  0  0  0  0
    3.3121   -0.2846    1.3543 C   0  0  0  0  0  0  0  0  0  0  0  0
    2.8487   -0.0831    0.0768 C   0  0  0  0  0  0  0  0  0  0  0  0
    1.4938    0.0770   -0.1781 C   0  0  0  0  0  0  0  0  0  0  0  0
    0.5165    0.0185    0.8340 N   0  0  0  0  0  0  0  0  0  0  0  0
   -0.8543    0.2915    0.6047 C   0  0  0  0  0  0  0  0  0  0  0  0
   -1.3310    1.0826   -0.4003 C   0  0  0  0  0  0  0  0  0  0  0  0
   -2.7102    1.2865   -0.5711 C   0  0  0  0  0  0  0  0  0  0  0  0
   -3.6316    0.7003    0.2644 C   0  0  0  0  0  0  0  0  0  0  0  0
   -5.0450    0.8953    0.1023 N   0  0  0  0  0  0  0  0  0  0  0  0
   -5.8322    0.0310   -0.6931 C   0  0  0  0  0  0  0  0  0  0  0  0
   -5.2090   -0.9215   -1.2470 O   0  0  0  0  0  0  0  0  0  0  0  0
   -7.2537    0.1726   -0.8981 C   0  0  0  0  0  0  0  0  0  0  0  0
   -7.9946    1.1956   -0.3558 C   0  0  0  0  0  0  0  0  0  0  0  0
   -9.3684    1.2911   -0.5795 C   0  0  0  0  0  0  0  0  0  0  0  0
   -9.9875    0.3440   -1.3559 C   0  0  0  0  0  0  0  0  0  0  0  0
   -9.2754   -0.6929   -1.9137 C   0  0  0  0  0  0  0  0  0  0  0  0
   -7.9210   -0.7519   -1.6693 C   0  0  0  0  0  0  0  0  0  0  0  0
   -3.1284   -0.0928    1.2715 C   0  0  0  0  0  0  0  0  0  0  0  0
   -1.7996   -0.3020    1.4522 C   0  0  0  0  0  0  0  0  0  0  0  0
    1.1442    0.2702   -1.4623 N   0  0  0  0  0  0  0  0  0  0  0  0
    2.0158    0.3128   -2.4669 C   0  0  0  0  0  0  0  0  0  0  0  0
    3.3145    0.1589   -2.2202 N   0  0  0  0  0  0  0  0  0  0  0  0
    3.7341   -0.0370   -0.9677 C   0  0  0  0  0  0  0  0  0  0  0  0
    5.0967   -0.1904   -0.7618 C   0  0  0  0  0  0  0  0  0  0  0  0
    5.6014   -0.3922    0.4935 C   0  0  0  0  0  0  0  0  0  0  0  0
    6.9276   -0.5467    0.7727 O   0  0  0  0  0  0  0  0  0  0  0  0
    8.0064   -0.5034   -0.0613 C   0  0  0  0  0  0  0  0  0  0  0  0
    8.3008    0.7999   -0.7494 C   0  0  0  0  0  0  0  0  0  0  0  0
    9.4478    0.5806   -1.5461 O   0  0  0  0  0  0  0  0  0  0  0  0
    3.7407    0.2644    3.9975 H   0  0  0  0  0  0  0  0  0  0  0  0
    4.8464   -0.9238    4.8667 H   0  0  0  0  0  0  0  0  0  0  0  0
    3.5807   -1.5423    3.7927 H   0  0  0  0  0  0  0  0  0  0  0  0
    2.6210   -0.3226    2.2018 H   0  0  0  0  0  0  0  0  0  0  0  0
    0.7847   -0.2419    1.8235 H   0  0  0  0  0  0  0  0  0  0  0  0
   -0.6463    1.5757   -1.0726 H   0  0  0  0  0  0  0  0  0  0  0  0
   -3.0835    1.9082   -1.3625 H   0  0  0  0  0  0  0  0  0  0  0  0
   -5.5098    1.6969    0.5836 H   0  0  0  0  0  0  0  0  0  0  0  0
   -7.4775    1.9252    0.2501 H   0  0  0  0  0  0  0  0  0  0  0  0
   -9.9272    2.0969   -0.1477 H   0  0  0  0  0  0  0  0  0  0  0  0
  -11.0515    0.4171   -1.5295 H   0  0  0  0  0  0  0  0  0  0  0  0
   -9.8191   -1.4062   -2.5145 H   0  0  0  0  0  0  0  0  0  0  0  0
   -7.3932   -1.5885   -2.1293 H   0  0  0  0  0  0  0  0  0  0  0  0
   -3.8443   -0.5719    1.9521 H   0  0  0  0  0  0  0  0  0  0  0  0
   -1.4512   -0.9292    2.2519 H   0  0  0  0  0  0  0  0  0  0  0  0
    1.6340    0.4754   -3.4787 H   0  0  0  0  0  0  0  0  0  0  0  0
    5.7797   -0.1691   -1.6292 H   0  0  0  0  0  0  0  0  0  0  0  0
    8.9272   -0.7053    0.5776 H   0  0  0  0  0  0  0  0  0  0  0  0
    8.0337   -1.3423   -0.8088 H   0  0  0  0  0  0  0  0  0  0  0  0
    7.5149    1.2452   -1.3294 H   0  0  0  0  0  0  0  0  0  0  0  0
    8.6291    1.5373    0.0259 H   0  0  0  0  0  0  0  0  0  0  0  0
    9.5546   -0.3726   -1.7349 H   0  0  0  0  0  0  0  0  0  0  0  0
  1  2  1  0
  2  3  1  0
  3  4  2  0
  4  5  1  0
  5  6  2  0
  6  7  1  0
  7  8  1  0
  8  9  2  0
  9 10  1  0
 10 11  2  0
 11 12  1  0
 12 13  1  0
 13 14  2  0
 13 15  1  0
 15 16  2  0
 16 17  1  0
 17 18  2  0
 18 19  1  0
 19 20  2  0
 11 21  1  0
 21 22  2  0
  6 23  1  0
 23 24  2  0
 24 25  1  0
 25 26  2  0
 26 27  1  0
 27 28  2  0
 28 29  1  0
 29 30  1  0
 30 31  1  0
 31 32  1  0
 28  3  1  0
 26  5  1  0
 22  8  1  0
 20 15  1  0
  1 33  1  0
  1 34  1  0
  1 35  1  0
  4 36  1  0
  7 37  1  0
  9 38  1  0
 10 39  1  0
 12 40  1  0
 16 41  1  0
 17 42  1  0
 18 43  1  0
 19 44  1  0
 20 45  1  0
 21 46  1  0
 22 47  1  0
 24 48  1  0
 27 49  1  0
 30 50  1  0
 30 51  1  0
 31 52  1  0
 31 53  1  0
 32 54  1  0
M  END
$$$$
