@<TRIPOS>MOLECULE
*****
 50 53 0 0 0
SMALL
GASTEIGER

@<TRIPOS>ATOM
      1 N           6.8288    2.3356   -1.7727 N.3     1  UNL1       -0.2035
      2 S           7.1684    1.1542   -0.5636 S.O2    1  UNL1        0.0560
      3 O           8.0940    1.7182    0.4796 O.2     1  UNL1       -0.1533
      4 O           7.7406   -0.0893   -1.1924 O.2     1  UNL1       -0.1533
      5 C           5.6348    0.7905    0.2355 C.ar    1  UNL1        0.1068
      6 C           5.2352    1.5269    1.3394 C.ar    1  UNL1       -0.0352
      7 C           4.0362    1.2557    1.9802 C.ar    1  UNL1       -0.0582
      8 C           3.2115    0.2440    1.5322 C.ar    1  UNL1       -0.0404
      9 C           3.6218   -0.4810    0.4325 C.ar    1  UNL1        0.0354
     10 N           2.8002   -1.5318   -0.0557 N.pl3   1  UNL1       -0.2834
     11 C           1.5601   -1.8468    0.5638 C.ar    1  UNL1        0.2246
     12 N           0.4049   -1.2758    0.1317 N.ar    1  UNL1       -0.1773
     13 C          -0.7772   -1.5598    0.7082 C.ar    1  UNL1        0.2476
     14 O          -2.0174   -1.0499    0.3651 O.3     1  UNL1       -0.4745
     15 C          -2.1183   -0.1255   -0.7005 C.3     1  UNL1        0.0941
     16 C          -3.5566    0.2975   -0.9007 C.3     1  UNL1       -0.0067
     17 C          -4.0983    0.9540    0.3504 C.3     1  UNL1       -0.0471
     18 C          -5.5995    1.0724    0.1899 C.3     1  UNL1       -0.0527
     19 C          -5.9962    1.7428   -1.0830 C.3     1  UNL1       -0.0530
     20 C          -5.2575    1.2795   -2.3045 C.3     1  UNL1       -0.0527
     21 C          -3.7456    1.2520   -2.0414 C.3     1  UNL1       -0.0471
     22 C          -0.8045   -2.4652    1.7759 C.ar    1  UNL1        0.1690
     23 N          -1.7898   -2.9598    2.5597 N.ar    1  UNL1       -0.2289
     24 C          -1.2495   -3.8268    3.4659 C.ar    1  UNL1        0.0958
     25 N           0.0712   -3.8612    3.2339 N.ar    1  UNL1       -0.3291
     26 C           0.3661   -3.0397    2.2087 C.ar    1  UNL1        0.1665
     27 N           1.5219   -2.7275    1.6045 N.ar    1  UNL1       -0.1946
     28 C           4.8160   -0.2237   -0.2196 C.ar    1  UNL1       -0.0141
     29 H           6.7270    3.2548   -1.3023 H       1  UNL1        0.1442
     30 H           5.9228    2.0846   -2.2245 H       1  UNL1        0.1442
     31 H           5.8858    2.3107    1.6776 H       1  UNL1        0.0637
     32 H           3.7211    1.8265    2.8412 H       1  UNL1        0.0619
     33 H           2.2848    0.0377    2.0305 H       1  UNL1        0.0636
     34 H           3.0424   -2.1174   -0.8667 H       1  UNL1        0.1550
     35 H          -1.7722   -0.5421   -1.6653 H       1  UNL1        0.0700
     36 H          -1.5149    0.7900   -0.5332 H       1  UNL1        0.0700
     37 H          -4.2191   -0.5727   -1.0982 H       1  UNL1        0.0334
     38 H          -3.9045    0.3459    1.2476 H       1  UNL1        0.0269
     39 H          -3.6318    1.9759    0.4061 H       1  UNL1        0.0269
     40 H          -6.0115    0.0316    0.2396 H       1  UNL1        0.0265
     41 H          -5.9962    1.6891    1.0291 H       1  UNL1        0.0265
     42 H          -5.9875    2.8465   -0.9869 H       1  UNL1        0.0265
     43 H          -7.0801    1.4864   -1.2559 H       1  UNL1        0.0265
     44 H          -5.4782    2.0054   -3.1124 H       1  UNL1        0.0265
     45 H          -5.5459    0.2662   -2.5933 H       1  UNL1        0.0265
     46 H          -3.2301    0.9736   -2.9752 H       1  UNL1        0.0269
     47 H          -3.5054    2.2986   -1.7254 H       1  UNL1        0.0269
     48 H          -1.7902   -4.3809    4.2269 H       1  UNL1        0.1027
     49 H           0.7986   -4.4088    3.7268 H       1  UNL1        0.1682
     50 H           5.1838   -0.7610   -1.0841 H       1  UNL1        0.0656
@<TRIPOS>BOND
     1     1     2    1
     2     2     3    2
     3     2     4    2
     4     2     5    1
     5     5     6   ar
     6     6     7   ar
     7     7     8   ar
     8     8     9   ar
     9     9    10    1
    10    10    11    1
    11    11    12   ar
    12    12    13   ar
    13    13    14    1
    14    14    15    1
    15    15    16    1
    16    16    17    1
    17    17    18    1
    18    18    19    1
    19    19    20    1
    20    20    21    1
    21    13    22   ar
    22    22    23   ar
    23    23    24   ar
    24    24    25   ar
    25    25    26   ar
    26    26    27   ar
    27     9    28   ar
    28    28     5   ar
    29    27    11   ar
    30    21    16    1
    31    26    22   ar
    32     1    29    1
    33     1    30    1
    34     6    31    1
    35     7    32    1
    36     8    33    1
    37    10    34    1
    38    15    35    1
    39    15    36    1
    40    16    37    1
    41    17    38    1
    42    17    39    1
    43    18    40    1
    44    18    41    1
    45    19    42    1
    46    19    43    1
    47    20    44    1
    48    20    45    1
    49    21    46    1
    50    21    47    1
    51    24    48    1
    52    25    49    1
    53    28    50    1
