
     RDKit          3D

113118  0  0  0  0  0  0  0  0999 V2000
    6.2338    4.7923   -0.0524 C   0  0  0  0  0  0  0  0  0  0  0  0
    5.2759    3.7891   -0.3628 O   0  0  0  0  0  0  0  0  0  0  0  0
    5.6723    2.4644   -0.4517 C   0  0  0  0  0  0  0  0  0  0  0  0
    4.7317    1.5036   -0.7529 C   0  0  0  0  0  0  0  0  0  0  0  0
    5.1028    0.1784   -0.8463 C   0  0  0  0  0  0  0  0  0  0  0  0
    4.0986   -0.8096   -1.1763 N   0  0  0  0  0  0  0  0  0  0  0  0
    2.7852   -0.4428   -1.4880 C   0  0  0  0  0  0  0  0  0  0  0  0
    1.8278   -0.3918   -0.5097 C   0  0  0  0  0  0  0  0  0  0  0  0
    0.5462   -0.0098   -0.8366 C   0  0  0  0  0  0  0  0  0  0  0  0
   -0.4111    0.0345    0.1988 O   0  0  0  0  0  0  0  0  0  0  0  0
   -1.7177    0.2879   -0.1613 C   0  0  0  0  0  0  0  0  0  0  0  0
   -2.2965    1.4806    0.2790 C   0  0  0  0  0  0  0  0  0  0  0  0
   -3.5994    1.7279   -0.0873 C   0  0  0  0  0  0  0  0  0  0  0  0
   -4.3073    0.8170   -0.8683 C   0  0  0  0  0  0  0  0  0  0  0  0
   -5.6411    1.0714   -1.2734 N   0  0  0  0  0  0  0  0  0  0  0  0
   -6.7838    0.6972   -0.5147 C   0  0  0  0  0  0  0  0  0  0  0  0
   -6.6454    0.0991    0.5922 O   0  0  0  0  0  0  0  0  0  0  0  0
   -8.0942    0.9889   -0.9860 N   0  0  0  0  0  0  0  0  0  0  0  0
   -9.2747    0.6534   -0.2917 C   0  0  0  0  0  0  0  0  0  0  0  0
   -9.8616   -0.5702   -0.5399 C   0  0  0  0  0  0  0  0  0  0  0  0
  -11.0204   -0.9307    0.1074 C   0  0  0  0  0  0  0  0  0  0  0  0
  -11.6364   -2.2354   -0.1709 C   0  0  0  0  0  0  0  0  0  0  0  0
  -12.6164   -2.0611   -1.3129 C   0  0  0  0  0  0  0  0  0  0  0  0
  -12.2677   -2.7608    1.0789 C   0  0  0  0  0  0  0  0  0  0  0  0
  -10.5846   -3.2405   -0.6230 C   0  0  0  0  0  0  0  0  0  0  0  0
  -11.5988   -0.0514    1.0168 C   0  0  0  0  0  0  0  0  0  0  0  0
  -11.0380    1.1755    1.2858 C   0  0  0  0  0  0  0  0  0  0  0  0
  -11.6077    2.0885    2.2080 N   0  0  0  0  0  0  0  0  0  0  0  0
  -13.2445    1.8989    2.7777 S   0  0  0  0  0  6  0  0  0  0  0  0
  -14.3078    2.0179    1.3627 C   0  0  0  0  0  0  0  0  0  0  0  0
  -13.5893    3.0182    3.7051 O   0  0  0  0  0  0  0  0  0  0  0  0
  -13.3604    0.6027    3.4921 O   0  0  0  0  0  0  0  0  0  0  0  0
   -9.8777    1.5057    0.6210 C   0  0  0  0  0  0  0  0  0  0  0  0
   -9.2967    2.7290    0.8745 O   0  0  0  0  0  0  0  0  0  0  0  0
   -9.6229    3.9020    0.1286 C   0  0  0  0  0  0  0  0  0  0  0  0
   -3.7296   -0.3648   -1.3001 C   0  0  0  0  0  0  0  0  0  0  0  0
   -4.4667   -1.2506   -2.0568 C   0  0  0  0  0  0  0  0  0  0  0  0
   -3.8585   -2.4255   -2.4507 C   0  0  0  0  0  0  0  0  0  0  0  0
   -2.5527   -2.6992   -2.0945 C   0  0  0  0  0  0  0  0  0  0  0  0
   -1.8271   -1.8063   -1.3391 C   0  0  0  0  0  0  0  0  0  0  0  0
   -2.4082   -0.6141   -0.9273 C   0  0  0  0  0  0  0  0  0  0  0  0
    0.2238    0.3208   -2.1434 C   0  0  0  0  0  0  0  0  0  0  0  0
    1.2219    0.2522   -3.0865 C   0  0  0  0  0  0  0  0  0  0  0  0
    2.4709   -0.1233   -2.7508 N   0  0  0  0  0  0  0  0  0  0  0  0
    6.4304   -0.1721   -0.6337 C   0  0  0  0  0  0  0  0  0  0  0  0
    7.3877    0.7706   -0.3321 C   0  0  0  0  0  0  0  0  0  0  0  0
    8.7692    0.4080   -0.1165 C   0  0  0  0  0  0  0  0  0  0  0  0
    9.5896    1.3519    0.1325 O   0  0  0  0  0  0  0  0  0  0  0  0
    9.3114   -0.8919   -0.1530 N   0  0  0  0  0  0  0  0  0  0  0  0
   10.7112   -1.1890    0.0705 C   0  0  0  0  0  0  0  0  0  0  0  0
   11.2237   -0.7790    1.4125 C   0  0  0  0  0  0  0  0  0  0  0  0
   12.6015   -1.1008    1.5421 N   0  0  0  0  0  0  0  0  0  0  0  0
   12.9406   -2.4786    1.5946 C   0  0  0  0  0  0  0  0  0  0  0  0
   14.3879   -2.7475    1.8529 C   0  0  0  0  0  0  0  0  0  0  0  0
   15.1793   -1.6277    1.8971 O   0  0  0  0  0  0  0  0  0  0  0  0
   14.9358   -0.7122    0.9055 C   0  0  0  0  0  0  0  0  0  0  0  0
   15.8101    0.5095    1.1961 C   0  0  0  0  0  0  0  0  0  0  0  0
   15.4083   -1.2295   -0.4527 C   0  0  0  0  0  0  0  0  0  0  0  0
   13.5062   -0.2462    0.8584 C   0  0  0  0  0  0  0  0  0  0  0  0
    6.9793    2.0820   -0.2473 C   0  0  0  0  0  0  0  0  0  0  0  0
    5.7743    5.7998   -0.0716 H   0  0  0  0  0  0  0  0  0  0  0  0
    7.0417    4.6859   -0.8229 H   0  0  0  0  0  0  0  0  0  0  0  0
    6.7161    4.5631    0.9146 H   0  0  0  0  0  0  0  0  0  0  0  0
    3.6809    1.7616   -0.9234 H   0  0  0  0  0  0  0  0  0  0  0  0
    4.3835   -1.8158   -1.1761 H   0  0  0  0  0  0  0  0  0  0  0  0
    2.0669   -0.6496    0.5240 H   0  0  0  0  0  0  0  0  0  0  0  0
   -1.7347    2.1757    0.8839 H   0  0  0  0  0  0  0  0  0  0  0  0
   -4.1196    2.6203    0.2078 H   0  0  0  0  0  0  0  0  0  0  0  0
   -5.7526    1.5718   -2.2032 H   0  0  0  0  0  0  0  0  0  0  0  0
   -8.1591    1.4848   -1.9113 H   0  0  0  0  0  0  0  0  0  0  0  0
   -9.4361   -1.2581   -1.2315 H   0  0  0  0  0  0  0  0  0  0  0  0
  -13.4935   -1.4921   -0.9401 H   0  0  0  0  0  0  0  0  0  0  0  0
  -12.0793   -1.4616   -2.0944 H   0  0  0  0  0  0  0  0  0  0  0  0
  -12.8571   -3.0320   -1.7474 H   0  0  0  0  0  0  0  0  0  0  0  0
  -13.2353   -2.2758    1.3210 H   0  0  0  0  0  0  0  0  0  0  0  0
  -12.4173   -3.8666    0.9437 H   0  0  0  0  0  0  0  0  0  0  0  0
  -11.5333   -2.6395    1.9024 H   0  0  0  0  0  0  0  0  0  0  0  0
   -9.7220   -3.1321    0.0548 H   0  0  0  0  0  0  0  0  0  0  0  0
  -11.0489   -4.2429   -0.5204 H   0  0  0  0  0  0  0  0  0  0  0  0
  -10.3075   -3.0495   -1.7002 H   0  0  0  0  0  0  0  0  0  0  0  0
  -12.4933   -0.3331    1.5186 H   0  0  0  0  0  0  0  0  0  0  0  0
  -11.0407    2.8867    2.5527 H   0  0  0  0  0  0  0  0  0  0  0  0
  -15.3670    2.2271    1.6383 H   0  0  0  0  0  0  0  0  0  0  0  0
  -13.9222    2.8924    0.7598 H   0  0  0  0  0  0  0  0  0  0  0  0
  -14.2244    1.1102    0.7355 H   0  0  0  0  0  0  0  0  0  0  0  0
  -10.4353    4.4106    0.7016 H   0  0  0  0  0  0  0  0  0  0  0  0
   -8.7094    4.5226    0.0437 H   0  0  0  0  0  0  0  0  0  0  0  0
   -9.9440    3.6316   -0.8813 H   0  0  0  0  0  0  0  0  0  0  0  0
   -5.4830   -1.0050   -2.3158 H   0  0  0  0  0  0  0  0  0  0  0  0
   -4.3944   -3.1346   -3.0366 H   0  0  0  0  0  0  0  0  0  0  0  0
   -2.0602   -3.6166   -2.3950 H   0  0  0  0  0  0  0  0  0  0  0  0
   -0.7991   -2.0725   -1.0683 H   0  0  0  0  0  0  0  0  0  0  0  0
   -0.7818    0.6302   -2.4114 H   0  0  0  0  0  0  0  0  0  0  0  0
    0.9916    0.5070   -4.1175 H   0  0  0  0  0  0  0  0  0  0  0  0
    6.7072   -1.2076   -0.7096 H   0  0  0  0  0  0  0  0  0  0  0  0
    8.6352   -1.6619   -0.3556 H   0  0  0  0  0  0  0  0  0  0  0  0
   11.3608   -0.7655   -0.7166 H   0  0  0  0  0  0  0  0  0  0  0  0
   10.8299   -2.2912    0.0024 H   0  0  0  0  0  0  0  0  0  0  0  0
   10.6367   -1.2849    2.2353 H   0  0  0  0  0  0  0  0  0  0  0  0
   11.1269    0.3248    1.5176 H   0  0  0  0  0  0  0  0  0  0  0  0
   12.6530   -2.9482    0.6129 H   0  0  0  0  0  0  0  0  0  0  0  0
   12.3403   -2.9645    2.3927 H   0  0  0  0  0  0  0  0  0  0  0  0
   14.5397   -3.2793    2.8388 H   0  0  0  0  0  0  0  0  0  0  0  0
   14.8051   -3.4526    1.0901 H   0  0  0  0  0  0  0  0  0  0  0  0
   16.7856    0.2136    1.6213 H   0  0  0  0  0  0  0  0  0  0  0  0
   15.2978    1.1397    1.9591 H   0  0  0  0  0  0  0  0  0  0  0  0
   15.9964    1.1083    0.2872 H   0  0  0  0  0  0  0  0  0  0  0  0
   16.4645   -0.9055   -0.6620 H   0  0  0  0  0  0  0  0  0  0  0  0
   14.7599   -0.7811   -1.2234 H   0  0  0  0  0  0  0  0  0  0  0  0
   15.3949   -2.3236   -0.5080 H   0  0  0  0  0  0  0  0  0  0  0  0
   13.2327   -0.1944   -0.2176 H   0  0  0  0  0  0  0  0  0  0  0  0
   13.3951    0.7906    1.2900 H   0  0  0  0  0  0  0  0  0  0  0  0
    7.7158    2.8222   -0.0132 H   0  0  0  0  0  0  0  0  0  0  0  0
  1  2  1  0
  2  3  1  0
  3  4  2  0
  4  5  1  0
  5  6  1  0
  6  7  1  0
  7  8  2  0
  8  9  1  0
  9 10  1  0
 10 11  1  0
 11 12  2  0
 12 13  1  0
 13 14  2  0
 14 15  1  0
 15 16  1  0
 16 17  2  0
 16 18  1  0
 18 19  1  0
 19 20  2  0
 20 21  1  0
 21 22  1  0
 22 23  1  0
 22 24  1  0
 22 25  1  0
 21 26  2  0
 26 27  1  0
 27 28  1  0
 28 29  1  0
 29 30  1  0
 29 31  2  0
 29 32  2  0
 27 33  2  0
 33 34  1  0
 34 35  1  0
 14 36  1  0
 36 37  2  0
 37 38  1  0
 38 39  2  0
 39 40  1  0
 40 41  2  0
  9 42  2  0
 42 43  1  0
 43 44  2  0
  5 45  2  0
 45 46  1  0
 46 47  1  0
 47 48  2  0
 47 49  1  0
 49 50  1  0
 50 51  1  0
 51 52  1  0
 52 53  1  0
 53 54  1  0
 54 55  1  0
 55 56  1  0
 56 57  1  0
 56 58  1  0
 56 59  1  0
 46 60  2  0
 60  3  1  0
 44  7  1  0
 59 52  1  0
 41 11  1  0
 33 19  1  0
 41 36  1  0
  1 61  1  0
  1 62  1  0
  1 63  1  0
  4 64  1  0
  6 65  1  0
  8 66  1  0
 12 67  1  0
 13 68  1  0
 15 69  1  0
 18 70  1  0
 20 71  1  0
 23 72  1  0
 23 73  1  0
 23 74  1  0
 24 75  1  0
 24 76  1  0
 24 77  1  0
 25 78  1  0
 25 79  1  0
 25 80  1  0
 26 81  1  0
 28 82  1  0
 30 83  1  0
 30 84  1  0
 30 85  1  0
 35 86  1  0
 35 87  1  0
 35 88  1  0
 37 89  1  0
 38 90  1  0
 39 91  1  0
 40 92  1  0
 42 93  1  0
 43 94  1  0
 45 95  1  0
 49 96  1  0
 50 97  1  0
 50 98  1  0
 51 99  1  0
 51100  1  0
 53101  1  0
 53102  1  0
 54103  1  0
 54104  1  0
 57105  1  0
 57106  1  0
 57107  1  0
 58108  1  0
 58109  1  0
 58110  1  0
 59111  1  0
 59112  1  0
 60113  1  0
M  END
$$$$
