@<TRIPOS>MOLECULE
*****
 113 118 0 0 0
SMALL
GASTEIGER

@<TRIPOS>ATOM
      1 C           6.2338    4.7923   -0.0524 C.3     1  UNL1        0.0788
      2 O           5.2759    3.7891   -0.3628 O.3     1  UNL1       -0.4950
      3 C           5.6723    2.4644   -0.4517 C.ar    1  UNL1        0.1226
      4 C           4.7317    1.5036   -0.7529 C.ar    1  UNL1        0.0013
      5 C           5.1028    0.1784   -0.8463 C.ar    1  UNL1        0.0366
      6 N           4.0986   -0.8096   -1.1763 N.pl3   1  UNL1       -0.2992
      7 C           2.7852   -0.4428   -1.4880 C.ar    1  UNL1        0.1264
      8 C           1.8278   -0.3918   -0.5097 C.ar    1  UNL1        0.0208
      9 C           0.5462   -0.0098   -0.8366 C.ar    1  UNL1        0.1332
     10 O          -0.4111    0.0345    0.1988 O.3     1  UNL1       -0.4553
     11 C          -1.7177    0.2879   -0.1613 C.ar    1  UNL1        0.1362
     12 C          -2.2965    1.4806    0.2790 C.ar    1  UNL1       -0.0170
     13 C          -3.5994    1.7279   -0.0873 C.ar    1  UNL1       -0.0364
     14 C          -4.3073    0.8170   -0.8683 C.ar    1  UNL1        0.0427
     15 N          -5.6411    1.0714   -1.2734 N.am    1  UNL1       -0.2686
     16 C          -6.7838    0.6972   -0.5147 C.2     1  UNL1        0.3082
     17 O          -6.6454    0.0991    0.5922 O.2     1  UNL1       -0.2521
     18 N          -8.0942    0.9889   -0.9860 N.am    1  UNL1       -0.2660
     19 C          -9.2747    0.6534   -0.2917 C.ar    1  UNL1        0.0789
     20 C          -9.8616   -0.5702   -0.5399 C.ar    1  UNL1       -0.0330
     21 C         -11.0204   -0.9307    0.1074 C.ar    1  UNL1       -0.0382
     22 C         -11.6364   -2.2354   -0.1709 C.3     1  UNL1       -0.0126
     23 C         -12.6164   -2.0611   -1.3129 C.3     1  UNL1       -0.0560
     24 C         -12.2677   -2.7608    1.0789 C.3     1  UNL1       -0.0560
     25 C         -10.5846   -3.2405   -0.6230 C.3     1  UNL1       -0.0560
     26 C         -11.5988   -0.0514    1.0168 C.ar    1  UNL1       -0.0320
     27 C         -11.0380    1.1755    1.2858 C.ar    1  UNL1        0.0913
     28 N         -11.6077    2.0885    2.2080 N.pl3   1  UNL1       -0.2173
     29 S         -13.2445    1.8989    2.7777 S.O2    1  UNL1        0.0404
     30 C         -14.3078    2.0179    1.3627 C.3     1  UNL1        0.0736
     31 O         -13.5893    3.0182    3.7051 O.2     1  UNL1       -0.1555
     32 O         -13.3604    0.6027    3.4921 O.2     1  UNL1       -0.1555
     33 C          -9.8777    1.5057    0.6210 C.ar    1  UNL1        0.1634
     34 O          -9.2967    2.7290    0.8745 O.3     1  UNL1       -0.4914
     35 C          -9.6229    3.9020    0.1286 C.3     1  UNL1        0.0790
     36 C          -3.7296   -0.3648   -1.3001 C.ar    1  UNL1        0.0069
     37 C          -4.4667   -1.2506   -2.0568 C.ar    1  UNL1       -0.0521
     38 C          -3.8585   -2.4255   -2.4507 C.ar    1  UNL1       -0.0611
     39 C          -2.5527   -2.6992   -2.0945 C.ar    1  UNL1       -0.0611
     40 C          -1.8271   -1.8063   -1.3391 C.ar    1  UNL1       -0.0505
     41 C          -2.4082   -0.6141   -0.9273 C.ar    1  UNL1        0.0262
     42 C           0.2238    0.3208   -2.1434 C.ar    1  UNL1       -0.0011
     43 C           1.2219    0.2522   -3.0865 C.ar    1  UNL1        0.0332
     44 N           2.4709   -0.1233   -2.7508 N.ar    1  UNL1       -0.2400
     45 C           6.4304   -0.1721   -0.6337 C.ar    1  UNL1       -0.0282
     46 C           7.3877    0.7706   -0.3321 C.ar    1  UNL1        0.0419
     47 C           8.7692    0.4080   -0.1165 C.2     1  UNL1        0.2443
     48 O           9.5896    1.3519    0.1325 O.2     1  UNL1       -0.2702
     49 N           9.3114   -0.8919   -0.1530 N.am    1  UNL1       -0.3101
     50 C          10.7112   -1.1890    0.0705 C.3     1  UNL1        0.0247
     51 C          11.2237   -0.7790    1.4125 C.3     1  UNL1        0.0147
     52 N          12.6015   -1.1008    1.5421 N.3     1  UNL1       -0.2960
     53 C          12.9406   -2.4786    1.5946 C.3     1  UNL1        0.0225
     54 C          14.3879   -2.7475    1.8529 C.3     1  UNL1        0.0611
     55 O          15.1793   -1.6277    1.8971 O.3     1  UNL1       -0.3714
     56 C          14.9358   -0.7122    0.9055 C.3     1  UNL1        0.0766
     57 C          15.8101    0.5095    1.1961 C.3     1  UNL1       -0.0349
     58 C          15.4083   -1.2295   -0.4527 C.3     1  UNL1       -0.0349
     59 C          13.5062   -0.2462    0.8584 C.3     1  UNL1        0.0276
     60 C           6.9793    2.0820   -0.2473 C.ar    1  UNL1       -0.0077
     61 H           5.7743    5.7998   -0.0716 H       1  UNL1        0.0660
     62 H           7.0417    4.6859   -0.8229 H       1  UNL1        0.0660
     63 H           6.7161    4.5631    0.9146 H       1  UNL1        0.0660
     64 H           3.6809    1.7616   -0.9234 H       1  UNL1        0.0673
     65 H           4.3835   -1.8158   -1.1761 H       1  UNL1        0.1536
     66 H           2.0669   -0.6496    0.5240 H       1  UNL1        0.0689
     67 H          -1.7347    2.1757    0.8839 H       1  UNL1        0.0655
     68 H          -4.1196    2.6203    0.2078 H       1  UNL1        0.0637
     69 H          -5.7526    1.5718   -2.2032 H       1  UNL1        0.1564
     70 H          -8.1591    1.4848   -1.9113 H       1  UNL1        0.1565
     71 H          -9.4361   -1.2581   -1.2315 H       1  UNL1        0.0640
     72 H         -13.4935   -1.4921   -0.9401 H       1  UNL1        0.0238
     73 H         -12.0793   -1.4616   -2.0944 H       1  UNL1        0.0238
     74 H         -12.8571   -3.0320   -1.7474 H       1  UNL1        0.0238
     75 H         -13.2353   -2.2758    1.3210 H       1  UNL1        0.0238
     76 H         -12.4173   -3.8666    0.9437 H       1  UNL1        0.0238
     77 H         -11.5333   -2.6395    1.9024 H       1  UNL1        0.0238
     78 H          -9.7220   -3.1321    0.0548 H       1  UNL1        0.0238
     79 H         -11.0489   -4.2429   -0.5204 H       1  UNL1        0.0238
     80 H         -10.3075   -3.0495   -1.7002 H       1  UNL1        0.0238
     81 H         -12.4933   -0.3331    1.5186 H       1  UNL1        0.0641
     82 H         -11.0407    2.8867    2.5527 H       1  UNL1        0.1734
     83 H         -15.3670    2.2271    1.6383 H       1  UNL1        0.0482
     84 H         -13.9222    2.8924    0.7598 H       1  UNL1        0.0482
     85 H         -14.2244    1.1102    0.7355 H       1  UNL1        0.0482
     86 H         -10.4353    4.4106    0.7016 H       1  UNL1        0.0660
     87 H          -8.7094    4.5226    0.0437 H       1  UNL1        0.0660
     88 H          -9.9440    3.6316   -0.8813 H       1  UNL1        0.0660
     89 H          -5.4830   -1.0050   -2.3158 H       1  UNL1        0.0624
     90 H          -4.3944   -3.1346   -3.0366 H       1  UNL1        0.0618
     91 H          -2.0602   -3.6166   -2.3950 H       1  UNL1        0.0618
     92 H          -0.7991   -2.0725   -1.0683 H       1  UNL1        0.0625
     93 H          -0.7818    0.6302   -2.4114 H       1  UNL1        0.0669
     94 H           0.9916    0.5070   -4.1175 H       1  UNL1        0.0831
     95 H           6.7072   -1.2076   -0.7096 H       1  UNL1        0.0644
     96 H           8.6352   -1.6619   -0.3556 H       1  UNL1        0.1490
     97 H          11.3608   -0.7655   -0.7166 H       1  UNL1        0.0475
     98 H          10.8299   -2.2912    0.0024 H       1  UNL1        0.0475
     99 H          10.6367   -1.2849    2.2353 H       1  UNL1        0.0442
    100 H          11.1269    0.3248    1.5176 H       1  UNL1        0.0442
    101 H          12.6530   -2.9482    0.6129 H       1  UNL1        0.0449
    102 H          12.3403   -2.9645    2.3927 H       1  UNL1        0.0449
    103 H          14.5397   -3.2793    2.8388 H       1  UNL1        0.0573
    104 H          14.8051   -3.4526    1.0901 H       1  UNL1        0.0573
    105 H          16.7856    0.2136    1.6213 H       1  UNL1        0.0258
    106 H          15.2978    1.1397    1.9591 H       1  UNL1        0.0258
    107 H          15.9964    1.1083    0.2872 H       1  UNL1        0.0258
    108 H          16.4645   -0.9055   -0.6620 H       1  UNL1        0.0258
    109 H          14.7599   -0.7811   -1.2234 H       1  UNL1        0.0258
    110 H          15.3949   -2.3236   -0.5080 H       1  UNL1        0.0258
    111 H          13.2327   -0.1944   -0.2176 H       1  UNL1        0.0455
    112 H          13.3951    0.7906    1.2900 H       1  UNL1        0.0455
    113 H           7.7158    2.8222   -0.0132 H       1  UNL1        0.0662
@<TRIPOS>BOND
     1     1     2    1
     2     2     3    1
     3     3     4   ar
     4     4     5   ar
     5     5     6    1
     6     6     7    1
     7     7     8   ar
     8     8     9   ar
     9     9    10    1
    10    10    11    1
    11    11    12   ar
    12    12    13   ar
    13    13    14   ar
    14    14    15    1
    15    15    16   am
    16    16    17    2
    17    16    18   am
    18    18    19    1
    19    19    20   ar
    20    20    21   ar
    21    21    22    1
    22    22    23    1
    23    22    24    1
    24    22    25    1
    25    21    26   ar
    26    26    27   ar
    27    27    28    1
    28    28    29    1
    29    29    30    1
    30    29    31    2
    31    29    32    2
    32    27    33   ar
    33    33    34    1
    34    34    35    1
    35    14    36   ar
    36    36    37   ar
    37    37    38   ar
    38    38    39   ar
    39    39    40   ar
    40    40    41   ar
    41     9    42   ar
    42    42    43   ar
    43    43    44   ar
    44     5    45   ar
    45    45    46   ar
    46    46    47    1
    47    47    48    2
    48    47    49   am
    49    49    50    1
    50    50    51    1
    51    51    52    1
    52    52    53    1
    53    53    54    1
    54    54    55    1
    55    55    56    1
    56    56    57    1
    57    56    58    1
    58    56    59    1
    59    46    60   ar
    60    60     3   ar
    61    44     7   ar
    62    59    52    1
    63    41    11   ar
    64    33    19   ar
    65    41    36   ar
    66     1    61    1
    67     1    62    1
    68     1    63    1
    69     4    64    1
    70     6    65    1
    71     8    66    1
    72    12    67    1
    73    13    68    1
    74    15    69    1
    75    18    70    1
    76    20    71    1
    77    23    72    1
    78    23    73    1
    79    23    74    1
    80    24    75    1
    81    24    76    1
    82    24    77    1
    83    25    78    1
    84    25    79    1
    85    25    80    1
    86    26    81    1
    87    28    82    1
    88    30    83    1
    89    30    84    1
    90    30    85    1
    91    35    86    1
    92    35    87    1
    93    35    88    1
    94    37    89    1
    95    38    90    1
    96    39    91    1
    97    40    92    1
    98    42    93    1
    99    43    94    1
   100    45    95    1
   101    49    96    1
   102    50    97    1
   103    50    98    1
   104    51    99    1
   105    51   100    1
   106    53   101    1
   107    53   102    1
   108    54   103    1
   109    54   104    1
   110    57   105    1
   111    57   106    1
   112    57   107    1
   113    58   108    1
   114    58   109    1
   115    58   110    1
   116    59   111    1
   117    59   112    1
   118    60   113    1
