@<TRIPOS>MOLECULE
*****
 42 45 0 0 0
SMALL
GASTEIGER

@<TRIPOS>ATOM
      1 N          -2.9254    2.3502   -2.0513 N.pl3   1  UNL1       -0.3134
      2 C          -3.1904    1.4333   -1.0010 C.2     1  UNL1        0.2763
      3 N          -2.2922    1.0890   -0.1465 N.2     1  UNL1       -0.2225
      4 C          -2.5872    0.1324    0.9407 C.3     1  UNL1        0.1271
      5 C          -3.1547    1.0406    2.0429 C.3     1  UNL1        0.1199
      6 F          -4.2713    1.6936    1.6122 F       1  UNL1       -0.2462
      7 C          -1.2679   -0.4213    1.3522 C.ar    1  UNL1        0.0030
      8 C          -0.0772    0.0101    0.7452 C.ar    1  UNL1       -0.0335
      9 C           1.1465   -0.4912    1.1321 C.ar    1  UNL1        0.0341
     10 N           2.3386   -0.0361    0.4994 N.am    1  UNL1       -0.2802
     11 C           2.8993   -0.6399   -0.6490 C.2     1  UNL1        0.2666
     12 O           2.2959   -1.6388   -1.1281 O.2     1  UNL1       -0.2682
     13 C           4.1196   -0.1691   -1.2915 C.ar    1  UNL1        0.1257
     14 C           4.6348   -0.7846   -2.4097 C.ar    1  UNL1       -0.0301
     15 C           5.8081   -0.3222   -3.0174 C.ar    1  UNL1       -0.0441
     16 C           6.4615    0.7662   -2.4917 C.ar    1  UNL1        0.0360
     17 BR          8.0757    1.4547   -3.2733 Br      1  UNL1       -0.0487
     18 C           5.9177    1.3602   -1.3693 C.ar    1  UNL1        0.0424
     19 N           4.7811    0.8923   -0.8014 N.ar    1  UNL1       -0.2493
     20 C           1.1483   -1.4325    2.1391 C.ar    1  UNL1       -0.0391
     21 C           0.0024   -1.8818    2.7596 C.ar    1  UNL1       -0.0413
     22 C          -1.2230   -1.3647    2.3556 C.ar    1  UNL1        0.0466
     23 CL         -2.7246   -1.8904    3.0782 Cl      1  UNL1       -0.0832
     24 C          -3.5442   -0.9320    0.5275 C.3     1  UNL1        0.0314
     25 C          -4.9676   -0.9558    0.8778 C.3     1  UNL1       -0.0065
     26 C          -4.5735   -0.5177   -0.4550 C.3     1  UNL1        0.1090
     27 O          -4.4515    0.8417   -0.8260 O.2     1  UNL1       -0.4622
     28 H          -3.3389    3.2859   -2.1292 H       1  UNL1        0.1466
     29 H          -2.2569    2.0580   -2.8111 H       1  UNL1        0.1466
     30 H          -2.3255    1.7813    2.2404 H       1  UNL1        0.0643
     31 H          -3.3772    0.5249    2.9685 H       1  UNL1        0.0643
     32 H          -0.1131    0.7431   -0.0349 H       1  UNL1        0.0640
     33 H           2.8505    0.7996    0.8937 H       1  UNL1        0.1552
     34 H           4.1564   -1.6335   -2.8487 H       1  UNL1        0.0641
     35 H           6.2285   -0.7884   -3.8924 H       1  UNL1        0.0630
     36 H           6.4522    2.2163   -0.9749 H       1  UNL1        0.0841
     37 H           2.1039   -1.8289    2.4468 H       1  UNL1        0.0636
     38 H          -0.0156   -2.6128    3.5441 H       1  UNL1        0.0633
     39 H          -3.0410   -1.8999    0.2814 H       1  UNL1        0.0365
     40 H          -5.4540   -0.2610    1.5731 H       1  UNL1        0.0306
     41 H          -5.4358   -1.9839    0.9280 H       1  UNL1        0.0306
     42 H          -4.8125   -1.1716   -1.3358 H       1  UNL1        0.0737
@<TRIPOS>BOND
     1     1     2    1
     2     2     3    2
     3     3     4    1
     4     4     5    1
     5     5     6    1
     6     4     7    1
     7     7     8   ar
     8     8     9   ar
     9     9    10    1
    10    10    11   am
    11    11    12    2
    12    11    13    1
    13    13    14   ar
    14    14    15   ar
    15    15    16   ar
    16    16    17    1
    17    16    18   ar
    18    18    19   ar
    19     9    20   ar
    20    20    21   ar
    21    21    22   ar
    22    22    23    1
    23     4    24    1
    24    24    25    1
    25    25    26    1
    26    26    27    1
    27    27     2    1
    28    22     7   ar
    29    26    24    1
    30    19    13   ar
    31     1    28    1
    32     1    29    1
    33     5    30    1
    34     5    31    1
    35     8    32    1
    36    10    33    1
    37    14    34    1
    38    15    35    1
    39    18    36    1
    40    20    37    1
    41    21    38    1
    42    24    39    1
    43    25    40    1
    44    25    41    1
    45    26    42    1
