
     RDKit          3D

 42 45  0  0  0  0  0  0  0  0999 V2000
   -2.9254    2.3502   -2.0513 N   0  0  0  0  0  0  0  0  0  0  0  0
   -3.1904    1.4333   -1.0010 C   0  0  0  0  0  0  0  0  0  0  0  0
   -2.2922    1.0890   -0.1465 N   0  0  0  0  0  0  0  0  0  0  0  0
   -2.5872    0.1324    0.9407 C   0  0  2  0  0  0  0  0  0  0  0  0
   -3.1547    1.0406    2.0429 C   0  0  0  0  0  0  0  0  0  0  0  0
   -4.2713    1.6936    1.6122 F   0  0  0  0  0  0  0  0  0  0  0  0
   -1.2679   -0.4213    1.3522 C   0  0  0  0  0  0  0  0  0  0  0  0
   -0.0772    0.0101    0.7452 C   0  0  0  0  0  0  0  0  0  0  0  0
    1.1465   -0.4912    1.1321 C   0  0  0  0  0  0  0  0  0  0  0  0
    2.3386   -0.0361    0.4994 N   0  0  0  0  0  0  0  0  0  0  0  0
    2.8993   -0.6399   -0.6490 C   0  0  0  0  0  0  0  0  0  0  0  0
    2.2959   -1.6388   -1.1281 O   0  0  0  0  0  0  0  0  0  0  0  0
    4.1196   -0.1691   -1.2915 C   0  0  0  0  0  0  0  0  0  0  0  0
    4.6348   -0.7846   -2.4097 C   0  0  0  0  0  0  0  0  0  0  0  0
    5.8081   -0.3222   -3.0174 C   0  0  0  0  0  0  0  0  0  0  0  0
    6.4615    0.7662   -2.4917 C   0  0  0  0  0  0  0  0  0  0  0  0
    8.0757    1.4547   -3.2733 Br  0  0  0  0  0  0  0  0  0  0  0  0
    5.9177    1.3602   -1.3693 C   0  0  0  0  0  0  0  0  0  0  0  0
    4.7811    0.8923   -0.8014 N   0  0  0  0  0  0  0  0  0  0  0  0
    1.1483   -1.4325    2.1391 C   0  0  0  0  0  0  0  0  0  0  0  0
    0.0024   -1.8818    2.7596 C   0  0  0  0  0  0  0  0  0  0  0  0
   -1.2230   -1.3647    2.3556 C   0  0  0  0  0  0  0  0  0  0  0  0
   -2.7246   -1.8904    3.0782 Cl  0  0  0  0  0  0  0  0  0  0  0  0
   -3.5442   -0.9320    0.5275 C   0  0  1  0  0  0  0  0  0  0  0  0
   -4.9676   -0.9558    0.8778 C   0  0  0  0  0  0  0  0  0  0  0  0
   -4.5735   -0.5177   -0.4550 C   0  0  1  0  0  0  0  0  0  0  0  0
   -4.4515    0.8417   -0.8260 O   0  0  0  0  0  0  0  0  0  0  0  0
   -3.3389    3.2859   -2.1292 H   0  0  0  0  0  0  0  0  0  0  0  0
   -2.2569    2.0580   -2.8111 H   0  0  0  0  0  0  0  0  0  0  0  0
   -2.3255    1.7813    2.2404 H   0  0  0  0  0  0  0  0  0  0  0  0
   -3.3772    0.5249    2.9685 H   0  0  0  0  0  0  0  0  0  0  0  0
   -0.1131    0.7431   -0.0349 H   0  0  0  0  0  0  0  0  0  0  0  0
    2.8505    0.7996    0.8937 H   0  0  0  0  0  0  0  0  0  0  0  0
    4.1564   -1.6335   -2.8487 H   0  0  0  0  0  0  0  0  0  0  0  0
    6.2285   -0.7884   -3.8924 H   0  0  0  0  0  0  0  0  0  0  0  0
    6.4522    2.2163   -0.9749 H   0  0  0  0  0  0  0  0  0  0  0  0
    2.1039   -1.8289    2.4468 H   0  0  0  0  0  0  0  0  0  0  0  0
   -0.0156   -2.6128    3.5441 H   0  0  0  0  0  0  0  0  0  0  0  0
   -3.0410   -1.8999    0.2814 H   0  0  0  0  0  0  0  0  0  0  0  0
   -5.4540   -0.2610    1.5731 H   0  0  0  0  0  0  0  0  0  0  0  0
   -5.4358   -1.9839    0.9280 H   0  0  0  0  0  0  0  0  0  0  0  0
   -4.8125   -1.1716   -1.3358 H   0  0  0  0  0  0  0  0  0  0  0  0
  1  2  1  0
  2  3  2  0
  3  4  1  0
  4  5  1  1
  5  6  1  0
  4  7  1  0
  7  8  2  0
  8  9  1  0
  9 10  1  0
 10 11  1  0
 11 12  2  0
 11 13  1  0
 13 14  2  0
 14 15  1  0
 15 16  2  0
 16 17  1  0
 16 18  1  0
 18 19  2  0
  9 20  2  0
 20 21  1  0
 21 22  2  0
 22 23  1  0
  4 24  1  0
 24 25  1  0
 25 26  1  0
 26 27  1  0
 27  2  1  0
 22  7  1  0
 26 24  1  0
 19 13  1  0
  1 28  1  0
  1 29  1  0
  5 30  1  0
  5 31  1  0
  8 32  1  0
 10 33  1  0
 14 34  1  0
 15 35  1  0
 18 36  1  0
 20 37  1  0
 21 38  1  0
 24 39  1  6
 25 40  1  0
 25 41  1  0
 26 42  1  6
M  END
$$$$
