@<TRIPOS>MOLECULE
*****
 34 36 0 0 0
SMALL
GASTEIGER

@<TRIPOS>ATOM
      1 C           0.2078    1.2523    1.3521 C.3     1  UNL1        0.0969
      2 O           0.0162    2.6015    1.0651 O.3     1  UNL1       -0.3858
      3 C          -1.0575    0.5520    0.8784 C.3     1  UNL1        0.0511
      4 N          -1.1572   -0.6551    1.6555 N.3     1  UNL1       -0.1685
      5 C          -2.4177   -1.2921    1.6730 C.3     1  UNL1        0.0519
      6 C          -3.2647   -0.9687    0.5188 C.ar    1  UNL1        0.0055
      7 C          -3.4992   -1.5351   -0.6729 C.ar    1  UNL1       -0.0502
      8 C          -4.3490   -1.0107   -1.5982 C.ar    1  UNL1       -0.0544
      9 C          -4.9828    0.2483   -1.1445 C.ar    1  UNL1       -0.0240
     10 S          -4.2503    0.4910    0.5682 S.2     1  UNL1       -0.1003
     11 S           0.0514   -1.7120    1.0506 S.O2    1  UNL1        0.0679
     12 O          -0.4417   -2.4985   -0.1221 O.2     1  UNL1       -0.1523
     13 O           0.4790   -2.6817    2.1295 O.2     1  UNL1       -0.1523
     14 C           1.3685   -0.7119    0.5327 C.ar    1  UNL1        0.1501
     15 C           1.4089    0.6752    0.6898 C.ar    1  UNL1        0.0176
     16 C           2.4830    1.3752    0.2497 C.ar    1  UNL1       -0.0205
     17 C           3.5057    0.6402   -0.3483 C.ar    1  UNL1        0.1443
     18 S           2.9292   -1.0968   -0.2855 S.2     1  UNL1       -0.0484
     19 S           5.0703    0.9384   -1.0800 S.O2    1  UNL1        0.0623
     20 N           5.0717    0.4022   -2.7244 N.3     1  UNL1       -0.2030
     21 O           6.1453    0.1453   -0.3497 O.2     1  UNL1       -0.1527
     22 O           5.4191    2.3806   -1.0153 O.2     1  UNL1       -0.1527
     23 H           0.2825    1.0865    2.4310 H       1  UNL1        0.0658
     24 H           0.6481    2.8750    0.3327 H       1  UNL1        0.2103
     25 H          -1.0642    0.4071   -0.2039 H       1  UNL1        0.0473
     26 H          -1.8951    1.2250    1.1870 H       1  UNL1        0.0473
     27 H          -2.9470   -0.9390    2.5996 H       1  UNL1        0.0498
     28 H          -2.3569   -2.3999    1.8038 H       1  UNL1        0.0498
     29 H          -3.0014   -2.4599   -0.9257 H       1  UNL1        0.0626
     30 H          -4.5981   -1.3908   -2.5732 H       1  UNL1        0.0623
     31 H          -5.7454    0.7813   -1.8915 H       1  UNL1        0.0693
     32 H           2.6759    2.4308    0.2900 H       1  UNL1        0.0647
     33 H           4.7772   -0.5988   -2.7539 H       1  UNL1        0.1443
     34 H           4.4885    1.0206   -3.3185 H       1  UNL1        0.1443
@<TRIPOS>BOND
     1     1     2    1
     2     1     3    1
     3     3     4    1
     4     4     5    1
     5     5     6    1
     6     6     7   ar
     7     7     8   ar
     8     8     9   ar
     9     9    10   ar
    10     4    11    1
    11    11    12    2
    12    11    13    2
    13    11    14    1
    14    14    15   ar
    15    15    16   ar
    16    16    17   ar
    17    17    18   ar
    18    17    19    1
    19    19    20    1
    20    19    21    2
    21    19    22    2
    22    15     1    1
    23    10     6   ar
    24    18    14   ar
    25     1    23    1
    26     2    24    1
    27     3    25    1
    28     3    26    1
    29     5    27    1
    30     5    28    1
    31     7    29    1
    32     8    30    1
    33     9    31    1
    34    16    32    1
    35    20    33    1
    36    20    34    1
