
     RDKit          3D

 34 36  0  0  0  0  0  0  0  0999 V2000
    0.2078    1.2523    1.3521 C   0  0  1  0  0  0  0  0  0  0  0  0
    0.0162    2.6015    1.0651 O   0  0  0  0  0  0  0  0  0  0  0  0
   -1.0575    0.5520    0.8784 C   0  0  0  0  0  0  0  0  0  0  0  0
   -1.1572   -0.6551    1.6555 N   0  0  0  0  0  0  0  0  0  0  0  0
   -2.4177   -1.2921    1.6730 C   0  0  0  0  0  0  0  0  0  0  0  0
   -3.2647   -0.9687    0.5188 C   0  0  0  0  0  0  0  0  0  0  0  0
   -3.4992   -1.5351   -0.6729 C   0  0  0  0  0  0  0  0  0  0  0  0
   -4.3490   -1.0107   -1.5982 C   0  0  0  0  0  0  0  0  0  0  0  0
   -4.9828    0.2483   -1.1445 C   0  0  0  0  0  0  0  0  0  0  0  0
   -4.2503    0.4910    0.5682 S   0  0  0  0  0  0  0  0  0  0  0  0
    0.0514   -1.7120    1.0506 S   0  0  0  0  0  0  0  0  0  0  0  0
   -0.4417   -2.4985   -0.1221 O   0  0  0  0  0  0  0  0  0  0  0  0
    0.4790   -2.6817    2.1295 O   0  0  0  0  0  0  0  0  0  0  0  0
    1.3685   -0.7119    0.5327 C   0  0  0  0  0  0  0  0  0  0  0  0
    1.4089    0.6752    0.6898 C   0  0  0  0  0  0  0  0  0  0  0  0
    2.4830    1.3752    0.2497 C   0  0  0  0  0  0  0  0  0  0  0  0
    3.5057    0.6402   -0.3483 C   0  0  0  0  0  0  0  0  0  0  0  0
    2.9292   -1.0968   -0.2855 S   0  0  0  0  0  0  0  0  0  0  0  0
    5.0703    0.9384   -1.0800 S   0  0  0  0  0  0  0  0  0  0  0  0
    5.0717    0.4022   -2.7244 N   0  0  0  0  0  0  0  0  0  0  0  0
    6.1453    0.1453   -0.3497 O   0  0  0  0  0  0  0  0  0  0  0  0
    5.4191    2.3806   -1.0153 O   0  0  0  0  0  0  0  0  0  0  0  0
    0.2825    1.0865    2.4310 H   0  0  0  0  0  0  0  0  0  0  0  0
    0.6481    2.8750    0.3327 H   0  0  0  0  0  0  0  0  0  0  0  0
   -1.0642    0.4071   -0.2039 H   0  0  0  0  0  0  0  0  0  0  0  0
   -1.8951    1.2250    1.1870 H   0  0  0  0  0  0  0  0  0  0  0  0
   -2.9470   -0.9390    2.5996 H   0  0  0  0  0  0  0  0  0  0  0  0
   -2.3569   -2.3999    1.8038 H   0  0  0  0  0  0  0  0  0  0  0  0
   -3.0014   -2.4599   -0.9257 H   0  0  0  0  0  0  0  0  0  0  0  0
   -4.5981   -1.3908   -2.5732 H   0  0  0  0  0  0  0  0  0  0  0  0
   -5.7454    0.7813   -1.8915 H   0  0  0  0  0  0  0  0  0  0  0  0
    2.6759    2.4308    0.2900 H   0  0  0  0  0  0  0  0  0  0  0  0
    4.7772   -0.5988   -2.7539 H   0  0  0  0  0  0  0  0  0  0  0  0
    4.4885    1.0206   -3.3185 H   0  0  0  0  0  0  0  0  0  0  0  0
  1  2  1  0
  1  3  1  0
  3  4  1  0
  4  5  1  0
  5  6  1  0
  6  7  2  0
  7  8  1  0
  8  9  2  0
  9 10  1  0
  4 11  1  0
 11 12  2  0
 11 13  2  0
 11 14  1  0
 14 15  2  0
 15 16  1  0
 16 17  2  0
 17 18  1  0
 17 19  1  0
 19 20  1  0
 19 21  2  0
 19 22  2  0
 15  1  1  0
 10  6  1  0
 18 14  1  0
  1 23  1  1
  2 24  1  0
  3 25  1  0
  3 26  1  0
  5 27  1  0
  5 28  1  0
  7 29  1  0
  8 30  1  0
  9 31  1  0
 16 32  1  0
 20 33  1  0
 20 34  1  0
M  END
$$$$
