
     RDKit          3D

 45 47  0  0  0  0  0  0  0  0999 V2000
   -0.1775    0.7890   -0.6915 C   0  0  1  0  0  0  0  0  0  0  0  0
   -0.9744    1.9379   -0.8683 O   0  0  0  0  0  0  0  0  0  0  0  0
    1.2518    1.2698   -0.3698 C   0  0  0  0  0  0  0  0  0  0  0  0
    1.6529    0.3546    0.7427 C   0  0  1  0  0  0  0  0  0  0  0  0
    0.7259   -0.6369    0.8151 O   0  0  0  0  0  0  0  0  0  0  0  0
   -0.5222   -0.0185    0.5015 C   0  0  2  0  0  0  0  0  0  0  0  0
   -1.5536   -1.0788    0.3805 C   0  0  0  0  0  0  0  0  0  0  0  0
   -2.8403   -0.6617    0.0973 N   0  0  0  0  0  0  0  0  0  0  0  0
   -3.2576   -0.1675   -1.1419 C   0  0  0  0  0  0  0  0  0  0  0  0
   -4.0775    1.0996   -0.8618 C   0  0  0  0  0  0  0  0  0  0  0  0
   -5.3902    0.6339   -0.2704 C   0  0  0  0  0  0  0  0  0  0  0  0
   -5.2542   -0.6234    0.5266 C   0  0  0  0  0  0  0  0  0  0  0  0
   -3.8721   -0.8934    1.0601 C   0  0  0  0  0  0  0  0  0  0  0  0
    2.9657   -0.1929    0.3757 N   0  0  0  0  0  0  0  0  0  0  0  0
    4.0767    0.5580    0.4395 C   0  0  0  0  0  0  0  0  0  0  0  0
    5.3141    0.0577    0.0954 C   0  0  0  0  0  0  0  0  0  0  0  0
    6.5913    0.8144    0.1367 C   0  0  0  0  0  0  0  0  0  0  0  0
    5.3036   -1.2568   -0.3107 C   0  0  0  0  0  0  0  0  0  0  0  0
    6.4250   -1.7719   -0.6411 O   0  0  0  0  0  0  0  0  0  0  0  0
    4.2271   -2.0620   -0.3960 N   0  0  0  0  0  0  0  0  0  0  0  0
    3.0733   -1.4801   -0.0399 C   0  0  0  0  0  0  0  0  0  0  0  0
    2.0028   -2.1376   -0.0812 O   0  0  0  0  0  0  0  0  0  0  0  0
   -0.0701    0.2015   -1.6262 H   0  0  0  0  0  0  0  0  0  0  0  0
   -1.0089    2.0546   -1.8632 H   0  0  0  0  0  0  0  0  0  0  0  0
    1.9078    1.2423   -1.2581 H   0  0  0  0  0  0  0  0  0  0  0  0
    1.1521    2.2950    0.0707 H   0  0  0  0  0  0  0  0  0  0  0  0
    1.7181    0.8816    1.7248 H   0  0  0  0  0  0  0  0  0  0  0  0
   -0.7516    0.6877    1.3362 H   0  0  0  0  0  0  0  0  0  0  0  0
   -1.4871   -1.8174    1.2307 H   0  0  0  0  0  0  0  0  0  0  0  0
   -1.2071   -1.7328   -0.5025 H   0  0  0  0  0  0  0  0  0  0  0  0
   -3.9961   -0.8945   -1.6307 H   0  0  0  0  0  0  0  0  0  0  0  0
   -2.4373    0.0125   -1.8298 H   0  0  0  0  0  0  0  0  0  0  0  0
   -4.1709    1.7114   -1.7617 H   0  0  0  0  0  0  0  0  0  0  0  0
   -3.5357    1.6538   -0.0667 H   0  0  0  0  0  0  0  0  0  0  0  0
   -5.8604    1.4756    0.2790 H   0  0  0  0  0  0  0  0  0  0  0  0
   -6.0574    0.4104   -1.1277 H   0  0  0  0  0  0  0  0  0  0  0  0
   -5.5777   -1.5333   -0.0456 H   0  0  0  0  0  0  0  0  0  0  0  0
   -5.9343   -0.5524    1.3975 H   0  0  0  0  0  0  0  0  0  0  0  0
   -3.6455   -0.3154    1.9703 H   0  0  0  0  0  0  0  0  0  0  0  0
   -3.8284   -1.9716    1.3203 H   0  0  0  0  0  0  0  0  0  0  0  0
    4.0329    1.5918    0.7647 H   0  0  0  0  0  0  0  0  0  0  0  0
    7.2527    0.4521    0.9441 H   0  0  0  0  0  0  0  0  0  0  0  0
    7.1074    0.7772   -0.8628 H   0  0  0  0  0  0  0  0  0  0  0  0
    6.3927    1.8869    0.3433 H   0  0  0  0  0  0  0  0  0  0  0  0
    4.3143   -3.0503   -0.7146 H   0  0  0  0  0  0  0  0  0  0  0  0
  1  2  1  0
  1  3  1  0
  3  4  1  0
  4  5  1  0
  5  6  1  0
  6  7  1  0
  7  8  1  0
  8  9  1  0
  9 10  1  0
 10 11  1  0
 11 12  1  0
 12 13  1  0
  4 14  1  0
 14 15  1  0
 15 16  2  0
 16 17  1  0
 16 18  1  0
 18 19  2  0
 18 20  1  0
 20 21  1  0
 21 22  2  0
  6  1  1  0
 13  8  1  0
 21 14  1  0
  1 23  1  6
  2 24  1  0
  3 25  1  0
  3 26  1  0
  4 27  1  1
  6 28  1  1
  7 29  1  0
  7 30  1  0
  9 31  1  0
  9 32  1  0
 10 33  1  0
 10 34  1  0
 11 35  1  0
 11 36  1  0
 12 37  1  0
 12 38  1  0
 13 39  1  0
 13 40  1  0
 15 41  1  0
 17 42  1  0
 17 43  1  0
 17 44  1  0
 20 45  1  0
M  END
$$$$
