@<TRIPOS>MOLECULE
*****
 67 71 0 0 0
SMALL
GASTEIGER

@<TRIPOS>ATOM
      1 C          -7.4342   -1.4215   -0.1930 C.3     1  UNL1        0.0032
      2 N          -7.8262   -0.0596   -0.5047 N.am    1  UNL1       -0.3024
      3 C          -9.2656    0.2432   -0.5083 C.3     1  UNL1        0.0032
      4 C          -6.8896    0.9523   -0.7961 C.2     1  UNL1        0.2627
      5 O          -7.2581    2.1120   -1.0623 O.2     1  UNL1       -0.2684
      6 C          -5.4730    0.6429   -0.7872 C.ar    1  UNL1        0.1072
      7 C          -4.7691    0.0958   -1.8404 C.ar    1  UNL1       -0.0209
      8 C          -3.4531   -0.0529   -1.4713 C.ar    1  UNL1        0.0378
      9 C          -2.3176   -0.5423   -2.1201 C.ar    1  UNL1        0.0419
     10 N          -1.1895   -0.5237   -1.4139 N.ar    1  UNL1       -0.2219
     11 C          -1.0374   -0.0919   -0.1704 C.ar    1  UNL1        0.2224
     12 N           0.1623   -0.0731    0.5740 N.pl3   1  UNL1       -0.2685
     13 C           1.4348   -0.4973    0.1648 C.ar    1  UNL1        0.1250
     14 C           1.7215   -1.0165   -1.0666 C.ar    1  UNL1       -0.0208
     15 C           2.9988   -1.4305   -1.4500 C.ar    1  UNL1       -0.0449
     16 C           4.0173   -1.3076   -0.5389 C.ar    1  UNL1        0.0551
     17 C           5.3882   -1.7135   -0.8480 C.2     1  UNL1        0.2482
     18 O           5.5292   -2.9535   -1.1275 O.2     1  UNL1       -0.2699
     19 N           6.4908   -0.8397   -0.8487 N.am    1  UNL1       -0.2945
     20 C           6.3231    0.5514   -0.5328 C.3     1  UNL1        0.0304
     21 C           7.2936    0.8881    0.5834 C.3     1  UNL1        0.0237
     22 C           8.4484    1.7158    0.0138 C.3     1  UNL1       -0.0346
     23 C           9.3010    0.6309   -0.6440 C.3     1  UNL1       -0.0346
     24 C           8.7596   -0.6744   -0.1675 C.3     1  UNL1        0.0237
     25 C           7.8058   -1.3238   -1.1657 C.3     1  UNL1        0.0304
     26 N           8.0259   -0.2877    1.0396 N.3     1  UNL1       -0.3075
     27 C           3.7370   -0.7848    0.7060 C.ar    1  UNL1        0.0418
     28 N           2.4961   -0.4023    1.0258 N.ar    1  UNL1       -0.2394
     29 N          -2.1760    0.3811    0.4331 N.ar    1  UNL1       -0.1962
     30 C          -3.3608    0.4103   -0.1781 C.ar    1  UNL1        0.1468
     31 N          -4.6045    0.8252    0.2071 N.ar    1  UNL1       -0.3157
     32 C          -4.8309    1.3694    1.5232 C.3     1  UNL1        0.0392
     33 C          -6.2154    1.2169    2.0468 C.3     1  UNL1       -0.0418
     34 C          -3.9109    0.6205    2.4870 C.3     1  UNL1       -0.0418
     35 C          -4.4029    2.8407    1.5829 C.3     1  UNL1       -0.0418
     36 H          -6.3380   -1.5433   -0.3184 H       1  UNL1        0.0428
     37 H          -7.9954   -2.1034   -0.8673 H       1  UNL1        0.0428
     38 H          -7.7494   -1.6720    0.8523 H       1  UNL1        0.0428
     39 H          -9.6734   -0.2618   -1.4002 H       1  UNL1        0.0428
     40 H          -9.6946   -0.1578    0.4287 H       1  UNL1        0.0428
     41 H          -9.4247    1.3326   -0.4955 H       1  UNL1        0.0428
     42 H          -5.1376   -0.1908   -2.8217 H       1  UNL1        0.0647
     43 H          -2.4118   -0.8995   -3.1297 H       1  UNL1        0.0838
     44 H           0.1261    0.3085    1.5824 H       1  UNL1        0.1564
     45 H           0.9303   -1.1208   -1.7987 H       1  UNL1        0.0652
     46 H           3.1790   -1.8343   -2.4322 H       1  UNL1        0.0627
     47 H           6.6263    1.1200   -1.4608 H       1  UNL1        0.0480
     48 H           5.2930    0.8438   -0.2895 H       1  UNL1        0.0480
     49 H           6.7625    1.4050    1.3859 H       1  UNL1        0.0476
     50 H           8.0813    2.4562   -0.7027 H       1  UNL1        0.0281
     51 H           8.9640    2.1616    0.8863 H       1  UNL1        0.0281
     52 H          10.3395    0.7674   -0.2390 H       1  UNL1        0.0281
     53 H           9.3143    0.7449   -1.7472 H       1  UNL1        0.0281
     54 H           9.5414   -1.4336    0.0530 H       1  UNL1        0.0476
     55 H           7.8765   -2.4339   -1.1167 H       1  UNL1        0.0480
     56 H           8.0523   -0.9901   -2.2005 H       1  UNL1        0.0480
     57 H           8.7493    0.0817    1.7099 H       1  UNL1        0.1226
     58 H           4.5547   -0.6837    1.4448 H       1  UNL1        0.0838
     59 H          -6.9666    1.8894    1.6389 H       1  UNL1        0.0252
     60 H          -6.1612    1.4701    3.1497 H       1  UNL1        0.0252
     61 H          -6.4834    0.1411    2.0408 H       1  UNL1        0.0252
     62 H          -2.9155    1.1163    2.5706 H       1  UNL1        0.0252
     63 H          -4.3948    0.5548    3.4894 H       1  UNL1        0.0252
     64 H          -3.7111   -0.3999    2.0724 H       1  UNL1        0.0252
     65 H          -3.3701    2.8805    1.1609 H       1  UNL1        0.0252
     66 H          -4.4088    3.1612    2.6407 H       1  UNL1        0.0252
     67 H          -5.0727    3.4648    0.9614 H       1  UNL1        0.0252
@<TRIPOS>BOND
     1     1     2    1
     2     2     3    1
     3     2     4   am
     4     4     5    2
     5     4     6    1
     6     6     7   ar
     7     7     8   ar
     8     8     9   ar
     9     9    10   ar
    10    10    11   ar
    11    11    12    1
    12    12    13    1
    13    13    14   ar
    14    14    15   ar
    15    15    16   ar
    16    16    17    1
    17    17    18    2
    18    17    19   am
    19    19    20    1
    20    20    21    1
    21    21    22    1
    22    22    23    1
    23    23    24    1
    24    24    25    1
    25    24    26    1
    26    16    27   ar
    27    27    28   ar
    28    11    29   ar
    29    29    30   ar
    30    30    31   ar
    31    31    32    1
    32    32    33    1
    33    32    34    1
    34    32    35    1
    35    31     6   ar
    36    30     8   ar
    37    28    13   ar
    38    25    19    1
    39    26    21    1
    40     1    36    1
    41     1    37    1
    42     1    38    1
    43     3    39    1
    44     3    40    1
    45     3    41    1
    46     7    42    1
    47     9    43    1
    48    12    44    1
    49    14    45    1
    50    15    46    1
    51    20    47    1
    52    20    48    1
    53    21    49    1
    54    22    50    1
    55    22    51    1
    56    23    52    1
    57    23    53    1
    58    24    54    1
    59    25    55    1
    60    25    56    1
    61    26    57    1
    62    27    58    1
    63    33    59    1
    64    33    60    1
    65    33    61    1
    66    34    62    1
    67    34    63    1
    68    34    64    1
    69    35    65    1
    70    35    66    1
    71    35    67    1
