
     RDKit          3D

 67 71  0  0  0  0  0  0  0  0999 V2000
   -7.4342   -1.4215   -0.1930 C   0  0  0  0  0  0  0  0  0  0  0  0
   -7.8262   -0.0596   -0.5047 N   0  0  0  0  0  0  0  0  0  0  0  0
   -9.2656    0.2432   -0.5083 C   0  0  0  0  0  0  0  0  0  0  0  0
   -6.8896    0.9523   -0.7961 C   0  0  0  0  0  0  0  0  0  0  0  0
   -7.2581    2.1120   -1.0623 O   0  0  0  0  0  0  0  0  0  0  0  0
   -5.4730    0.6429   -0.7872 C   0  0  0  0  0  0  0  0  0  0  0  0
   -4.7691    0.0958   -1.8404 C   0  0  0  0  0  0  0  0  0  0  0  0
   -3.4531   -0.0529   -1.4713 C   0  0  0  0  0  0  0  0  0  0  0  0
   -2.3176   -0.5423   -2.1201 C   0  0  0  0  0  0  0  0  0  0  0  0
   -1.1895   -0.5237   -1.4139 N   0  0  0  0  0  0  0  0  0  0  0  0
   -1.0374   -0.0919   -0.1704 C   0  0  0  0  0  0  0  0  0  0  0  0
    0.1623   -0.0731    0.5740 N   0  0  0  0  0  0  0  0  0  0  0  0
    1.4348   -0.4973    0.1648 C   0  0  0  0  0  0  0  0  0  0  0  0
    1.7215   -1.0165   -1.0666 C   0  0  0  0  0  0  0  0  0  0  0  0
    2.9988   -1.4305   -1.4500 C   0  0  0  0  0  0  0  0  0  0  0  0
    4.0173   -1.3076   -0.5389 C   0  0  0  0  0  0  0  0  0  0  0  0
    5.3882   -1.7135   -0.8480 C   0  0  0  0  0  0  0  0  0  0  0  0
    5.5292   -2.9535   -1.1275 O   0  0  0  0  0  0  0  0  0  0  0  0
    6.4908   -0.8397   -0.8487 N   0  0  0  0  0  0  0  0  0  0  0  0
    6.3231    0.5514   -0.5328 C   0  0  0  0  0  0  0  0  0  0  0  0
    7.2936    0.8881    0.5834 C   0  0  0  0  0  0  0  0  0  0  0  0
    8.4484    1.7158    0.0138 C   0  0  0  0  0  0  0  0  0  0  0  0
    9.3010    0.6309   -0.6440 C   0  0  0  0  0  0  0  0  0  0  0  0
    8.7596   -0.6744   -0.1675 C   0  0  0  0  0  0  0  0  0  0  0  0
    7.8058   -1.3238   -1.1657 C   0  0  0  0  0  0  0  0  0  0  0  0
    8.0259   -0.2877    1.0396 N   0  0  0  0  0  0  0  0  0  0  0  0
    3.7370   -0.7848    0.7060 C   0  0  0  0  0  0  0  0  0  0  0  0
    2.4961   -0.4023    1.0258 N   0  0  0  0  0  0  0  0  0  0  0  0
   -2.1760    0.3811    0.4331 N   0  0  0  0  0  0  0  0  0  0  0  0
   -3.3608    0.4103   -0.1781 C   0  0  0  0  0  0  0  0  0  0  0  0
   -4.6045    0.8252    0.2071 N   0  0  0  0  0  0  0  0  0  0  0  0
   -4.8309    1.3694    1.5232 C   0  0  0  0  0  0  0  0  0  0  0  0
   -6.2154    1.2169    2.0468 C   0  0  0  0  0  0  0  0  0  0  0  0
   -3.9109    0.6205    2.4870 C   0  0  0  0  0  0  0  0  0  0  0  0
   -4.4029    2.8407    1.5829 C   0  0  0  0  0  0  0  0  0  0  0  0
   -6.3380   -1.5433   -0.3184 H   0  0  0  0  0  0  0  0  0  0  0  0
   -7.9954   -2.1034   -0.8673 H   0  0  0  0  0  0  0  0  0  0  0  0
   -7.7494   -1.6720    0.8523 H   0  0  0  0  0  0  0  0  0  0  0  0
   -9.6734   -0.2618   -1.4002 H   0  0  0  0  0  0  0  0  0  0  0  0
   -9.6946   -0.1578    0.4287 H   0  0  0  0  0  0  0  0  0  0  0  0
   -9.4247    1.3326   -0.4955 H   0  0  0  0  0  0  0  0  0  0  0  0
   -5.1376   -0.1908   -2.8217 H   0  0  0  0  0  0  0  0  0  0  0  0
   -2.4118   -0.8995   -3.1297 H   0  0  0  0  0  0  0  0  0  0  0  0
    0.1261    0.3085    1.5824 H   0  0  0  0  0  0  0  0  0  0  0  0
    0.9303   -1.1208   -1.7987 H   0  0  0  0  0  0  0  0  0  0  0  0
    3.1790   -1.8343   -2.4322 H   0  0  0  0  0  0  0  0  0  0  0  0
    6.6263    1.1200   -1.4608 H   0  0  0  0  0  0  0  0  0  0  0  0
    5.2930    0.8438   -0.2895 H   0  0  0  0  0  0  0  0  0  0  0  0
    6.7625    1.4050    1.3859 H   0  0  0  0  0  0  0  0  0  0  0  0
    8.0813    2.4562   -0.7027 H   0  0  0  0  0  0  0  0  0  0  0  0
    8.9640    2.1616    0.8863 H   0  0  0  0  0  0  0  0  0  0  0  0
   10.3395    0.7674   -0.2390 H   0  0  0  0  0  0  0  0  0  0  0  0
    9.3143    0.7449   -1.7472 H   0  0  0  0  0  0  0  0  0  0  0  0
    9.5414   -1.4336    0.0530 H   0  0  0  0  0  0  0  0  0  0  0  0
    7.8765   -2.4339   -1.1167 H   0  0  0  0  0  0  0  0  0  0  0  0
    8.0523   -0.9901   -2.2005 H   0  0  0  0  0  0  0  0  0  0  0  0
    8.7493    0.0817    1.7099 H   0  0  0  0  0  0  0  0  0  0  0  0
    4.5547   -0.6837    1.4448 H   0  0  0  0  0  0  0  0  0  0  0  0
   -6.9666    1.8894    1.6389 H   0  0  0  0  0  0  0  0  0  0  0  0
   -6.1612    1.4701    3.1497 H   0  0  0  0  0  0  0  0  0  0  0  0
   -6.4834    0.1411    2.0408 H   0  0  0  0  0  0  0  0  0  0  0  0
   -2.9155    1.1163    2.5706 H   0  0  0  0  0  0  0  0  0  0  0  0
   -4.3948    0.5548    3.4894 H   0  0  0  0  0  0  0  0  0  0  0  0
   -3.7111   -0.3999    2.0724 H   0  0  0  0  0  0  0  0  0  0  0  0
   -3.3701    2.8805    1.1609 H   0  0  0  0  0  0  0  0  0  0  0  0
   -4.4088    3.1612    2.6407 H   0  0  0  0  0  0  0  0  0  0  0  0
   -5.0727    3.4648    0.9614 H   0  0  0  0  0  0  0  0  0  0  0  0
  1  2  1  0
  2  3  1  0
  2  4  1  0
  4  5  2  0
  4  6  1  0
  6  7  2  0
  7  8  1  0
  8  9  2  0
  9 10  1  0
 10 11  2  0
 11 12  1  0
 12 13  1  0
 13 14  2  0
 14 15  1  0
 15 16  2  0
 16 17  1  0
 17 18  2  0
 17 19  1  0
 19 20  1  0
 20 21  1  0
 21 22  1  0
 22 23  1  0
 23 24  1  0
 24 25  1  0
 24 26  1  0
 16 27  1  0
 27 28  2  0
 11 29  1  0
 29 30  2  0
 30 31  1  0
 31 32  1  0
 32 33  1  0
 32 34  1  0
 32 35  1  0
 31  6  1  0
 30  8  1  0
 28 13  1  0
 25 19  1  0
 26 21  1  0
  1 36  1  0
  1 37  1  0
  1 38  1  0
  3 39  1  0
  3 40  1  0
  3 41  1  0
  7 42  1  0
  9 43  1  0
 12 44  1  0
 14 45  1  0
 15 46  1  0
 20 47  1  0
 20 48  1  0
 21 49  1  0
 22 50  1  0
 22 51  1  0
 23 52  1  0
 23 53  1  0
 24 54  1  0
 25 55  1  0
 25 56  1  0
 26 57  1  0
 27 58  1  0
 33 59  1  0
 33 60  1  0
 33 61  1  0
 34 62  1  0
 34 63  1  0
 34 64  1  0
 35 65  1  0
 35 66  1  0
 35 67  1  0
M  END
$$$$
