
     RDKit          3D

 30 31  0  0  0  0  0  0  0  0999 V2000
   -1.8096    3.8866    0.0231 O   0  0  0  0  0  0  0  0  0  0  0  0
   -1.8498    2.5235   -0.1341 C   0  0  0  0  0  0  0  0  0  0  0  0
   -1.6387    1.9247   -1.2211 O   0  0  0  0  0  0  0  0  0  0  0  0
   -2.1355    1.4776    0.8816 C   0  0  0  0  0  0  0  0  0  0  0  0
   -2.0742    0.1317    0.2730 C   0  0  0  0  0  0  0  0  0  0  0  0
   -3.2346   -0.5898   -0.0298 C   0  0  0  0  0  0  0  0  0  0  0  0
   -3.1587   -1.8560   -0.6034 C   0  0  0  0  0  0  0  0  0  0  0  0
   -1.9148   -2.4208   -0.8837 C   0  0  0  0  0  0  0  0  0  0  0  0
   -0.7268   -1.7400   -0.6003 C   0  0  0  0  0  0  0  0  0  0  0  0
   -0.8909   -0.4964   -0.0349 C   0  0  0  0  0  0  0  0  0  0  0  0
    0.2783    0.2486    0.2765 N   0  0  0  0  0  0  0  0  0  0  0  0
    1.6590   -0.0392    0.1094 C   0  0  0  0  0  0  0  0  0  0  0  0
    2.3738   -0.7178    1.1022 C   0  0  0  0  0  0  0  0  0  0  0  0
    1.5021   -1.2059    2.5629 Cl  0  0  0  0  0  0  0  0  0  0  0  0
    3.7175   -1.0017    0.9549 C   0  0  0  0  0  0  0  0  0  0  0  0
    4.3458   -0.5887   -0.2222 C   0  0  0  0  0  0  0  0  0  0  0  0
    3.6664    0.0861   -1.2261 C   0  0  0  0  0  0  0  0  0  0  0  0
    2.3249    0.3504   -1.0402 C   0  0  0  0  0  0  0  0  0  0  0  0
    1.4820    1.2068   -2.3299 Cl  0  0  0  0  0  0  0  0  0  0  0  0
   -1.5592    4.4855   -0.7734 H   0  0  0  0  0  0  0  0  0  0  0  0
   -3.1720    1.6741    1.2433 H   0  0  0  0  0  0  0  0  0  0  0  0
   -1.4833    1.5853    1.7623 H   0  0  0  0  0  0  0  0  0  0  0  0
   -4.2101   -0.1696    0.1805 H   0  0  0  0  0  0  0  0  0  0  0  0
   -4.0512   -2.4331   -0.8465 H   0  0  0  0  0  0  0  0  0  0  0  0
   -1.8206   -3.4115   -1.3344 H   0  0  0  0  0  0  0  0  0  0  0  0
    0.2526   -2.1476   -0.8038 H   0  0  0  0  0  0  0  0  0  0  0  0
    0.3142    1.1895    0.7054 H   0  0  0  0  0  0  0  0  0  0  0  0
    4.2176   -1.5273    1.7516 H   0  0  0  0  0  0  0  0  0  0  0  0
    5.4044   -0.8229   -0.3174 H   0  0  0  0  0  0  0  0  0  0  0  0
    4.1914    0.3979   -2.1398 H   0  0  0  0  0  0  0  0  0  0  0  0
  1  2  1  0
  2  3  2  0
  2  4  1  0
  4  5  1  0
  5  6  2  0
  6  7  1  0
  7  8  2  0
  8  9  1  0
  9 10  2  0
 10 11  1  0
 11 12  1  0
 12 13  2  0
 13 14  1  0
 13 15  1  0
 15 16  2  0
 16 17  1  0
 17 18  2  0
 18 19  1  0
 10  5  1  0
 18 12  1  0
  1 20  1  0
  4 21  1  0
  4 22  1  0
  6 23  1  0
  7 24  1  0
  8 25  1  0
  9 26  1  0
 11 27  1  0
 15 28  1  0
 16 29  1  0
 17 30  1  0
M  END
$$$$
