@<TRIPOS>MOLECULE
*****
 71 76 0 0 0
SMALL
GASTEIGER

@<TRIPOS>ATOM
      1 C           7.3601   -1.2336   -1.7253 C.3     1  UNL1       -0.0391
      2 C           7.5928   -0.0673   -0.8468 C.ar    1  UNL1       -0.0405
      3 C           8.9277    0.3185   -0.6638 C.ar    1  UNL1       -0.0442
      4 C           9.2813    1.3531    0.1650 C.ar    1  UNL1        0.0591
      5 C          10.6512    1.7772    0.3762 C.2     1  UNL1        0.3368
      6 O          10.8785    2.7309    1.1505 O.2     1  UNL1       -0.2451
      7 O          11.7179    1.1635   -0.2493 O.3     1  UNL1       -0.4771
      8 C           8.2428    1.9912    0.8079 C.ar    1  UNL1       -0.0471
      9 C           6.9356    1.6295    0.6411 C.ar    1  UNL1       -0.0515
     10 C           6.5573    0.5655   -0.2116 C.ar    1  UNL1        0.0033
     11 C           5.1636    0.2209   -0.3159 C.ar    1  UNL1        0.0713
     12 C           4.5108   -0.4135   -1.3284 C.ar    1  UNL1       -0.0339
     13 C           3.1207   -0.6253   -1.2993 C.ar    1  UNL1       -0.0363
     14 C           2.3590   -0.1955   -0.2399 C.ar    1  UNL1        0.0636
     15 N           0.9527   -0.4161   -0.2238 N.am    1  UNL1       -0.1905
     16 C           0.2288   -1.5157    0.3003 C.2     1  UNL1        0.3219
     17 O           0.7422   -2.5135    0.8615 O.2     1  UNL1       -0.2512
     18 N          -1.1899   -1.3415    0.1050 N.am    1  UNL1       -0.2229
     19 C          -2.1603   -2.3686    0.2362 C.ar    1  UNL1        0.1478
     20 C          -2.5303   -3.1634   -0.8196 C.ar    1  UNL1        0.0679
     21 N          -3.4620   -4.1266   -0.6160 N.ar    1  UNL1       -0.2583
     22 C          -4.0423   -4.3400    0.5777 C.ar    1  UNL1        0.0458
     23 C          -3.6678   -3.5400    1.6330 C.ar    1  UNL1        0.0478
     24 N          -2.7468   -2.5913    1.4217 N.ar    1  UNL1       -0.2368
     25 C          -1.3734    0.0389   -0.2311 C.3     1  UNL1        0.1240
     26 C          -1.6614    0.9193    0.9505 C.3     1  UNL1       -0.0095
     27 C          -3.0743    0.9110    1.4080 C.3     1  UNL1        0.0017
     28 N          -4.0742    0.9898    0.4038 N.3     1  UNL1       -0.2965
     29 C          -5.2872    0.3577    0.9543 C.3     1  UNL1        0.0415
     30 C          -6.4044    0.4087   -0.0207 C.ar    1  UNL1        0.0581
     31 N          -6.7475   -0.6875   -0.7099 N.ar    1  UNL1       -0.2583
     32 C          -7.7389   -0.7286   -1.6078 C.ar    1  UNL1        0.0279
     33 C          -8.4721    0.4390   -1.8524 C.ar    1  UNL1       -0.0433
     34 C          -8.1330    1.5711   -1.1538 C.ar    1  UNL1       -0.0557
     35 C          -7.1050    1.5724   -0.2375 C.ar    1  UNL1       -0.0279
     36 C          -6.7295    2.7820    0.5221 C.3     1  UNL1       -0.0380
     37 C          -3.7960    0.2587   -0.8080 C.3     1  UNL1        0.0017
     38 C          -2.3866    0.3228   -1.2818 C.3     1  UNL1       -0.0095
     39 C          -0.0288    0.4682   -0.7593 C.2     1  UNL1        0.2516
     40 O           0.1683    1.4338   -1.5306 O.2     1  UNL1       -0.2724
     41 C           3.0475    0.4439    0.7678 C.ar    1  UNL1        0.0501
     42 N           4.3712    0.6333    0.7181 N.ar    1  UNL1       -0.2531
     43 H           7.2218   -0.9712   -2.7729 H       1  UNL1        0.0278
     44 H           8.3562   -1.8133   -1.7416 H       1  UNL1        0.0278
     45 H           6.6790   -1.9679   -1.2844 H       1  UNL1        0.0278
     46 H           9.7369   -0.1919   -1.1754 H       1  UNL1        0.0628
     47 H          12.6870    1.2658    0.0260 H       1  UNL1        0.2954
     48 H           8.4981    2.8224    1.4762 H       1  UNL1        0.0626
     49 H           6.1198    2.1441    1.1546 H       1  UNL1        0.0624
     50 H           5.0411   -0.7457   -2.2078 H       1  UNL1        0.0639
     51 H           2.6794   -1.1401   -2.1449 H       1  UNL1        0.0637
     52 H          -2.1002   -3.0319   -1.7783 H       1  UNL1        0.0865
     53 H          -4.7886   -5.1066    0.7550 H       1  UNL1        0.0845
     54 H          -4.0761   -3.6337    2.6275 H       1  UNL1        0.0846
     55 H          -1.0280    0.5232    1.7972 H       1  UNL1        0.0303
     56 H          -1.2848    1.9388    0.7514 H       1  UNL1        0.0303
     57 H          -3.2052    1.8251    2.0625 H       1  UNL1        0.0427
     58 H          -3.2925    0.0646    2.1072 H       1  UNL1        0.0427
     59 H          -4.9941   -0.7080    1.1131 H       1  UNL1        0.0491
     60 H          -5.5425    0.7595    1.9444 H       1  UNL1        0.0491
     61 H          -8.0139   -1.6158   -2.1634 H       1  UNL1        0.0829
     62 H          -9.2837    0.4637   -2.5675 H       1  UNL1        0.0633
     63 H          -8.7168    2.4826   -1.3555 H       1  UNL1        0.0621
     64 H          -5.9317    3.3753    0.0306 H       1  UNL1        0.0278
     65 H          -7.6375    3.4329    0.6094 H       1  UNL1        0.0278
     66 H          -6.4557    2.5466    1.5860 H       1  UNL1        0.0278
     67 H          -4.4318    0.7372   -1.6124 H       1  UNL1        0.0427
     68 H          -4.1788   -0.7872   -0.7546 H       1  UNL1        0.0427
     69 H          -2.3104   -0.2869   -2.1954 H       1  UNL1        0.0303
     70 H          -2.2116    1.3918   -1.6075 H       1  UNL1        0.0303
     71 H           2.4661    0.7936    1.6168 H       1  UNL1        0.0849
@<TRIPOS>BOND
     1     1     2    1
     2     2     3   ar
     3     3     4   ar
     4     4     5    1
     5     5     6    2
     6     5     7    1
     7     4     8   ar
     8     8     9   ar
     9     9    10   ar
    10    10    11    1
    11    11    12   ar
    12    12    13   ar
    13    13    14   ar
    14    14    15    1
    15    15    16   am
    16    16    17    2
    17    16    18   am
    18    18    19    1
    19    19    20   ar
    20    20    21   ar
    21    21    22   ar
    22    22    23   ar
    23    23    24   ar
    24    18    25    1
    25    25    26    1
    26    26    27    1
    27    27    28    1
    28    28    29    1
    29    29    30    1
    30    30    31   ar
    31    31    32   ar
    32    32    33   ar
    33    33    34   ar
    34    34    35   ar
    35    35    36    1
    36    28    37    1
    37    37    38    1
    38    25    39    1
    39    39    40    2
    40    14    41   ar
    41    41    42   ar
    42    10     2   ar
    43    42    11   ar
    44    39    15   am
    45    24    19   ar
    46    38    25    1
    47    35    30   ar
    48     1    43    1
    49     1    44    1
    50     1    45    1
    51     3    46    1
    52     7    47    1
    53     8    48    1
    54     9    49    1
    55    12    50    1
    56    13    51    1
    57    20    52    1
    58    22    53    1
    59    23    54    1
    60    26    55    1
    61    26    56    1
    62    27    57    1
    63    27    58    1
    64    29    59    1
    65    29    60    1
    66    32    61    1
    67    33    62    1
    68    34    63    1
    69    36    64    1
    70    36    65    1
    71    36    66    1
    72    37    67    1
    73    37    68    1
    74    38    69    1
    75    38    70    1
    76    41    71    1
