
     RDKit          3D

 56 60  0  0  0  0  0  0  0  0999 V2000
   -2.0214   -1.6038    0.6517 O   0  0  0  0  0  0  0  0  0  0  0  0
   -2.2927   -0.5929    1.3359 C   0  0  0  0  0  0  0  0  0  0  0  0
   -3.6364   -0.0093    1.2022 C   0  0  0  0  0  0  0  0  0  0  0  0
   -4.5502   -0.4807    0.4204 C   0  0  0  0  0  0  0  0  0  0  0  0
   -5.8935   -0.0902    0.1420 C   0  0  0  0  0  0  0  0  0  0  0  0
   -6.7634    0.7000    0.8105 C   0  0  0  0  0  0  0  0  0  0  0  0
   -6.6959    1.2845    2.1387 C   0  0  0  0  0  0  0  0  0  0  0  0
   -5.7809    1.1837    2.9637 O   0  0  0  0  0  0  0  0  0  0  0  0
   -7.7764    2.0812    2.6163 O   0  0  0  0  0  0  0  0  0  0  0  0
   -7.8640    0.8564    0.0328 N   0  0  0  0  0  0  0  0  0  0  0  0
   -7.7620    0.1997   -1.1208 C   0  0  0  0  0  0  0  0  0  0  0  0
   -8.5769    0.0362   -2.2259 C   0  0  0  0  0  0  0  0  0  0  0  0
   -8.2019   -0.7203   -3.3033 C   0  0  0  0  0  0  0  0  0  0  0  0
   -6.9515   -1.3411   -3.2694 C   0  0  0  0  0  0  0  0  0  0  0  0
   -6.5378   -2.1012   -4.3157 F   0  0  0  0  0  0  0  0  0  0  0  0
   -6.1560   -1.1699   -2.1684 C   0  0  0  0  0  0  0  0  0  0  0  0
   -6.5342   -0.4082   -1.0844 C   0  0  0  0  0  0  0  0  0  0  0  0
   -1.3403   -0.0232    2.2136 N   0  0  0  0  0  0  0  0  0  0  0  0
   -0.0242   -0.5628    2.3699 C   0  0  0  0  0  0  0  0  0  0  0  0
    0.2716   -1.5257    3.3100 C   0  0  0  0  0  0  0  0  0  0  0  0
    1.5585   -1.9887    3.3934 C   0  0  0  0  0  0  0  0  0  0  0  0
    2.5483   -1.4967    2.5457 C   0  0  0  0  0  0  0  0  0  0  0  0
    2.2794   -0.5416    1.6052 C   0  0  0  0  0  0  0  0  0  0  0  0
    3.2771   -0.0002    0.7017 C   0  0  0  0  0  0  0  0  0  0  0  0
    4.5178   -0.3797    0.7103 C   0  0  0  0  0  0  0  0  0  0  0  0
    5.5093    0.1710   -0.2012 C   0  0  0  0  0  0  0  0  0  0  0  0
    5.2147    1.1292   -1.1369 C   0  0  0  0  0  0  0  0  0  0  0  0
    6.1976    1.6274   -1.9891 C   0  0  0  0  0  0  0  0  0  0  0  0
    7.4895    1.1649   -1.9075 C   0  0  0  0  0  0  0  0  0  0  0  0
    8.4974    1.6281   -2.7301 C   0  0  0  0  0  0  0  0  0  0  0  0
    9.7872    1.1431   -2.6236 C   0  0  0  0  0  0  0  0  0  0  0  0
   10.0886    0.1755   -1.6800 C   0  0  0  0  0  0  0  0  0  0  0  0
   11.7278   -0.4340   -1.5522 Cl  0  0  0  0  0  0  0  0  0  0  0  0
    9.0739   -0.2639   -0.8808 C   0  0  0  0  0  0  0  0  0  0  0  0
    7.7601    0.2026   -0.9597 C   0  0  0  0  0  0  0  0  0  0  0  0
    6.8041   -0.2634   -0.1508 N   0  0  0  0  0  0  0  0  0  0  0  0
    0.9667   -0.0989    1.5519 C   0  0  0  0  0  0  0  0  0  0  0  0
   -3.8178    0.8752    1.7522 H   0  0  0  0  0  0  0  0  0  0  0  0
   -4.1898   -1.4014   -0.1358 H   0  0  0  0  0  0  0  0  0  0  0  0
   -7.8794    2.2207    3.6165 H   0  0  0  0  0  0  0  0  0  0  0  0
   -8.6876    1.4182    0.2981 H   0  0  0  0  0  0  0  0  0  0  0  0
   -9.5330    0.5291   -2.2171 H   0  0  0  0  0  0  0  0  0  0  0  0
   -8.8508   -0.8420   -4.1671 H   0  0  0  0  0  0  0  0  0  0  0  0
   -5.1947   -1.6613   -2.1694 H   0  0  0  0  0  0  0  0  0  0  0  0
   -1.6263    0.8344    2.7691 H   0  0  0  0  0  0  0  0  0  0  0  0
   -0.4886   -1.9030    3.9605 H   0  0  0  0  0  0  0  0  0  0  0  0
    1.8058   -2.7436    4.1254 H   0  0  0  0  0  0  0  0  0  0  0  0
    3.5222   -1.9047    2.6707 H   0  0  0  0  0  0  0  0  0  0  0  0
    2.9240    0.7643   -0.0067 H   0  0  0  0  0  0  0  0  0  0  0  0
    4.8544   -1.1367    1.4160 H   0  0  0  0  0  0  0  0  0  0  0  0
    4.1991    1.5399   -1.2517 H   0  0  0  0  0  0  0  0  0  0  0  0
    5.9631    2.3751   -2.7178 H   0  0  0  0  0  0  0  0  0  0  0  0
    8.2423    2.3822   -3.4591 H   0  0  0  0  0  0  0  0  0  0  0  0
   10.5714    1.5128   -3.2737 H   0  0  0  0  0  0  0  0  0  0  0  0
    9.2612   -1.0096   -0.1391 H   0  0  0  0  0  0  0  0  0  0  0  0
    0.7146    0.6636    0.8132 H   0  0  0  0  0  0  0  0  0  0  0  0
  1  2  2  0
  2  3  1  0
  3  4  2  0
  4  5  1  0
  5  6  2  0
  6  7  1  0
  7  8  2  0
  7  9  1  0
  6 10  1  0
 10 11  1  0
 11 12  2  0
 12 13  1  0
 13 14  2  0
 14 15  1  0
 14 16  1  0
 16 17  2  0
  2 18  1  0
 18 19  1  0
 19 20  2  0
 20 21  1  0
 21 22  2  0
 22 23  1  0
 23 24  1  0
 24 25  2  0
 25 26  1  0
 26 27  2  0
 27 28  1  0
 28 29  2  0
 29 30  1  0
 30 31  2  0
 31 32  1  0
 32 33  1  0
 32 34  2  0
 34 35  1  0
 35 36  2  0
 23 37  2  0
 17  5  1  0
 37 19  1  0
 17 11  1  0
 36 26  1  0
 35 29  1  0
  3 38  1  0
  4 39  1  0
  9 40  1  0
 10 41  1  0
 12 42  1  0
 13 43  1  0
 16 44  1  0
 18 45  1  0
 20 46  1  0
 21 47  1  0
 22 48  1  0
 24 49  1  0
 25 50  1  0
 27 51  1  0
 28 52  1  0
 30 53  1  0
 31 54  1  0
 34 55  1  0
 37 56  1  0
M  END
$$$$
