@<TRIPOS>MOLECULE
*****
 54 56 0 0 0
SMALL
GASTEIGER

@<TRIPOS>ATOM
      1 C           1.8390   -4.1988    1.4019 C.3     1  UNL1       -0.0585
      2 C           1.8628   -3.6215    0.0025 C.3     1  UNL1       -0.0183
      3 C           3.1275   -4.2036   -0.6790 C.3     1  UNL1       -0.0585
      4 C           1.9954   -2.1388    0.0807 C.ar    1  UNL1       -0.0055
      5 C           3.2645   -1.6339    0.4182 C.ar    1  UNL1        0.0334
      6 N           3.5197   -0.3236    0.5001 N.ar    1  UNL1       -0.2545
      7 C           2.5866    0.6167    0.2673 C.ar    1  UNL1        0.0755
      8 C           2.8999    2.0436    0.3597 C.ar    1  UNL1        0.0369
      9 C           2.0091    3.0617    0.1723 C.ar    1  UNL1       -0.0314
     10 C           2.3680    4.3913    0.2683 C.ar    1  UNL1        0.0418
     11 CL          1.1532    5.6438    0.0142 Cl      1  UNL1       -0.0835
     12 C           3.6656    4.7623    0.5629 C.ar    1  UNL1       -0.0406
     13 C           4.5784    3.7456    0.7551 C.ar    1  UNL1       -0.0244
     14 C           4.2104    2.4230    0.6572 C.ar    1  UNL1        0.1326
     15 F           5.1378    1.4635    0.8520 F       1  UNL1       -0.2048
     16 C           1.3440    0.1558   -0.0621 C.ar    1  UNL1       -0.0141
     17 C           1.0221   -1.2202   -0.1621 C.ar    1  UNL1        0.0393
     18 N          -0.2673   -1.5560   -0.5796 N.pl3   1  UNL1       -0.2984
     19 C          -1.2979   -2.1688    0.1638 C.ar    1  UNL1        0.1383
     20 N          -1.1125   -3.3108    0.8618 N.ar    1  UNL1       -0.2199
     21 C          -2.0971   -3.8775    1.5527 C.ar    1  UNL1        0.1180
     22 N          -3.3090   -3.3100    1.5643 N.ar    1  UNL1       -0.2428
     23 C          -3.5529   -2.1583    0.8792 C.ar    1  UNL1        0.0447
     24 C          -2.5597   -1.5580    0.1635 C.ar    1  UNL1        0.0947
     25 C          -2.7942   -0.3200   -0.5603 C.2     1  UNL1        0.2490
     26 O          -1.8870    0.2684   -1.1814 O.2     1  UNL1       -0.2700
     27 N          -4.0707    0.3123   -0.6154 N.am    1  UNL1       -0.3088
     28 C          -4.4126    1.5179   -1.2786 C.3     1  UNL1        0.0377
     29 C          -3.7457    2.7669   -0.8318 C.3     1  UNL1        0.0679
     30 C          -4.2554    3.9699   -1.6402 C.3     1  UNL1       -0.0375
     31 O          -2.3837    2.7299   -0.9686 O.3     1  UNL1       -0.3905
     32 H           1.0540   -5.0115    1.3875 H       1  UNL1        0.0235
     33 H           1.5031   -3.4581    2.1495 H       1  UNL1        0.0235
     34 H           2.8298   -4.6142    1.6844 H       1  UNL1        0.0235
     35 H           1.0422   -3.9608   -0.6153 H       1  UNL1        0.0344
     36 H           2.8443   -5.1335   -1.1641 H       1  UNL1        0.0235
     37 H           3.9195   -4.3292    0.0958 H       1  UNL1        0.0235
     38 H           3.4746   -3.4147   -1.3708 H       1  UNL1        0.0235
     39 H           4.0473   -2.3692    0.6156 H       1  UNL1        0.0833
     40 H           0.9872    2.8277   -0.0588 H       1  UNL1        0.0639
     41 H           3.9495    5.8070    0.6388 H       1  UNL1        0.0633
     42 H           5.5920    4.0548    0.9852 H       1  UNL1        0.0647
     43 H           0.5655    0.8852   -0.2557 H       1  UNL1        0.0658
     44 H          -0.4656   -1.3335   -1.6129 H       1  UNL1        0.1536
     45 H          -1.8668   -4.8033    2.0926 H       1  UNL1        0.1047
     46 H          -4.5618   -1.8026    0.9670 H       1  UNL1        0.0839
     47 H          -4.8409   -0.2018   -0.0902 H       1  UNL1        0.1491
     48 H          -4.2828    1.4616   -2.3901 H       1  UNL1        0.0487
     49 H          -5.5239    1.6936   -1.1425 H       1  UNL1        0.0487
     50 H          -4.0694    2.9985    0.2154 H       1  UNL1        0.0606
     51 H          -3.9369    3.9078   -2.6876 H       1  UNL1        0.0255
     52 H          -5.3553    4.0440   -1.5805 H       1  UNL1        0.0255
     53 H          -3.7916    4.8633   -1.1502 H       1  UNL1        0.0255
     54 H          -1.9526    3.6162   -0.8997 H       1  UNL1        0.2098
@<TRIPOS>BOND
     1     1     2    1
     2     2     3    1
     3     2     4    1
     4     4     5   ar
     5     5     6   ar
     6     6     7   ar
     7     7     8    1
     8     8     9   ar
     9     9    10   ar
    10    10    11    1
    11    10    12   ar
    12    12    13   ar
    13    13    14   ar
    14    14    15    1
    15     7    16   ar
    16    16    17   ar
    17    17    18    1
    18    18    19    1
    19    19    20   ar
    20    20    21   ar
    21    21    22   ar
    22    22    23   ar
    23    23    24   ar
    24    24    25    1
    25    25    26    2
    26    25    27   am
    27    27    28    1
    28    28    29    1
    29    29    30    1
    30    29    31    1
    31    17     4   ar
    32    24    19   ar
    33    14     8   ar
    34     1    32    1
    35     1    33    1
    36     1    34    1
    37     2    35    1
    38     3    36    1
    39     3    37    1
    40     3    38    1
    41     5    39    1
    42     9    40    1
    43    12    41    1
    44    13    42    1
    45    16    43    1
    46    18    44    1
    47    21    45    1
    48    23    46    1
    49    27    47    1
    50    28    48    1
    51    28    49    1
    52    29    50    1
    53    30    51    1
    54    30    52    1
    55    30    53    1
    56    31    54    1
