
     RDKit          3D

 91 95  0  0  0  0  0  0  0  0999 V2000
    3.3249    1.3536    1.0291 O   0  0  0  0  0  0  0  0  0  0  0  0
    3.4931    1.7557   -0.1363 C   0  0  0  0  0  0  0  0  0  0  0  0
    4.6733    1.4565   -0.9642 C   0  0  0  0  0  0  0  0  0  0  0  0
    5.6798    0.5958   -0.3039 C   0  0  0  0  0  0  0  0  0  0  0  0
    5.7173   -0.7865   -0.5085 C   0  0  0  0  0  0  0  0  0  0  0  0
    6.6660   -1.5697    0.1076 C   0  0  0  0  0  0  0  0  0  0  0  0
    7.6219   -1.0501    0.9500 C   0  0  0  0  0  0  0  0  0  0  0  0
    8.6292   -1.8912    1.5869 C   0  0  0  0  0  0  0  0  0  0  0  0
    9.1525   -3.0330    1.0050 C   0  0  0  0  0  0  0  0  0  0  0  0
   10.1059   -3.7930    1.6460 C   0  0  0  0  0  0  0  0  0  0  0  0
   10.5762   -3.4488    2.8895 C   0  0  0  0  0  0  0  0  0  0  0  0
   11.5438   -4.2512    3.4985 O   0  0  0  0  0  0  0  0  0  0  0  0
   10.0667   -2.3089    3.4936 C   0  0  0  0  0  0  0  0  0  0  0  0
    9.1030   -1.5474    2.8365 C   0  0  0  0  0  0  0  0  0  0  0  0
    7.5833    0.3126    1.1512 C   0  0  0  0  0  0  0  0  0  0  0  0
    6.6333    1.1243    0.5388 C   0  0  0  0  0  0  0  0  0  0  0  0
    2.4866    2.5705   -0.7472 N   0  0  0  0  0  0  0  0  0  0  0  0
    1.2675    2.9607   -0.0738 C   0  0  0  0  0  0  0  0  0  0  0  0
    0.3614    3.7865   -0.9385 C   0  0  1  0  0  0  0  0  0  0  0  0
    1.1362    4.9235   -1.3019 O   0  0  0  0  0  0  0  0  0  0  0  0
   -0.1463    3.1380   -2.1752 C   0  0  1  0  0  0  0  0  0  0  0  0
    0.8619    2.6806   -2.9814 O   0  0  0  0  0  0  0  0  0  0  0  0
   -1.2896    2.1841   -1.9784 C   0  0  2  0  0  0  0  0  0  0  0  0
   -2.2037    2.7084   -1.1255 O   0  0  0  0  0  0  0  0  0  0  0  0
   -3.4752    2.0975   -1.1287 C   0  0  1  0  0  0  0  0  0  0  0  0
   -4.1517    2.7162   -0.1243 O   0  0  0  0  0  0  0  0  0  0  0  0
   -5.3791    2.5346    0.2680 C   0  0  0  0  0  0  0  0  0  0  0  0
   -5.9012    1.2762    0.8370 C   0  0  0  0  0  0  0  0  0  0  0  0
   -6.5737    0.3311    0.1064 C   0  0  0  0  0  0  0  0  0  0  0  0
   -7.0792   -0.8271    0.6755 C   0  0  0  0  0  0  0  0  0  0  0  0
   -6.9193   -1.0773    2.0347 C   0  0  0  0  0  0  0  0  0  0  0  0
   -7.4650   -2.2956    2.6085 C   0  0  0  0  0  0  0  0  0  0  0  0
   -8.6284   -2.8834    2.1011 C   0  0  0  0  0  0  0  0  0  0  0  0
   -9.1642   -4.0318    2.6303 C   0  0  0  0  0  0  0  0  0  0  0  0
   -8.5660   -4.6651    3.7045 C   0  0  0  0  0  0  0  0  0  0  0  0
   -7.4197   -4.1022    4.2183 C   0  0  0  0  0  0  0  0  0  0  0  0
   -6.8750   -2.9331    3.6793 C   0  0  0  0  0  0  0  0  0  0  0  0
   -6.2402   -0.1097    2.7354 C   0  0  0  0  0  0  0  0  0  0  0  0
   -5.7315    1.0408    2.1998 C   0  0  0  0  0  0  0  0  0  0  0  0
   -4.1466    2.3435   -2.4489 C   0  0  0  0  0  0  0  0  0  0  0  0
   -5.2099    1.7487   -2.6851 O   0  0  0  0  0  0  0  0  0  0  0  0
   -3.6360    3.2057   -3.4114 O   0  0  0  0  0  0  0  0  0  0  0  0
   -3.2898    0.6529   -0.8397 C   0  0  0  0  0  0  0  0  0  0  0  0
   -1.8850    0.1331   -0.7313 C   0  0  2  0  0  0  0  0  0  0  0  0
   -1.4436    0.3106    0.5837 O   0  0  0  0  0  0  0  0  0  0  0  0
   -0.9129    0.7659   -1.6935 C   0  0  1  0  0  0  0  0  0  0  0  0
   -0.8694   -0.0694   -2.9020 N   0  0  0  0  0  0  0  0  0  0  0  0
    0.3103   -0.7480   -3.2986 C   0  0  0  0  0  0  0  0  0  0  0  0
    1.3384   -0.6067   -2.5675 O   0  0  0  0  0  0  0  0  0  0  0  0
    0.3547   -1.5930   -4.5150 C   0  0  0  0  0  0  0  0  0  0  0  0
   -0.8711   -1.5922   -5.1362 O   0  0  0  0  0  0  0  0  0  0  0  0
    5.1102    2.4627   -1.2402 H   0  0  0  0  0  0  0  0  0  0  0  0
    4.3734    1.0210   -1.9511 H   0  0  0  0  0  0  0  0  0  0  0  0
    4.9807   -1.2179   -1.1647 H   0  0  0  0  0  0  0  0  0  0  0  0
    6.6660   -2.6509   -0.0738 H   0  0  0  0  0  0  0  0  0  0  0  0
    8.7829   -3.3042    0.0281 H   0  0  0  0  0  0  0  0  0  0  0  0
   10.5235   -4.7028    1.1857 H   0  0  0  0  0  0  0  0  0  0  0  0
   11.8542   -3.9775    4.4194 H   0  0  0  0  0  0  0  0  0  0  0  0
   10.4437   -2.0542    4.4665 H   0  0  0  0  0  0  0  0  0  0  0  0
    8.7217   -0.6539    3.3431 H   0  0  0  0  0  0  0  0  0  0  0  0
    8.3116    0.7602    1.8003 H   0  0  0  0  0  0  0  0  0  0  0  0
    6.5929    2.2001    0.6913 H   0  0  0  0  0  0  0  0  0  0  0  0
    2.6585    2.9083   -1.7212 H   0  0  0  0  0  0  0  0  0  0  0  0
    0.7887    2.0977    0.3765 H   0  0  0  0  0  0  0  0  0  0  0  0
    1.6389    3.6643    0.7510 H   0  0  0  0  0  0  0  0  0  0  0  0
   -0.4784    4.2271   -0.3395 H   0  0  0  0  0  0  0  0  0  0  0  0
    0.9832    5.0829   -2.2594 H   0  0  0  0  0  0  0  0  0  0  0  0
   -0.5861    4.0281   -2.8278 H   0  0  0  0  0  0  0  0  0  0  0  0
    0.5576    2.4453   -3.8924 H   0  0  0  0  0  0  0  0  0  0  0  0
   -1.7826    2.1492   -3.0194 H   0  0  0  0  0  0  0  0  0  0  0  0
   -5.6115    3.3510    1.0636 H   0  0  0  0  0  0  0  0  0  0  0  0
   -6.1625    2.8451   -0.5204 H   0  0  0  0  0  0  0  0  0  0  0  0
   -6.7406    0.4662   -0.9551 H   0  0  0  0  0  0  0  0  0  0  0  0
   -7.6062   -1.5612    0.0829 H   0  0  0  0  0  0  0  0  0  0  0  0
   -9.0734   -2.3666    1.2605 H   0  0  0  0  0  0  0  0  0  0  0  0
  -10.0649   -4.4774    2.2303 H   0  0  0  0  0  0  0  0  0  0  0  0
   -9.0102   -5.5733    4.1059 H   0  0  0  0  0  0  0  0  0  0  0  0
   -6.9444   -4.5855    5.0565 H   0  0  0  0  0  0  0  0  0  0  0  0
   -5.9679   -2.5095    4.1062 H   0  0  0  0  0  0  0  0  0  0  0  0
   -6.1147   -0.3063    3.8072 H   0  0  0  0  0  0  0  0  0  0  0  0
   -5.1945    1.7766    2.8221 H   0  0  0  0  0  0  0  0  0  0  0  0
   -3.6908    2.9926   -4.3890 H   0  0  0  0  0  0  0  0  0  0  0  0
   -3.9037    0.0752   -1.5620 H   0  0  0  0  0  0  0  0  0  0  0  0
   -3.7699    0.4297    0.1660 H   0  0  0  0  0  0  0  0  0  0  0  0
   -1.9075   -0.9583   -0.9169 H   0  0  0  0  0  0  0  0  0  0  0  0
   -0.7405   -0.3683    0.7953 H   0  0  0  0  0  0  0  0  0  0  0  0
    0.0871    0.7181   -1.2703 H   0  0  0  0  0  0  0  0  0  0  0  0
   -1.7575   -0.1539   -3.4860 H   0  0  0  0  0  0  0  0  0  0  0  0
    0.6135   -2.6523   -4.2574 H   0  0  0  0  0  0  0  0  0  0  0  0
    1.1078   -1.1801   -5.2359 H   0  0  0  0  0  0  0  0  0  0  0  0
   -0.9025   -0.9103   -5.8745 H   0  0  0  0  0  0  0  0  0  0  0  0
  1  2  2  0
  2  3  1  0
  3  4  1  0
  4  5  2  0
  5  6  1  0
  6  7  2  0
  7  8  1  0
  8  9  2  0
  9 10  1  0
 10 11  2  0
 11 12  1  0
 11 13  1  0
 13 14  2  0
  7 15  1  0
 15 16  2  0
  2 17  1  0
 17 18  1  0
 18 19  1  0
 19 20  1  0
 19 21  1  0
 21 22  1  0
 21 23  1  0
 23 24  1  0
 24 25  1  0
 25 26  1  1
 26 27  1  0
 27 28  1  0
 28 29  2  0
 29 30  1  0
 30 31  2  0
 31 32  1  0
 32 33  2  0
 33 34  1  0
 34 35  2  0
 35 36  1  0
 36 37  2  0
 31 38  1  0
 38 39  2  0
 25 40  1  0
 40 41  2  0
 40 42  1  0
 25 43  1  0
 43 44  1  0
 44 45  1  0
 44 46  1  0
 46 47  1  0
 47 48  1  0
 48 49  2  0
 48 50  1  0
 50 51  1  0
 16  4  1  0
 46 23  1  0
 14  8  1  0
 39 28  1  0
 37 32  1  0
  3 52  1  0
  3 53  1  0
  5 54  1  0
  6 55  1  0
  9 56  1  0
 10 57  1  0
 12 58  1  0
 13 59  1  0
 14 60  1  0
 15 61  1  0
 16 62  1  0
 17 63  1  0
 18 64  1  0
 18 65  1  0
 19 66  1  1
 20 67  1  0
 21 68  1  6
 22 69  1  0
 23 70  1  6
 27 71  1  0
 27 72  1  0
 29 73  1  0
 30 74  1  0
 33 75  1  0
 34 76  1  0
 35 77  1  0
 36 78  1  0
 37 79  1  0
 38 80  1  0
 39 81  1  0
 42 82  1  0
 43 83  1  0
 43 84  1  0
 44 85  1  6
 45 86  1  0
 46 87  1  1
 47 88  1  0
 50 89  1  0
 50 90  1  0
 51 91  1  0
M  END
$$$$
