@<TRIPOS>MOLECULE
*****
 91 95 0 0 0
SMALL
GASTEIGER

@<TRIPOS>ATOM
      1 O           3.3249    1.3536    1.0291 O.2     1  UNL1       -0.2755
      2 C           3.4931    1.7557   -0.1363 C.2     1  UNL1        0.2174
      3 C           4.6733    1.4565   -0.9642 C.3     1  UNL1        0.0491
      4 C           5.6798    0.5958   -0.3039 C.ar    1  UNL1       -0.0386
      5 C           5.7173   -0.7865   -0.5085 C.ar    1  UNL1       -0.0575
      6 C           6.6660   -1.5697    0.1076 C.ar    1  UNL1       -0.0538
      7 C           7.6219   -1.0501    0.9500 C.ar    1  UNL1       -0.0179
      8 C           8.6292   -1.8912    1.5869 C.ar    1  UNL1       -0.0177
      9 C           9.1525   -3.0330    1.0050 C.ar    1  UNL1       -0.0506
     10 C          10.1059   -3.7930    1.6460 C.ar    1  UNL1       -0.0196
     11 C          10.5762   -3.4488    2.8895 C.ar    1  UNL1        0.1169
     12 O          11.5438   -4.2512    3.4985 O.3     1  UNL1       -0.5068
     13 C          10.0667   -2.3089    3.4936 C.ar    1  UNL1       -0.0196
     14 C           9.1030   -1.5474    2.8365 C.ar    1  UNL1       -0.0506
     15 C           7.5833    0.3126    1.1512 C.ar    1  UNL1       -0.0538
     16 C           6.6333    1.1243    0.5388 C.ar    1  UNL1       -0.0575
     17 N           2.4866    2.5705   -0.7472 N.am    1  UNL1       -0.3125
     18 C           1.2675    2.9607   -0.0738 C.3     1  UNL1        0.0401
     19 C           0.3614    3.7865   -0.9385 C.3     1  UNL1        0.0989
     20 O           1.1362    4.9235   -1.3019 O.3     1  UNL1       -0.3876
     21 C          -0.1463    3.1380   -2.1752 C.3     1  UNL1        0.1105
     22 O           0.8619    2.6806   -2.9814 O.3     1  UNL1       -0.3865
     23 C          -1.2896    2.1841   -1.9784 C.3     1  UNL1        0.1114
     24 O          -2.2037    2.7084   -1.1255 O.3     1  UNL1       -0.3319
     25 C          -3.4752    2.0975   -1.1287 C.3     1  UNL1        0.2731
     26 O          -4.1517    2.7162   -0.1243 O.3     1  UNL1       -0.3352
     27 C          -5.3791    2.5346    0.2680 C.3     1  UNL1        0.0765
     28 C          -5.9012    1.2762    0.8370 C.ar    1  UNL1       -0.0218
     29 C          -6.5737    0.3311    0.1064 C.ar    1  UNL1       -0.0558
     30 C          -7.0792   -0.8271    0.6755 C.ar    1  UNL1       -0.0537
     31 C          -6.9193   -1.0773    2.0347 C.ar    1  UNL1       -0.0179
     32 C          -7.4650   -2.2956    2.6085 C.ar    1  UNL1       -0.0179
     33 C          -8.6284   -2.8834    2.1011 C.ar    1  UNL1       -0.0540
     34 C          -9.1642   -4.0318    2.6303 C.ar    1  UNL1       -0.0612
     35 C          -8.5660   -4.6651    3.7045 C.ar    1  UNL1       -0.0617
     36 C          -7.4197   -4.1022    4.2183 C.ar    1  UNL1       -0.0612
     37 C          -6.8750   -2.9331    3.6793 C.ar    1  UNL1       -0.0540
     38 C          -6.2402   -0.1097    2.7354 C.ar    1  UNL1       -0.0537
     39 C          -5.7315    1.0408    2.1998 C.ar    1  UNL1       -0.0558
     40 C          -4.1466    2.3435   -2.4489 C.2     1  UNL1        0.3653
     41 O          -5.2099    1.7487   -2.6851 O.2     1  UNL1       -0.2449
     42 O          -3.6360    3.2057   -3.4114 O.3     1  UNL1       -0.4769
     43 C          -3.2898    0.6529   -0.8397 C.3     1  UNL1        0.0405
     44 C          -1.8850    0.1331   -0.7313 C.3     1  UNL1        0.0815
     45 O          -1.4436    0.3106    0.5837 O.3     1  UNL1       -0.3897
     46 C          -0.9129    0.7659   -1.6935 C.3     1  UNL1        0.0780
     47 N          -0.8694   -0.0694   -2.9020 N.am    1  UNL1       -0.3055
     48 C           0.3103   -0.7480   -3.2986 C.2     1  UNL1        0.2389
     49 O           1.3384   -0.6067   -2.5675 O.2     1  UNL1       -0.2733
     50 C           0.3547   -1.5930   -4.5150 C.3     1  UNL1        0.1202
     51 O          -0.8711   -1.5922   -5.1362 O.3     1  UNL1       -0.3858
     52 H           5.1102    2.4627   -1.2402 H       1  UNL1        0.0407
     53 H           4.3734    1.0210   -1.9511 H       1  UNL1        0.0407
     54 H           4.9807   -1.2179   -1.1647 H       1  UNL1        0.0621
     55 H           6.6660   -2.6509   -0.0738 H       1  UNL1        0.0624
     56 H           8.7829   -3.3042    0.0281 H       1  UNL1        0.0625
     57 H          10.5235   -4.7028    1.1857 H       1  UNL1        0.0654
     58 H          11.8542   -3.9775    4.4194 H       1  UNL1        0.2921
     59 H          10.4437   -2.0542    4.4665 H       1  UNL1        0.0654
     60 H           8.7217   -0.6539    3.3431 H       1  UNL1        0.0625
     61 H           8.3116    0.7602    1.8003 H       1  UNL1        0.0624
     62 H           6.5929    2.2001    0.6913 H       1  UNL1        0.0621
     63 H           2.6585    2.9083   -1.7212 H       1  UNL1        0.1488
     64 H           0.7887    2.0977    0.3765 H       1  UNL1        0.0488
     65 H           1.6389    3.6643    0.7510 H       1  UNL1        0.0488
     66 H          -0.4784    4.2271   -0.3395 H       1  UNL1        0.0636
     67 H           0.9832    5.0829   -2.2594 H       1  UNL1        0.2100
     68 H          -0.5861    4.0281   -2.8278 H       1  UNL1        0.0646
     69 H           0.5576    2.4453   -3.8924 H       1  UNL1        0.2100
     70 H          -1.7826    2.1492   -3.0194 H       1  UNL1        0.0643
     71 H          -5.6115    3.3510    1.0636 H       1  UNL1        0.0611
     72 H          -6.1625    2.8451   -0.5204 H       1  UNL1        0.0611
     73 H          -6.7406    0.4662   -0.9551 H       1  UNL1        0.0621
     74 H          -7.6062   -1.5612    0.0829 H       1  UNL1        0.0624
     75 H          -9.0734   -2.3666    1.2605 H       1  UNL1        0.0624
     76 H         -10.0649   -4.4774    2.2303 H       1  UNL1        0.0618
     77 H          -9.0102   -5.5733    4.1059 H       1  UNL1        0.0618
     78 H          -6.9444   -4.5855    5.0565 H       1  UNL1        0.0618
     79 H          -5.9679   -2.5095    4.1062 H       1  UNL1        0.0624
     80 H          -6.1147   -0.3063    3.8072 H       1  UNL1        0.0624
     81 H          -5.1945    1.7766    2.8221 H       1  UNL1        0.0621
     82 H          -3.6908    2.9926   -4.3890 H       1  UNL1        0.2952
     83 H          -3.9037    0.0752   -1.5620 H       1  UNL1        0.0349
     84 H          -3.7699    0.4297    0.1660 H       1  UNL1        0.0349
     85 H          -1.9075   -0.9583   -0.9169 H       1  UNL1        0.0614
     86 H          -0.7405   -0.3683    0.7953 H       1  UNL1        0.2099
     87 H           0.0871    0.7181   -1.2703 H       1  UNL1        0.0550
     88 H          -1.7575   -0.1539   -3.4860 H       1  UNL1        0.1492
     89 H           0.6135   -2.6523   -4.2574 H       1  UNL1        0.0654
     90 H           1.1078   -1.1801   -5.2359 H       1  UNL1        0.0654
     91 H          -0.9025   -0.9103   -5.8745 H       1  UNL1        0.2100
@<TRIPOS>BOND
     1     1     2    2
     2     2     3    1
     3     3     4    1
     4     4     5   ar
     5     5     6   ar
     6     6     7   ar
     7     7     8    1
     8     8     9   ar
     9     9    10   ar
    10    10    11   ar
    11    11    12    1
    12    11    13   ar
    13    13    14   ar
    14     7    15   ar
    15    15    16   ar
    16     2    17   am
    17    17    18    1
    18    18    19    1
    19    19    20    1
    20    19    21    1
    21    21    22    1
    22    21    23    1
    23    23    24    1
    24    24    25    1
    25    25    26    1
    26    26    27    1
    27    27    28    1
    28    28    29   ar
    29    29    30   ar
    30    30    31   ar
    31    31    32    1
    32    32    33   ar
    33    33    34   ar
    34    34    35   ar
    35    35    36   ar
    36    36    37   ar
    37    31    38   ar
    38    38    39   ar
    39    25    40    1
    40    40    41    2
    41    40    42    1
    42    25    43    1
    43    43    44    1
    44    44    45    1
    45    44    46    1
    46    46    47    1
    47    47    48   am
    48    48    49    2
    49    48    50    1
    50    50    51    1
    51    16     4   ar
    52    46    23    1
    53    14     8   ar
    54    39    28   ar
    55    37    32   ar
    56     3    52    1
    57     3    53    1
    58     5    54    1
    59     6    55    1
    60     9    56    1
    61    10    57    1
    62    12    58    1
    63    13    59    1
    64    14    60    1
    65    15    61    1
    66    16    62    1
    67    17    63    1
    68    18    64    1
    69    18    65    1
    70    19    66    1
    71    20    67    1
    72    21    68    1
    73    22    69    1
    74    23    70    1
    75    27    71    1
    76    27    72    1
    77    29    73    1
    78    30    74    1
    79    33    75    1
    80    34    76    1
    81    35    77    1
    82    36    78    1
    83    37    79    1
    84    38    80    1
    85    39    81    1
    86    42    82    1
    87    43    83    1
    88    43    84    1
    89    44    85    1
    90    45    86    1
    91    46    87    1
    92    47    88    1
    93    50    89    1
    94    50    90    1
    95    51    91    1
