@<TRIPOS>MOLECULE
*****
 54 58 0 0 0
SMALL
GASTEIGER

@<TRIPOS>ATOM
      1 C           9.5507    1.8647   -0.1478 C.3     1  UNL1        0.0788
      2 O           9.3628    0.7048   -0.9040 O.3     1  UNL1       -0.4951
      3 C           8.1177    0.1229   -1.1226 C.ar    1  UNL1        0.1208
      4 C           8.0092   -1.0239   -1.8812 C.ar    1  UNL1       -0.0196
      5 C           6.7922   -1.6254   -2.1170 C.ar    1  UNL1       -0.0529
      6 C           5.6191   -1.0832   -1.5872 C.ar    1  UNL1       -0.0173
      7 C           5.7091    0.0522   -0.8338 C.ar    1  UNL1        0.0454
      8 C           6.9581    0.6530   -0.6030 C.ar    1  UNL1       -0.0075
      9 C           4.3631    0.3975   -0.4129 C.2     1  UNL1        0.2530
     10 O           4.0547    1.3824    0.2947 O.2     1  UNL1       -0.2696
     11 N           3.4675   -0.5683   -0.9393 N.am    1  UNL1       -0.2420
     12 C           2.0632   -0.5334   -0.7200 C.ar    1  UNL1        0.1682
     13 N           1.1916    0.1720   -0.1234 N.ar    1  UNL1       -0.2198
     14 C          -0.0671   -0.0345   -0.0866 C.ar    1  UNL1        0.1349
     15 C          -1.0269    0.8401    0.6358 C.2     1  UNL1        0.2672
     16 O          -0.5706    1.8310    1.2358 O.2     1  UNL1       -0.2682
     17 N          -2.3844    0.5437    0.6293 N.am    1  UNL1       -0.2775
     18 C          -3.3933    1.2896    1.2737 C.ar    1  UNL1        0.0733
     19 C          -3.1800    2.3872    2.0382 C.ar    1  UNL1        0.0506
     20 N          -4.1796    3.0751    2.6431 N.ar    1  UNL1       -0.2613
     21 C          -5.4611    2.7102    2.5233 C.ar    1  UNL1        0.0294
     22 C          -5.7295    1.6059    1.7598 C.ar    1  UNL1       -0.0207
     23 C          -4.7353    0.8904    1.1353 C.ar    1  UNL1        0.0542
     24 N          -5.0867   -0.2202    0.3579 N.pl3   1  UNL1       -0.3260
     25 C          -4.8708   -0.2380   -1.0702 C.3     1  UNL1        0.0248
     26 C          -6.2559   -0.3733   -1.6865 C.3     1  UNL1        0.0117
     27 N          -6.9734   -1.4822   -1.1685 N.3     1  UNL1       -0.3130
     28 C          -6.3858   -2.2267   -0.1148 C.3     1  UNL1        0.0117
     29 C          -5.6839   -1.3841    0.9360 C.3     1  UNL1        0.0248
     30 C          -0.5475   -1.1719   -0.7853 C.ar    1  UNL1        0.0094
     31 S           0.9848   -1.8328   -1.4443 S.2     1  UNL1       -0.0595
     32 C           4.2275   -1.5216   -1.6882 C.3     1  UNL1        0.0477
     33 H           8.7172    2.5765   -0.3816 H       1  UNL1        0.0660
     34 H          10.5057    2.3713   -0.3970 H       1  UNL1        0.0660
     35 H           9.5081    1.6153    0.9169 H       1  UNL1        0.0660
     36 H           8.9032   -1.4518   -2.2948 H       1  UNL1        0.0654
     37 H           6.6942   -2.5289   -2.7128 H       1  UNL1        0.0622
     38 H           6.9972    1.5455   -0.0065 H       1  UNL1        0.0662
     39 H          -2.7332   -0.3180    0.1082 H       1  UNL1        0.1553
     40 H          -2.1914    2.7761    2.2105 H       1  UNL1        0.0849
     41 H          -6.2710    3.2618    3.0096 H       1  UNL1        0.0830
     42 H          -6.7848    1.3212    1.6724 H       1  UNL1        0.0652
     43 H          -4.3497    0.6340   -1.4613 H       1  UNL1        0.0476
     44 H          -4.3248   -1.1555   -1.4184 H       1  UNL1        0.0476
     45 H          -6.8183    0.5845   -1.6202 H       1  UNL1        0.0439
     46 H          -6.0856   -0.5421   -2.7759 H       1  UNL1        0.0439
     47 H          -7.9939   -1.3085   -1.0660 H       1  UNL1        0.1220
     48 H          -7.1857   -2.7900    0.4150 H       1  UNL1        0.0439
     49 H          -5.6799   -3.0242   -0.4887 H       1  UNL1        0.0439
     50 H          -4.8752   -2.0140    1.3609 H       1  UNL1        0.0476
     51 H          -6.3826   -1.1679    1.7596 H       1  UNL1        0.0476
     52 H          -1.5138   -1.5527   -0.9068 H       1  UNL1        0.0717
     53 H           3.8556   -1.5007   -2.7365 H       1  UNL1        0.0519
     54 H           4.0694   -2.5353   -1.2395 H       1  UNL1        0.0519
@<TRIPOS>BOND
     1     1     2    1
     2     2     3    1
     3     3     4   ar
     4     4     5   ar
     5     5     6   ar
     6     6     7   ar
     7     7     8   ar
     8     7     9    1
     9     9    10    2
    10     9    11   am
    11    11    12    1
    12    12    13   ar
    13    13    14   ar
    14    14    15    1
    15    15    16    2
    16    15    17   am
    17    17    18    1
    18    18    19   ar
    19    19    20   ar
    20    20    21   ar
    21    21    22   ar
    22    22    23   ar
    23    23    24    1
    24    24    25    1
    25    25    26    1
    26    26    27    1
    27    27    28    1
    28    28    29    1
    29    14    30   ar
    30    30    31   ar
    31    11    32    1
    32     8     3   ar
    33    31    12   ar
    34    32     6    1
    35    23    18   ar
    36    29    24    1
    37     1    33    1
    38     1    34    1
    39     1    35    1
    40     4    36    1
    41     5    37    1
    42     8    38    1
    43    17    39    1
    44    19    40    1
    45    21    41    1
    46    22    42    1
    47    25    43    1
    48    25    44    1
    49    26    45    1
    50    26    46    1
    51    27    47    1
    52    28    48    1
    53    28    49    1
    54    29    50    1
    55    29    51    1
    56    30    52    1
    57    32    53    1
    58    32    54    1
