
     RDKit          3D

 54 58  0  0  0  0  0  0  0  0999 V2000
    9.5507    1.8647   -0.1478 C   0  0  0  0  0  0  0  0  0  0  0  0
    9.3628    0.7048   -0.9040 O   0  0  0  0  0  0  0  0  0  0  0  0
    8.1177    0.1229   -1.1226 C   0  0  0  0  0  0  0  0  0  0  0  0
    8.0092   -1.0239   -1.8812 C   0  0  0  0  0  0  0  0  0  0  0  0
    6.7922   -1.6254   -2.1170 C   0  0  0  0  0  0  0  0  0  0  0  0
    5.6191   -1.0832   -1.5872 C   0  0  0  0  0  0  0  0  0  0  0  0
    5.7091    0.0522   -0.8338 C   0  0  0  0  0  0  0  0  0  0  0  0
    6.9581    0.6530   -0.6030 C   0  0  0  0  0  0  0  0  0  0  0  0
    4.3631    0.3975   -0.4129 C   0  0  0  0  0  0  0  0  0  0  0  0
    4.0547    1.3824    0.2947 O   0  0  0  0  0  0  0  0  0  0  0  0
    3.4675   -0.5683   -0.9393 N   0  0  0  0  0  0  0  0  0  0  0  0
    2.0632   -0.5334   -0.7200 C   0  0  0  0  0  0  0  0  0  0  0  0
    1.1916    0.1720   -0.1234 N   0  0  0  0  0  0  0  0  0  0  0  0
   -0.0671   -0.0345   -0.0866 C   0  0  0  0  0  0  0  0  0  0  0  0
   -1.0269    0.8401    0.6358 C   0  0  0  0  0  0  0  0  0  0  0  0
   -0.5706    1.8310    1.2358 O   0  0  0  0  0  0  0  0  0  0  0  0
   -2.3844    0.5437    0.6293 N   0  0  0  0  0  0  0  0  0  0  0  0
   -3.3933    1.2896    1.2737 C   0  0  0  0  0  0  0  0  0  0  0  0
   -3.1800    2.3872    2.0382 C   0  0  0  0  0  0  0  0  0  0  0  0
   -4.1796    3.0751    2.6431 N   0  0  0  0  0  0  0  0  0  0  0  0
   -5.4611    2.7102    2.5233 C   0  0  0  0  0  0  0  0  0  0  0  0
   -5.7295    1.6059    1.7598 C   0  0  0  0  0  0  0  0  0  0  0  0
   -4.7353    0.8904    1.1353 C   0  0  0  0  0  0  0  0  0  0  0  0
   -5.0867   -0.2202    0.3579 N   0  0  0  0  0  0  0  0  0  0  0  0
   -4.8708   -0.2380   -1.0702 C   0  0  0  0  0  0  0  0  0  0  0  0
   -6.2559   -0.3733   -1.6865 C   0  0  0  0  0  0  0  0  0  0  0  0
   -6.9734   -1.4822   -1.1685 N   0  0  0  0  0  0  0  0  0  0  0  0
   -6.3858   -2.2267   -0.1148 C   0  0  0  0  0  0  0  0  0  0  0  0
   -5.6839   -1.3841    0.9360 C   0  0  0  0  0  0  0  0  0  0  0  0
   -0.5475   -1.1719   -0.7853 C   0  0  0  0  0  0  0  0  0  0  0  0
    0.9848   -1.8328   -1.4443 S   0  0  0  0  0  0  0  0  0  0  0  0
    4.2275   -1.5216   -1.6882 C   0  0  0  0  0  0  0  0  0  0  0  0
    8.7172    2.5765   -0.3816 H   0  0  0  0  0  0  0  0  0  0  0  0
   10.5057    2.3713   -0.3970 H   0  0  0  0  0  0  0  0  0  0  0  0
    9.5081    1.6153    0.9169 H   0  0  0  0  0  0  0  0  0  0  0  0
    8.9032   -1.4518   -2.2948 H   0  0  0  0  0  0  0  0  0  0  0  0
    6.6942   -2.5289   -2.7128 H   0  0  0  0  0  0  0  0  0  0  0  0
    6.9972    1.5455   -0.0065 H   0  0  0  0  0  0  0  0  0  0  0  0
   -2.7332   -0.3180    0.1082 H   0  0  0  0  0  0  0  0  0  0  0  0
   -2.1914    2.7761    2.2105 H   0  0  0  0  0  0  0  0  0  0  0  0
   -6.2710    3.2618    3.0096 H   0  0  0  0  0  0  0  0  0  0  0  0
   -6.7848    1.3212    1.6724 H   0  0  0  0  0  0  0  0  0  0  0  0
   -4.3497    0.6340   -1.4613 H   0  0  0  0  0  0  0  0  0  0  0  0
   -4.3248   -1.1555   -1.4184 H   0  0  0  0  0  0  0  0  0  0  0  0
   -6.8183    0.5845   -1.6202 H   0  0  0  0  0  0  0  0  0  0  0  0
   -6.0856   -0.5421   -2.7759 H   0  0  0  0  0  0  0  0  0  0  0  0
   -7.9939   -1.3085   -1.0660 H   0  0  0  0  0  0  0  0  0  0  0  0
   -7.1857   -2.7900    0.4150 H   0  0  0  0  0  0  0  0  0  0  0  0
   -5.6799   -3.0242   -0.4887 H   0  0  0  0  0  0  0  0  0  0  0  0
   -4.8752   -2.0140    1.3609 H   0  0  0  0  0  0  0  0  0  0  0  0
   -6.3826   -1.1679    1.7596 H   0  0  0  0  0  0  0  0  0  0  0  0
   -1.5138   -1.5527   -0.9068 H   0  0  0  0  0  0  0  0  0  0  0  0
    3.8556   -1.5007   -2.7365 H   0  0  0  0  0  0  0  0  0  0  0  0
    4.0694   -2.5353   -1.2395 H   0  0  0  0  0  0  0  0  0  0  0  0
  1  2  1  0
  2  3  1  0
  3  4  2  0
  4  5  1  0
  5  6  2  0
  6  7  1  0
  7  8  2  0
  7  9  1  0
  9 10  2  0
  9 11  1  0
 11 12  1  0
 12 13  2  0
 13 14  1  0
 14 15  1  0
 15 16  2  0
 15 17  1  0
 17 18  1  0
 18 19  2  0
 19 20  1  0
 20 21  2  0
 21 22  1  0
 22 23  2  0
 23 24  1  0
 24 25  1  0
 25 26  1  0
 26 27  1  0
 27 28  1  0
 28 29  1  0
 14 30  2  0
 30 31  1  0
 11 32  1  0
  8  3  1  0
 31 12  1  0
 32  6  1  0
 23 18  1  0
 29 24  1  0
  1 33  1  0
  1 34  1  0
  1 35  1  0
  4 36  1  0
  5 37  1  0
  8 38  1  0
 17 39  1  0
 19 40  1  0
 21 41  1  0
 22 42  1  0
 25 43  1  0
 25 44  1  0
 26 45  1  0
 26 46  1  0
 27 47  1  0
 28 48  1  0
 28 49  1  0
 29 50  1  0
 29 51  1  0
 30 52  1  0
 32 53  1  0
 32 54  1  0
M  END
$$$$
