@<TRIPOS>MOLECULE
*****
 78 85 0 0 0
SMALL
GASTEIGER

@<TRIPOS>ATOM
      1 N          -9.9415    6.4212   -2.0212 N.am    1  UNL1       -0.3130
      2 C          -9.4523    5.1099   -1.7851 C.2     1  UNL1        0.3035
      3 O          -9.2444    4.2930   -2.7367 O.2     1  UNL1       -0.2527
      4 N          -9.1603    4.6147   -0.4829 N.am    1  UNL1       -0.2383
      5 C          -8.6703    3.2964   -0.2753 C.ar    1  UNL1        0.2288
      6 N          -9.3920    2.1822   -0.0654 N.ar    1  UNL1       -0.1122
      7 N          -8.5750    1.1403    0.0850 N.ar    1  UNL1       -0.1271
      8 C          -7.2955    1.5757   -0.0279 C.ar    1  UNL1        0.1716
      9 C          -6.0737    0.9484    0.0396 C.ar    1  UNL1        0.0456
     10 C          -5.9864   -0.4032    0.2646 C.ar    1  UNL1       -0.0392
     11 C          -4.7433   -1.0377    0.3324 C.ar    1  UNL1        0.0088
     12 C          -4.6296   -2.4653    0.5727 C.ar    1  UNL1       -0.0158
     13 C          -4.0188   -2.9299    1.7042 C.ar    1  UNL1       -0.0540
     14 C          -3.9281   -4.2989    1.9024 C.ar    1  UNL1       -0.0612
     15 C          -4.4332   -5.2192    0.9966 C.ar    1  UNL1       -0.0617
     16 C          -5.0452   -4.7272   -0.1380 C.ar    1  UNL1       -0.0612
     17 C          -5.1422   -3.3525   -0.3476 C.ar    1  UNL1       -0.0540
     18 C          -3.6169   -0.2688    0.1675 C.ar    1  UNL1        0.0794
     19 C          -2.2617   -0.8198    0.2123 C.ar    1  UNL1        0.0010
     20 C          -1.8161   -1.7492   -0.7118 C.ar    1  UNL1       -0.0522
     21 C          -0.5331   -2.2595   -0.6666 C.ar    1  UNL1       -0.0567
     22 C           0.3383   -1.8441    0.3159 C.ar    1  UNL1       -0.0333
     23 C           1.7004   -2.4043    0.3288 C.3     1  UNL1        0.0240
     24 N           2.6308   -1.6192   -0.4540 N.3     1  UNL1       -0.2981
     25 C           2.7440   -0.2629    0.0242 C.3     1  UNL1       -0.0001
     26 C           4.1156    0.2273   -0.4604 C.3     1  UNL1       -0.0304
     27 C           5.1724   -0.4132    0.4149 C.3     1  UNL1        0.0212
     28 C           6.5231   -0.3667   -0.1991 C.ar    1  UNL1        0.1344
     29 N           6.9117   -1.0120   -1.3102 N.ar    1  UNL1       -0.1339
     30 N           8.1995   -0.7293   -1.5611 N.ar    1  UNL1       -0.1278
     31 C           8.6411    0.0998   -0.6094 C.ar    1  UNL1        0.1800
     32 C           9.9982    0.6754   -0.4827 C.ar    1  UNL1        0.1077
     33 C          10.2655    1.5204    0.5724 C.ar    1  UNL1       -0.0326
     34 C          11.5076    2.0936    0.7506 C.ar    1  UNL1       -0.0582
     35 C          12.4749    1.7748   -0.1889 C.ar    1  UNL1       -0.0436
     36 C          12.2043    0.9206   -1.2551 C.ar    1  UNL1        0.0284
     37 N          10.9588    0.3962   -1.3629 N.ar    1  UNL1       -0.2519
     38 N           7.6074    0.3158    0.2196 N.ar    1  UNL1       -0.3237
     39 C           4.7260   -1.8277    0.7035 C.3     1  UNL1       -0.0304
     40 C           3.9021   -2.3085   -0.4574 C.3     1  UNL1       -0.0001
     41 C          -0.1041   -0.9196    1.2361 C.ar    1  UNL1       -0.0567
     42 C          -1.3870   -0.3989    1.2041 C.ar    1  UNL1       -0.0522
     43 N          -3.6922    1.0707   -0.0557 N.ar    1  UNL1       -0.2459
     44 C          -4.9113    1.6637   -0.1173 C.ar    1  UNL1        0.0766
     45 C          -5.0052    3.0184   -0.3427 C.ar    1  UNL1       -0.0189
     46 C          -6.2522    3.5905   -0.4001 C.ar    1  UNL1        0.0164
     47 N          -7.3851    2.8873   -0.2461 N.ar    1  UNL1       -0.2699
     48 H          -9.2964    7.2181   -1.8447 H       1  UNL1        0.1465
     49 H         -10.8990    6.6443   -2.3584 H       1  UNL1        0.1465
     50 H          -9.3204    5.2613    0.3199 H       1  UNL1        0.1593
     51 H          -6.8764   -0.9706    0.3880 H       1  UNL1        0.0632
     52 H          -3.6263   -2.2204    2.4083 H       1  UNL1        0.0624
     53 H          -3.4450   -4.6572    2.7976 H       1  UNL1        0.0618
     54 H          -4.3679   -6.2887    1.1414 H       1  UNL1        0.0618
     55 H          -5.4603   -5.3821   -0.8840 H       1  UNL1        0.0618
     56 H          -5.6232   -2.9839   -1.2393 H       1  UNL1        0.0624
     57 H          -2.5022   -2.0842   -1.4956 H       1  UNL1        0.0624
     58 H          -0.2300   -2.9950   -1.4243 H       1  UNL1        0.0621
     59 H           2.0365   -2.4722    1.3941 H       1  UNL1        0.0476
     60 H           1.6641   -3.4267   -0.0754 H       1  UNL1        0.0476
     61 H           1.9975    0.3619   -0.4947 H       1  UNL1        0.0427
     62 H           2.7391   -0.1816    1.1147 H       1  UNL1        0.0427
     63 H           4.1514    1.3150   -0.3044 H       1  UNL1        0.0284
     64 H           4.2715   -0.0142   -1.5131 H       1  UNL1        0.0284
     65 H           5.1654    0.1717    1.3659 H       1  UNL1        0.0380
     66 H           9.4781    1.7372    1.2775 H       1  UNL1        0.0640
     67 H          11.7083    2.7636    1.5926 H       1  UNL1        0.0619
     68 H          13.4687    2.1898   -0.1079 H       1  UNL1        0.0633
     69 H          12.9949    0.7043   -1.9600 H       1  UNL1        0.0830
     70 H           7.6036    0.9162    1.0722 H       1  UNL1        0.1686
     71 H           4.1986   -1.8916    1.6652 H       1  UNL1        0.0284
     72 H           5.6750   -2.4326    0.7836 H       1  UNL1        0.0284
     73 H           4.4627   -2.1037   -1.3924 H       1  UNL1        0.0427
     74 H           3.7149   -3.4079   -0.3286 H       1  UNL1        0.0427
     75 H           0.5511   -0.5740    2.0172 H       1  UNL1        0.0621
     76 H          -1.7396    0.3292    1.9266 H       1  UNL1        0.0624
     77 H          -4.0994    3.6104   -0.4708 H       1  UNL1        0.0654
     78 H          -6.3203    4.6647   -0.5789 H       1  UNL1        0.0815
@<TRIPOS>BOND
     1     1     2   am
     2     2     3    2
     3     2     4   am
     4     4     5    1
     5     5     6   ar
     6     6     7   ar
     7     7     8   ar
     8     8     9   ar
     9     9    10   ar
    10    10    11   ar
    11    11    12    1
    12    12    13   ar
    13    13    14   ar
    14    14    15   ar
    15    15    16   ar
    16    16    17   ar
    17    11    18   ar
    18    18    19    1
    19    19    20   ar
    20    20    21   ar
    21    21    22   ar
    22    22    23    1
    23    23    24    1
    24    24    25    1
    25    25    26    1
    26    26    27    1
    27    27    28    1
    28    28    29   ar
    29    29    30   ar
    30    30    31   ar
    31    31    32    1
    32    32    33   ar
    33    33    34   ar
    34    34    35   ar
    35    35    36   ar
    36    36    37   ar
    37    31    38   ar
    38    27    39    1
    39    39    40    1
    40    22    41   ar
    41    41    42   ar
    42    18    43   ar
    43    43    44   ar
    44    44    45   ar
    45    45    46   ar
    46    46    47   ar
    47    47     5   ar
    48    47     8   ar
    49    44     9   ar
    50    17    12   ar
    51    42    19   ar
    52    40    24    1
    53    38    28   ar
    54    37    32   ar
    55     1    48    1
    56     1    49    1
    57     4    50    1
    58    10    51    1
    59    13    52    1
    60    14    53    1
    61    15    54    1
    62    16    55    1
    63    17    56    1
    64    20    57    1
    65    21    58    1
    66    23    59    1
    67    23    60    1
    68    25    61    1
    69    25    62    1
    70    26    63    1
    71    26    64    1
    72    27    65    1
    73    33    66    1
    74    34    67    1
    75    35    68    1
    76    36    69    1
    77    38    70    1
    78    39    71    1
    79    39    72    1
    80    40    73    1
    81    40    74    1
    82    41    75    1
    83    42    76    1
    84    45    77    1
    85    46    78    1
