
     RDKit          3D

 78 85  0  0  0  0  0  0  0  0999 V2000
   -9.9415    6.4212   -2.0212 N   0  0  0  0  0  0  0  0  0  0  0  0
   -9.4523    5.1099   -1.7851 C   0  0  0  0  0  0  0  0  0  0  0  0
   -9.2444    4.2930   -2.7367 O   0  0  0  0  0  0  0  0  0  0  0  0
   -9.1603    4.6147   -0.4829 N   0  0  0  0  0  0  0  0  0  0  0  0
   -8.6703    3.2964   -0.2753 C   0  0  0  0  0  0  0  0  0  0  0  0
   -9.3920    2.1822   -0.0654 N   0  0  0  0  0  0  0  0  0  0  0  0
   -8.5750    1.1403    0.0850 N   0  0  0  0  0  0  0  0  0  0  0  0
   -7.2955    1.5757   -0.0279 C   0  0  0  0  0  0  0  0  0  0  0  0
   -6.0737    0.9484    0.0396 C   0  0  0  0  0  0  0  0  0  0  0  0
   -5.9864   -0.4032    0.2646 C   0  0  0  0  0  0  0  0  0  0  0  0
   -4.7433   -1.0377    0.3324 C   0  0  0  0  0  0  0  0  0  0  0  0
   -4.6296   -2.4653    0.5727 C   0  0  0  0  0  0  0  0  0  0  0  0
   -4.0188   -2.9299    1.7042 C   0  0  0  0  0  0  0  0  0  0  0  0
   -3.9281   -4.2989    1.9024 C   0  0  0  0  0  0  0  0  0  0  0  0
   -4.4332   -5.2192    0.9966 C   0  0  0  0  0  0  0  0  0  0  0  0
   -5.0452   -4.7272   -0.1380 C   0  0  0  0  0  0  0  0  0  0  0  0
   -5.1422   -3.3525   -0.3476 C   0  0  0  0  0  0  0  0  0  0  0  0
   -3.6169   -0.2688    0.1675 C   0  0  0  0  0  0  0  0  0  0  0  0
   -2.2617   -0.8198    0.2123 C   0  0  0  0  0  0  0  0  0  0  0  0
   -1.8161   -1.7492   -0.7118 C   0  0  0  0  0  0  0  0  0  0  0  0
   -0.5331   -2.2595   -0.6666 C   0  0  0  0  0  0  0  0  0  0  0  0
    0.3383   -1.8441    0.3159 C   0  0  0  0  0  0  0  0  0  0  0  0
    1.7004   -2.4043    0.3288 C   0  0  0  0  0  0  0  0  0  0  0  0
    2.6308   -1.6192   -0.4540 N   0  0  0  0  0  0  0  0  0  0  0  0
    2.7440   -0.2629    0.0242 C   0  0  0  0  0  0  0  0  0  0  0  0
    4.1156    0.2273   -0.4604 C   0  0  0  0  0  0  0  0  0  0  0  0
    5.1724   -0.4132    0.4149 C   0  0  0  0  0  0  0  0  0  0  0  0
    6.5231   -0.3667   -0.1991 C   0  0  0  0  0  0  0  0  0  0  0  0
    6.9117   -1.0120   -1.3102 N   0  0  0  0  0  0  0  0  0  0  0  0
    8.1995   -0.7293   -1.5611 N   0  0  0  0  0  0  0  0  0  0  0  0
    8.6411    0.0998   -0.6094 C   0  0  0  0  0  0  0  0  0  0  0  0
    9.9982    0.6754   -0.4827 C   0  0  0  0  0  0  0  0  0  0  0  0
   10.2655    1.5204    0.5724 C   0  0  0  0  0  0  0  0  0  0  0  0
   11.5076    2.0936    0.7506 C   0  0  0  0  0  0  0  0  0  0  0  0
   12.4749    1.7748   -0.1889 C   0  0  0  0  0  0  0  0  0  0  0  0
   12.2043    0.9206   -1.2551 C   0  0  0  0  0  0  0  0  0  0  0  0
   10.9588    0.3962   -1.3629 N   0  0  0  0  0  0  0  0  0  0  0  0
    7.6074    0.3158    0.2196 N   0  0  0  0  0  0  0  0  0  0  0  0
    4.7260   -1.8277    0.7035 C   0  0  0  0  0  0  0  0  0  0  0  0
    3.9021   -2.3085   -0.4574 C   0  0  0  0  0  0  0  0  0  0  0  0
   -0.1041   -0.9196    1.2361 C   0  0  0  0  0  0  0  0  0  0  0  0
   -1.3870   -0.3989    1.2041 C   0  0  0  0  0  0  0  0  0  0  0  0
   -3.6922    1.0707   -0.0557 N   0  0  0  0  0  0  0  0  0  0  0  0
   -4.9113    1.6637   -0.1173 C   0  0  0  0  0  0  0  0  0  0  0  0
   -5.0052    3.0184   -0.3427 C   0  0  0  0  0  0  0  0  0  0  0  0
   -6.2522    3.5905   -0.4001 C   0  0  0  0  0  0  0  0  0  0  0  0
   -7.3851    2.8873   -0.2461 N   0  0  0  0  0  0  0  0  0  0  0  0
   -9.2964    7.2181   -1.8447 H   0  0  0  0  0  0  0  0  0  0  0  0
  -10.8990    6.6443   -2.3584 H   0  0  0  0  0  0  0  0  0  0  0  0
   -9.3204    5.2613    0.3199 H   0  0  0  0  0  0  0  0  0  0  0  0
   -6.8764   -0.9706    0.3880 H   0  0  0  0  0  0  0  0  0  0  0  0
   -3.6263   -2.2204    2.4083 H   0  0  0  0  0  0  0  0  0  0  0  0
   -3.4450   -4.6572    2.7976 H   0  0  0  0  0  0  0  0  0  0  0  0
   -4.3679   -6.2887    1.1414 H   0  0  0  0  0  0  0  0  0  0  0  0
   -5.4603   -5.3821   -0.8840 H   0  0  0  0  0  0  0  0  0  0  0  0
   -5.6232   -2.9839   -1.2393 H   0  0  0  0  0  0  0  0  0  0  0  0
   -2.5022   -2.0842   -1.4956 H   0  0  0  0  0  0  0  0  0  0  0  0
   -0.2300   -2.9950   -1.4243 H   0  0  0  0  0  0  0  0  0  0  0  0
    2.0365   -2.4722    1.3941 H   0  0  0  0  0  0  0  0  0  0  0  0
    1.6641   -3.4267   -0.0754 H   0  0  0  0  0  0  0  0  0  0  0  0
    1.9975    0.3619   -0.4947 H   0  0  0  0  0  0  0  0  0  0  0  0
    2.7391   -0.1816    1.1147 H   0  0  0  0  0  0  0  0  0  0  0  0
    4.1514    1.3150   -0.3044 H   0  0  0  0  0  0  0  0  0  0  0  0
    4.2715   -0.0142   -1.5131 H   0  0  0  0  0  0  0  0  0  0  0  0
    5.1654    0.1717    1.3659 H   0  0  0  0  0  0  0  0  0  0  0  0
    9.4781    1.7372    1.2775 H   0  0  0  0  0  0  0  0  0  0  0  0
   11.7083    2.7636    1.5926 H   0  0  0  0  0  0  0  0  0  0  0  0
   13.4687    2.1898   -0.1079 H   0  0  0  0  0  0  0  0  0  0  0  0
   12.9949    0.7043   -1.9600 H   0  0  0  0  0  0  0  0  0  0  0  0
    7.6036    0.9162    1.0722 H   0  0  0  0  0  0  0  0  0  0  0  0
    4.1986   -1.8916    1.6652 H   0  0  0  0  0  0  0  0  0  0  0  0
    5.6750   -2.4326    0.7836 H   0  0  0  0  0  0  0  0  0  0  0  0
    4.4627   -2.1037   -1.3924 H   0  0  0  0  0  0  0  0  0  0  0  0
    3.7149   -3.4079   -0.3286 H   0  0  0  0  0  0  0  0  0  0  0  0
    0.5511   -0.5740    2.0172 H   0  0  0  0  0  0  0  0  0  0  0  0
   -1.7396    0.3292    1.9266 H   0  0  0  0  0  0  0  0  0  0  0  0
   -4.0994    3.6104   -0.4708 H   0  0  0  0  0  0  0  0  0  0  0  0
   -6.3203    4.6647   -0.5789 H   0  0  0  0  0  0  0  0  0  0  0  0
  1  2  1  0
  2  3  2  0
  2  4  1  0
  4  5  1  0
  5  6  2  0
  6  7  1  0
  7  8  2  0
  8  9  1  0
  9 10  2  0
 10 11  1  0
 11 12  1  0
 12 13  2  0
 13 14  1  0
 14 15  2  0
 15 16  1  0
 16 17  2  0
 11 18  2  0
 18 19  1  0
 19 20  2  0
 20 21  1  0
 21 22  2  0
 22 23  1  0
 23 24  1  0
 24 25  1  0
 25 26  1  0
 26 27  1  0
 27 28  1  0
 28 29  2  0
 29 30  1  0
 30 31  2  0
 31 32  1  0
 32 33  2  0
 33 34  1  0
 34 35  2  0
 35 36  1  0
 36 37  2  0
 31 38  1  0
 27 39  1  0
 39 40  1  0
 22 41  1  0
 41 42  2  0
 18 43  1  0
 43 44  2  0
 44 45  1  0
 45 46  2  0
 46 47  1  0
 47  5  1  0
 47  8  1  0
 44  9  1  0
 17 12  1  0
 42 19  1  0
 40 24  1  0
 38 28  1  0
 37 32  1  0
  1 48  1  0
  1 49  1  0
  4 50  1  0
 10 51  1  0
 13 52  1  0
 14 53  1  0
 15 54  1  0
 16 55  1  0
 17 56  1  0
 20 57  1  0
 21 58  1  0
 23 59  1  0
 23 60  1  0
 25 61  1  0
 25 62  1  0
 26 63  1  0
 26 64  1  0
 27 65  1  0
 33 66  1  0
 34 67  1  0
 35 68  1  0
 36 69  1  0
 38 70  1  0
 39 71  1  0
 39 72  1  0
 40 73  1  0
 40 74  1  0
 41 75  1  0
 42 76  1  0
 45 77  1  0
 46 78  1  0
M  END
$$$$
