@<TRIPOS>MOLECULE
*****
 35 36 0 0 0
SMALL
GASTEIGER

@<TRIPOS>ATOM
      1 F          -3.2792   -3.2365   -0.2312 F       1  UNL1       -0.1690
      2 C          -2.1307   -2.3749   -0.1202 C.3     1  UNL1        0.4052
      3 F          -1.4757   -2.5410   -1.3069 F       1  UNL1       -0.1690
      4 F          -1.4773   -2.8943    0.9585 F       1  UNL1       -0.1690
      5 C          -2.7527   -1.0339    0.0721 C.3     1  UNL1        0.1078
      6 N          -1.9591    0.1204    0.2185 N.pl3   1  UNL1       -0.3129
      7 C          -2.9323    1.1890    0.4371 C.3     1  UNL1        0.1078
      8 C          -3.7618    1.5665   -0.7305 C.3     1  UNL1        0.4052
      9 F          -2.9479    1.9817   -1.7725 F       1  UNL1       -0.1690
     10 F          -4.3963    2.7814   -0.3387 F       1  UNL1       -0.1690
     11 F          -4.7855    0.7560   -1.0810 F       1  UNL1       -0.1690
     12 C          -0.5811    0.4659    0.2179 C.ar    1  UNL1        0.0309
     13 C           0.4980   -0.3546    0.1252 C.ar    1  UNL1       -0.0310
     14 C           1.8234   -0.0182    0.0880 C.ar    1  UNL1        0.0119
     15 C           2.1290    1.3251    0.1519 C.ar    1  UNL1        0.0498
     16 N           3.4255    1.6956    0.1184 N.ar    1  UNL1       -0.3221
     17 C           4.4546    0.8374    0.0260 C.ar    1  UNL1        0.2497
     18 O           5.6501    1.2650   -0.0001 O.2     1  UNL1       -0.2679
     19 C           4.1727   -0.5047   -0.0388 C.ar    1  UNL1        0.0150
     20 C           2.8515   -0.9290   -0.0074 C.ar    1  UNL1        0.0690
     21 C           2.5553   -2.3671   -0.0790 C.3     1  UNL1        0.4182
     22 F           1.7829   -2.7007   -1.1736 F       1  UNL1       -0.1659
     23 F           3.7263   -3.0989   -0.2060 F       1  UNL1       -0.1659
     24 F           1.9134   -2.7763    1.0764 F       1  UNL1       -0.1659
     25 C           1.0848    2.2275    0.2478 C.ar    1  UNL1       -0.0360
     26 C          -0.2167    1.7890    0.2778 C.ar    1  UNL1       -0.0387
     27 H          -3.4172   -1.1307    0.9945 H       1  UNL1        0.0552
     28 H          -3.4819   -0.9553   -0.7982 H       1  UNL1        0.0552
     29 H          -3.6068    0.8513    1.2880 H       1  UNL1        0.0552
     30 H          -2.4553    2.0940    0.8305 H       1  UNL1        0.0552
     31 H           0.3647   -1.4116    0.0736 H       1  UNL1        0.0643
     32 H           3.6696    2.6979    0.1656 H       1  UNL1        0.1689
     33 H           4.9663   -1.2240   -0.1137 H       1  UNL1        0.0677
     34 H           1.4278    3.2566    0.2918 H       1  UNL1        0.0639
     35 H          -0.8383    2.6513    0.3383 H       1  UNL1        0.0637
@<TRIPOS>BOND
     1     1     2    1
     2     2     3    1
     3     2     4    1
     4     2     5    1
     5     5     6    1
     6     6     7    1
     7     7     8    1
     8     8     9    1
     9     8    10    1
    10     8    11    1
    11     6    12    1
    12    12    13   ar
    13    13    14   ar
    14    14    15   ar
    15    15    16   ar
    16    16    17   ar
    17    17    18    2
    18    17    19   ar
    19    19    20   ar
    20    20    21    1
    21    21    22    1
    22    21    23    1
    23    21    24    1
    24    15    25   ar
    25    25    26   ar
    26    26    12   ar
    27    20    14   ar
    28     5    27    1
    29     5    28    1
    30     7    29    1
    31     7    30    1
    32    13    31    1
    33    16    32    1
    34    19    33    1
    35    25    34    1
    36    26    35    1
