
     RDKit          3D

 54 56  0  0  0  0  0  0  0  0999 V2000
    7.9835   -0.5130   -0.1909 O   0  0  0  0  0  0  0  0  0  0  0  0
    7.2182   -0.4400   -1.4860 P   0  0  0  0  0  5  0  0  0  0  0  0
    7.6762    0.9308   -2.3573 O   0  0  0  0  0  1  0  0  0  0  0  0
    7.3797   -1.8625   -2.3408 O   0  0  0  0  0  1  0  0  0  0  0  0
    5.4191   -0.1828   -1.0665 C   0  0  0  0  0  0  0  0  0  0  0  0
    4.9008   -1.3832   -0.4094 C   0  0  0  0  0  0  0  0  0  0  0  0
    3.5110   -1.4768    0.0559 C   0  0  0  0  0  0  0  0  0  0  0  0
    3.0774   -0.5924    1.1570 C   0  0  0  0  0  0  0  0  0  0  0  0
    1.6378   -0.8401    1.4762 C   0  0  0  0  0  0  0  0  0  0  0  0
    1.2554   -1.7790    2.4106 C   0  0  0  0  0  0  0  0  0  0  0  0
   -0.0894   -1.9669    2.6634 C   0  0  0  0  0  0  0  0  0  0  0  0
   -1.0803   -1.2442    2.0108 C   0  0  0  0  0  0  0  0  0  0  0  0
   -0.6696   -0.3123    1.0818 C   0  0  0  0  0  0  0  0  0  0  0  0
   -1.5932    0.4650    0.3720 O   0  0  0  0  0  0  0  0  0  0  0  0
   -2.0962    0.0345   -0.8566 C   0  0  0  0  0  0  0  0  0  0  0  0
   -1.6556   -1.1946   -1.3688 C   0  0  0  0  0  0  0  0  0  0  0  0
   -2.1504   -1.6194   -2.5816 C   0  0  0  0  0  0  0  0  0  0  0  0
   -3.0498   -0.8716   -3.2804 C   0  0  0  0  0  0  0  0  0  0  0  0
   -3.4735    0.3285   -2.7694 C   0  0  0  0  0  0  0  0  0  0  0  0
   -3.0013    0.8059   -1.5407 C   0  0  0  0  0  0  0  0  0  0  0  0
   -3.4716    2.0981   -0.9956 C   0  0  0  0  0  0  0  0  0  0  0  0
   -4.4813    1.8816    0.0691 C   0  0  0  0  0  0  0  0  0  0  0  0
   -5.7939    1.6311   -0.3518 C   0  0  0  0  0  0  0  0  0  0  0  0
   -6.7607    1.4349    0.5919 C   0  0  0  0  0  0  0  0  0  0  0  0
   -6.4762    1.4775    1.9449 C   0  0  0  0  0  0  0  0  0  0  0  0
   -5.1959    1.7221    2.3472 C   0  0  0  0  0  0  0  0  0  0  0  0
   -4.2056    1.9230    1.4033 C   0  0  0  0  0  0  0  0  0  0  0  0
    0.6736   -0.1076    0.8128 C   0  0  0  0  0  0  0  0  0  0  0  0
    5.3295    1.3751   -0.3136 S   0  0  0  0  0  6  0  0  0  0  0  0
    4.0790    2.1542   -0.5602 O   0  0  0  0  0  0  0  0  0  0  0  0
    6.4092    2.2487   -1.0429 O   0  0  0  0  0  0  0  0  0  0  0  0
    5.8389    1.3348    1.2653 O   0  0  0  0  0  1  0  0  0  0  0  0
    4.9142   -0.0765   -2.0891 H   0  0  0  0  0  0  0  0  0  0  0  0
    5.0270   -2.2424   -1.1719 H   0  0  0  0  0  0  0  0  0  0  0  0
    5.6315   -1.7604    0.4009 H   0  0  0  0  0  0  0  0  0  0  0  0
    2.8582   -1.3673   -0.8662 H   0  0  0  0  0  0  0  0  0  0  0  0
    3.2442   -2.5388    0.3839 H   0  0  0  0  0  0  0  0  0  0  0  0
    3.2554    0.4579    1.1165 H   0  0  0  0  0  0  0  0  0  0  0  0
    3.6340   -0.9584    2.0853 H   0  0  0  0  0  0  0  0  0  0  0  0
    2.0172   -2.3663    2.9433 H   0  0  0  0  0  0  0  0  0  0  0  0
   -0.3831   -2.6968    3.3898 H   0  0  0  0  0  0  0  0  0  0  0  0
   -2.1351   -1.3986    2.2160 H   0  0  0  0  0  0  0  0  0  0  0  0
   -0.9432   -1.7453   -0.7740 H   0  0  0  0  0  0  0  0  0  0  0  0
   -1.8180   -2.5636   -2.9852 H   0  0  0  0  0  0  0  0  0  0  0  0
   -3.4665   -1.1707   -4.2436 H   0  0  0  0  0  0  0  0  0  0  0  0
   -4.1853    0.9433   -3.3001 H   0  0  0  0  0  0  0  0  0  0  0  0
   -3.9448    2.6716   -1.8278 H   0  0  0  0  0  0  0  0  0  0  0  0
   -2.6101    2.6871   -0.5640 H   0  0  0  0  0  0  0  0  0  0  0  0
   -6.0622    1.5887   -1.3907 H   0  0  0  0  0  0  0  0  0  0  0  0
   -7.7755    1.2414    0.2601 H   0  0  0  0  0  0  0  0  0  0  0  0
   -7.2527    1.3200    2.6719 H   0  0  0  0  0  0  0  0  0  0  0  0
   -4.9284    1.7641    3.3949 H   0  0  0  0  0  0  0  0  0  0  0  0
   -3.2118    2.1195    1.7671 H   0  0  0  0  0  0  0  0  0  0  0  0
    0.9902    0.6320    0.0763 H   0  0  0  0  0  0  0  0  0  0  0  0
  1  2  2  0
  2  3  1  0
  2  4  1  0
  2  5  1  0
  5  6  1  0
  6  7  1  0
  7  8  1  0
  8  9  1  0
  9 10  2  0
 10 11  1  0
 11 12  2  0
 12 13  1  0
 13 14  1  0
 14 15  1  0
 15 16  2  0
 16 17  1  0
 17 18  2  0
 18 19  1  0
 19 20  2  0
 20 21  1  0
 21 22  1  0
 22 23  2  0
 23 24  1  0
 24 25  2  0
 25 26  1  0
 26 27  2  0
 13 28  2  0
  5 29  1  0
 29 30  2  0
 29 31  2  0
 29 32  1  0
 28  9  1  0
 20 15  1  0
 27 22  1  0
  5 33  1  0
  6 34  1  0
  6 35  1  0
  7 36  1  0
  7 37  1  0
  8 38  1  0
  8 39  1  0
 10 40  1  0
 11 41  1  0
 12 42  1  0
 16 43  1  0
 17 44  1  0
 18 45  1  0
 19 46  1  0
 21 47  1  0
 21 48  1  0
 23 49  1  0
 24 50  1  0
 25 51  1  0
 26 52  1  0
 27 53  1  0
 28 54  1  0
M  CHG  3   3  -1   4  -1  32  -1
M  END
$$$$
