@<TRIPOS>MOLECULE
*****
 54 56 0 0 0
SMALL
GASTEIGER

@<TRIPOS>ATOM
      1 O           7.9835   -0.5130   -0.1909 O.2     1  UNL1       -0.4589
      2 P           7.2182   -0.4400   -1.4860 P.3     1  UNL1        0.1314
      3 O           7.6762    0.9308   -2.3573 O.co2   1  UNL1       -0.3563
      4 O           7.3797   -1.8625   -2.3408 O.co2   1  UNL1       -0.3563
      5 C           5.4191   -0.1828   -1.0665 C.3     1  UNL1        0.1187
      6 C           4.9008   -1.3832   -0.4094 C.3     1  UNL1       -0.0246
      7 C           3.5110   -1.4768    0.0559 C.3     1  UNL1       -0.0469
      8 C           3.0774   -0.5924    1.1570 C.3     1  UNL1       -0.0275
      9 C           1.6378   -0.8401    1.4762 C.ar    1  UNL1       -0.0439
     10 C           1.2554   -1.7790    2.4106 C.ar    1  UNL1       -0.0583
     11 C          -0.0894   -1.9669    2.6634 C.ar    1  UNL1       -0.0580
     12 C          -1.0803   -1.2442    2.0108 C.ar    1  UNL1       -0.0193
     13 C          -0.6696   -0.3123    1.0818 C.ar    1  UNL1        0.1287
     14 O          -1.5932    0.4650    0.3720 O.3     1  UNL1       -0.4557
     15 C          -2.0962    0.0345   -0.8566 C.ar    1  UNL1        0.1319
     16 C          -1.6556   -1.1946   -1.3688 C.ar    1  UNL1       -0.0190
     17 C          -2.1504   -1.6194   -2.5816 C.ar    1  UNL1       -0.0583
     18 C          -3.0498   -0.8716   -3.2804 C.ar    1  UNL1       -0.0613
     19 C          -3.4735    0.3285   -2.7694 C.ar    1  UNL1       -0.0548
     20 C          -3.0013    0.8059   -1.5407 C.ar    1  UNL1       -0.0008
     21 C          -3.4716    2.0981   -0.9956 C.3     1  UNL1        0.0011
     22 C          -4.4813    1.8816    0.0691 C.ar    1  UNL1       -0.0429
     23 C          -5.7939    1.6311   -0.3518 C.ar    1  UNL1       -0.0583
     24 C          -6.7607    1.4349    0.5919 C.ar    1  UNL1       -0.0615
     25 C          -6.4762    1.4775    1.9449 C.ar    1  UNL1       -0.0617
     26 C          -5.1959    1.7221    2.3472 C.ar    1  UNL1       -0.0615
     27 C          -4.2056    1.9230    1.4033 C.ar    1  UNL1       -0.0583
     28 C           0.6736   -0.1076    0.8128 C.ar    1  UNL1       -0.0162
     29 S           5.3295    1.3751   -0.3136 S.3     1  UNL1       -0.0708
     30 O           4.0790    2.1542   -0.5602 O.2     1  UNL1       -0.1846
     31 O           6.4092    2.2487   -1.0429 O.2     1  UNL1       -0.1846
     32 O           5.8389    1.3348    1.2653 O.co2   1  UNL1       -0.7240
     33 H           4.9142   -0.0765   -2.0891 H       1  UNL1        0.0604
     34 H           5.0270   -2.2424   -1.1719 H       1  UNL1        0.0288
     35 H           5.6315   -1.7604    0.4009 H       1  UNL1        0.0288
     36 H           2.8582   -1.3673   -0.8662 H       1  UNL1        0.0269
     37 H           3.2442   -2.5388    0.3839 H       1  UNL1        0.0269
     38 H           3.2554    0.4579    1.1165 H       1  UNL1        0.0313
     39 H           3.6340   -0.9584    2.0853 H       1  UNL1        0.0313
     40 H           2.0172   -2.3663    2.9433 H       1  UNL1        0.0620
     41 H          -0.3831   -2.6968    3.3898 H       1  UNL1        0.0619
     42 H          -2.1351   -1.3986    2.2160 H       1  UNL1        0.0654
     43 H          -0.9432   -1.7453   -0.7740 H       1  UNL1        0.0654
     44 H          -1.8180   -2.5636   -2.9852 H       1  UNL1        0.0619
     45 H          -3.4665   -1.1707   -4.2436 H       1  UNL1        0.0618
     46 H          -4.1853    0.9433   -3.3001 H       1  UNL1        0.0622
     47 H          -3.9448    2.6716   -1.8278 H       1  UNL1        0.0363
     48 H          -2.6101    2.6871   -0.5640 H       1  UNL1        0.0363
     49 H          -6.0622    1.5887   -1.3907 H       1  UNL1        0.0620
     50 H          -7.7755    1.2414    0.2601 H       1  UNL1        0.0618
     51 H          -7.2527    1.3200    2.6719 H       1  UNL1        0.0618
     52 H          -4.9284    1.7641    3.3949 H       1  UNL1        0.0618
     53 H          -3.2118    2.1195    1.7671 H       1  UNL1        0.0620
     54 H           0.9902    0.6320    0.0763 H       1  UNL1        0.0657
@<TRIPOS>UNITY_ATOM_ATTR
3 1
charge -1
4 1
charge -1
32 1
charge -1
@<TRIPOS>BOND
     1     1     2    2
     2     2     3    1
     3     2     4    1
     4     2     5    1
     5     5     6    1
     6     6     7    1
     7     7     8    1
     8     8     9    1
     9     9    10   ar
    10    10    11   ar
    11    11    12   ar
    12    12    13   ar
    13    13    14    1
    14    14    15    1
    15    15    16   ar
    16    16    17   ar
    17    17    18   ar
    18    18    19   ar
    19    19    20   ar
    20    20    21    1
    21    21    22    1
    22    22    23   ar
    23    23    24   ar
    24    24    25   ar
    25    25    26   ar
    26    26    27   ar
    27    13    28   ar
    28     5    29    1
    29    29    30    2
    30    29    31    2
    31    29    32    1
    32    28     9   ar
    33    20    15   ar
    34    27    22   ar
    35     5    33    1
    36     6    34    1
    37     6    35    1
    38     7    36    1
    39     7    37    1
    40     8    38    1
    41     8    39    1
    42    10    40    1
    43    11    41    1
    44    12    42    1
    45    16    43    1
    46    17    44    1
    47    18    45    1
    48    19    46    1
    49    21    47    1
    50    21    48    1
    51    23    49    1
    52    24    50    1
    53    25    51    1
    54    26    52    1
    55    27    53    1
    56    28    54    1
