
     RDKit          3D

 50 52  0  0  0  0  0  0  0  0999 V2000
   -0.0633    0.7433   -0.0979 C   0  0  1  0  0  0  0  0  0  0  0  0
    0.7310   -0.2401   -0.9213 C   0  0  0  0  0  0  0  0  0  0  0  0
    1.6238   -0.8865   -0.0898 O   0  0  0  0  0  0  0  0  0  0  0  0
    2.5630   -2.0181   -0.9457 P   0  0  0  0  0  0  0  0  0  0  0  0
    3.2410   -1.3267   -2.3400 O   0  0  0  0  0  0  0  0  0  0  0  0
    1.5971   -3.0867   -1.4203 O   0  0  0  0  0  0  0  0  0  0  0  0
    3.6960   -2.7405    0.0446 O   0  0  0  0  0  0  0  0  0  0  0  0
    5.1753   -1.9660    0.0907 P   0  0  0  0  0  0  0  0  0  0  0  0
    6.1498   -2.7808    1.2149 O   0  0  0  0  0  0  0  0  0  0  0  0
    5.8376   -2.0182   -1.2620 O   0  0  0  0  0  0  0  0  0  0  0  0
    4.9615   -0.2636    0.6670 C   0  0  0  0  0  0  0  0  0  0  0  0
    6.5092    0.6705    0.4253 P   0  0  0  0  0  0  0  0  0  0  0  0
    7.2016    0.2445   -1.0659 O   0  0  0  0  0  0  0  0  0  0  0  0
    6.1081    2.3125    0.3816 O   0  0  0  0  0  0  0  0  0  0  0  0
    7.4633    0.4763    1.5680 O   0  0  0  0  0  0  0  0  0  0  0  0
   -0.9983    1.4558   -0.8306 O   0  0  0  0  0  0  0  0  0  0  0  0
   -2.1330    1.6431   -0.0831 C   0  0  1  0  0  0  0  0  0  0  0  0
   -3.1488    0.7388   -0.5992 N   0  0  0  0  0  0  0  0  0  0  0  0
   -3.0389   -0.1770   -1.5911 C   0  0  0  0  0  0  0  0  0  0  0  0
   -4.1791   -0.8306   -1.7967 N   0  0  0  0  0  0  0  0  0  0  0  0
   -5.0994   -0.3490   -0.9196 C   0  0  0  0  0  0  0  0  0  0  0  0
   -4.4301    0.6173   -0.1966 C   0  0  0  0  0  0  0  0  0  0  0  0
   -5.1538    1.2353    0.7404 N   0  0  0  0  0  0  0  0  0  0  0  0
   -6.4447    0.9240    0.9508 C   0  0  0  0  0  0  0  0  0  0  0  0
   -7.1363    1.5326    1.8649 N   0  0  0  0  0  0  0  0  0  0  0  0
   -7.0603   -0.0221    0.2266 N   0  0  0  0  0  0  0  0  0  0  0  0
   -6.4121   -0.6918   -0.7328 C   0  0  0  0  0  0  0  0  0  0  0  0
   -6.9709   -1.6895   -1.5337 O   0  0  0  0  0  0  0  0  0  0  0  0
   -1.8246    1.1895    1.3318 C   0  0  2  0  0  0  0  0  0  0  0  0
   -1.1070    2.2152    1.9414 O   0  0  0  0  0  0  0  0  0  0  0  0
   -0.8478    0.0718    1.0094 C   0  0  2  0  0  0  0  0  0  0  0  0
   -0.0441   -0.2406    2.0988 O   0  0  0  0  0  0  0  0  0  0  0  0
    0.6178    1.4856    0.3660 H   0  0  0  0  0  0  0  0  0  0  0  0
    1.3512    0.3938   -1.6158 H   0  0  0  0  0  0  0  0  0  0  0  0
    0.1139   -0.8787   -1.5506 H   0  0  0  0  0  0  0  0  0  0  0  0
    3.3695   -0.3506   -2.2656 H   0  0  0  0  0  0  0  0  0  0  0  0
    5.8827   -3.7405    1.2791 H   0  0  0  0  0  0  0  0  0  0  0  0
    4.7273   -0.2686    1.7419 H   0  0  0  0  0  0  0  0  0  0  0  0
    4.1973    0.2307    0.0509 H   0  0  0  0  0  0  0  0  0  0  0  0
    7.5917    1.0600   -1.4718 H   0  0  0  0  0  0  0  0  0  0  0  0
    5.1373    2.4601    0.1755 H   0  0  0  0  0  0  0  0  0  0  0  0
   -2.4521    2.7029   -0.1403 H   0  0  0  0  0  0  0  0  0  0  0  0
   -2.1678   -0.3862   -2.1664 H   0  0  0  0  0  0  0  0  0  0  0  0
   -4.7291    1.9734    1.3283 H   0  0  0  0  0  0  0  0  0  0  0  0
   -8.1386    1.3098    2.0477 H   0  0  0  0  0  0  0  0  0  0  0  0
   -6.8275   -2.6460   -1.2325 H   0  0  0  0  0  0  0  0  0  0  0  0
   -2.6879    0.8473    1.8980 H   0  0  0  0  0  0  0  0  0  0  0  0
   -1.3846    3.1081    1.5928 H   0  0  0  0  0  0  0  0  0  0  0  0
   -1.3646   -0.7963    0.5668 H   0  0  0  0  0  0  0  0  0  0  0  0
   -0.0020   -1.2475    2.1250 H   0  0  0  0  0  0  0  0  0  0  0  0
  1  2  1  0
  2  3  1  0
  3  4  1  0
  4  5  1  0
  4  6  2  0
  4  7  1  0
  7  8  1  0
  8  9  1  0
  8 10  2  0
  8 11  1  0
 11 12  1  0
 12 13  1  0
 12 14  1  0
 12 15  2  0
  1 16  1  0
 16 17  1  0
 17 18  1  0
 18 19  1  0
 19 20  2  0
 20 21  1  0
 21 22  2  0
 22 23  1  0
 23 24  1  0
 24 25  2  3
 24 26  1  0
 26 27  2  0
 27 28  1  0
 17 29  1  0
 29 30  1  0
 29 31  1  0
 31 32  1  0
 31  1  1  0
 22 18  1  0
 27 21  1  0
  1 33  1  1
  2 34  1  0
  2 35  1  0
  5 36  1  0
  9 37  1  0
 11 38  1  0
 11 39  1  0
 13 40  1  0
 14 41  1  0
 17 42  1  1
 19 43  1  0
 23 44  1  0
 25 45  1  0
 28 46  1  0
 29 47  1  1
 30 48  1  0
 31 49  1  6
 32 50  1  0
M  END
$$$$
