@<TRIPOS>MOLECULE
*****
 50 52 0 0 0
SMALL
GASTEIGER

@<TRIPOS>ATOM
      1 C          -0.0633    0.7433   -0.0979 C.3     1  UNL1        0.1134
      2 C           0.7310   -0.2401   -0.9213 C.3     1  UNL1        0.0879
      3 O           1.6238   -0.8865   -0.0898 O.3     1  UNL1       -0.2837
      4 P           2.5630   -2.0181   -0.9457 P.3     1  UNL1        0.4819
      5 O           3.2410   -1.3267   -2.3400 O.3     1  UNL1       -0.3022
      6 O           1.5971   -3.0867   -1.4203 O.2     1  UNL1       -0.2269
      7 O           3.6960   -2.7405    0.0446 O.3     1  UNL1       -0.2077
      8 P           5.1753   -1.9660    0.0907 P.3     1  UNL1        0.3502
      9 O           6.1498   -2.7808    1.2149 O.3     1  UNL1       -0.3232
     10 O           5.8376   -2.0182   -1.2620 O.2     1  UNL1       -0.2576
     11 C           4.9615   -0.2636    0.6670 C.3     1  UNL1        0.1511
     12 P           6.5092    0.6705    0.4253 P.3     1  UNL1        0.3394
     13 O           7.2016    0.2445   -1.0659 O.3     1  UNL1       -0.3236
     14 O           6.1081    2.3125    0.3816 O.3     1  UNL1       -0.3236
     15 O           7.4633    0.4763    1.5680 O.2     1  UNL1       -0.2582
     16 O          -0.9983    1.4558   -0.8306 O.3     1  UNL1       -0.3456
     17 C          -2.1330    1.6431   -0.0831 C.3     1  UNL1        0.1666
     18 N          -3.1488    0.7388   -0.5992 N.ar    1  UNL1       -0.2869
     19 C          -3.0389   -0.1770   -1.5911 C.ar    1  UNL1        0.1004
     20 N          -4.1791   -0.8306   -1.7967 N.ar    1  UNL1       -0.2287
     21 C          -5.0994   -0.3490   -0.9196 C.ar    1  UNL1        0.1672
     22 C          -4.4301    0.6173   -0.1966 C.ar    1  UNL1        0.1483
     23 N          -5.1538    1.2353    0.7404 N.ar    1  UNL1       -0.3088
     24 C          -6.4447    0.9240    0.9508 C.ar    1  UNL1        0.2252
     25 N          -7.1363    1.5326    1.8649 N.2     1  UNL1       -0.2664
     26 N          -7.0603   -0.0221    0.2266 N.ar    1  UNL1       -0.1758
     27 C          -6.4121   -0.6918   -0.7328 C.ar    1  UNL1        0.2453
     28 O          -6.9709   -1.6895   -1.5337 O.3     1  UNL1       -0.4908
     29 C          -1.8246    1.1895    1.3318 C.3     1  UNL1        0.1285
     30 O          -1.1070    2.2152    1.9414 O.3     1  UNL1       -0.3847
     31 C          -0.8478    0.0718    1.0094 C.3     1  UNL1        0.1135
     32 O          -0.0441   -0.2406    2.0988 O.3     1  UNL1       -0.3864
     33 H           0.6178    1.4856    0.3660 H       1  UNL1        0.0647
     34 H           1.3512    0.3938   -1.6158 H       1  UNL1        0.0592
     35 H           0.1139   -0.8787   -1.5506 H       1  UNL1        0.0592
     36 H           3.3695   -0.3506   -2.2656 H       1  UNL1        0.2220
     37 H           5.8827   -3.7405    1.2791 H       1  UNL1        0.2198
     38 H           4.7273   -0.2686    1.7419 H       1  UNL1        0.0513
     39 H           4.1973    0.2307    0.0509 H       1  UNL1        0.0513
     40 H           7.5917    1.0600   -1.4718 H       1  UNL1        0.2198
     41 H           5.1373    2.4601    0.1755 H       1  UNL1        0.2198
     42 H          -2.4521    2.7029   -0.1403 H       1  UNL1        0.0866
     43 H          -2.1678   -0.3862   -2.1664 H       1  UNL1        0.1030
     44 H          -4.7291    1.9734    1.3283 H       1  UNL1        0.1703
     45 H          -8.1386    1.3098    2.0477 H       1  UNL1        0.1898
     46 H          -6.8275   -2.6460   -1.2325 H       1  UNL1        0.2938
     47 H          -2.6879    0.8473    1.8980 H       1  UNL1        0.0665
     48 H          -1.3846    3.1081    1.5928 H       1  UNL1        0.2101
     49 H          -1.3646   -0.7963    0.5668 H       1  UNL1        0.0647
     50 H          -0.0020   -1.2475    2.1250 H       1  UNL1        0.2100
@<TRIPOS>BOND
     1     1     2    1
     2     2     3    1
     3     3     4    1
     4     4     5    1
     5     4     6    2
     6     4     7    1
     7     7     8    1
     8     8     9    1
     9     8    10    2
    10     8    11    1
    11    11    12    1
    12    12    13    1
    13    12    14    1
    14    12    15    2
    15     1    16    1
    16    16    17    1
    17    17    18    1
    18    18    19   ar
    19    19    20   ar
    20    20    21   ar
    21    21    22   ar
    22    22    23   ar
    23    23    24   ar
    24    24    25    2
    25    24    26   ar
    26    26    27   ar
    27    27    28    1
    28    17    29    1
    29    29    30    1
    30    29    31    1
    31    31    32    1
    32    31     1    1
    33    22    18   ar
    34    27    21   ar
    35     1    33    1
    36     2    34    1
    37     2    35    1
    38     5    36    1
    39     9    37    1
    40    11    38    1
    41    11    39    1
    42    13    40    1
    43    14    41    1
    44    17    42    1
    45    19    43    1
    46    23    44    1
    47    25    45    1
    48    28    46    1
    49    29    47    1
    50    30    48    1
    51    31    49    1
    52    32    50    1
