@<TRIPOS>MOLECULE
*****
 54 57 0 0 0
SMALL
GASTEIGER

@<TRIPOS>ATOM
      1 C           4.6659    1.3530   -2.2405 C.3     1  UNL1       -0.0500
      2 C           3.5187    1.4384   -1.2524 C.3     1  UNL1        0.0579
      3 C           2.4071    0.6082   -1.7642 C.2     1  UNL1        0.2228
      4 O           2.5970   -0.0452   -2.8265 O.2     1  UNL1       -0.2749
      5 N           1.1627    0.5345   -1.1011 N.am    1  UNL1       -0.2993
      6 C           0.8670    1.2560    0.1113 C.3     1  UNL1        0.0035
      7 C           0.1098   -0.3057   -1.6430 C.3     1  UNL1        0.0440
      8 C          -1.0594    0.4916   -2.1202 C.3     1  UNL1       -0.0273
      9 C          -2.2444   -0.4765   -2.2157 C.3     1  UNL1       -0.0102
     10 C          -2.5639   -0.8276   -0.8037 C.ar    1  UNL1        0.0250
     11 C          -3.7181   -0.8227   -0.0604 C.ar    1  UNL1       -0.0067
     12 C          -5.0877   -0.4490   -0.4915 C.3     1  UNL1        0.0722
     13 C          -5.2771    1.0259   -0.6064 C.2     1  UNL1        0.3091
     14 O          -4.3600    1.8599   -0.3633 O.2     1  UNL1       -0.2507
     15 O          -6.5406    1.4519   -1.0030 O.3     1  UNL1       -0.4804
     16 C          -3.3525   -1.2473    1.2027 C.ar    1  UNL1        0.0228
     17 C          -4.0702   -1.4453    2.3789 C.ar    1  UNL1       -0.0493
     18 C          -3.3792   -1.8806    3.4659 C.ar    1  UNL1       -0.0429
     19 C          -2.0219   -2.1295    3.4516 C.ar    1  UNL1        0.0299
     20 N          -1.3573   -1.9327    2.3143 N.ar    1  UNL1       -0.2373
     21 C          -2.0177   -1.5021    1.2241 C.ar    1  UNL1        0.1412
     22 N          -1.5415   -1.2357   -0.0348 N.ar    1  UNL1       -0.3270
     23 C          -0.2170   -1.3357   -0.6036 C.3     1  UNL1        0.0435
     24 C           3.9109    0.9097    0.0779 C.ar    1  UNL1       -0.0356
     25 C           3.8968    1.7054    1.2020 C.ar    1  UNL1       -0.0551
     26 C           4.2625    1.2245    2.4465 C.ar    1  UNL1       -0.0262
     27 C           4.6596   -0.0878    2.6065 C.ar    1  UNL1        0.1234
     28 F           5.0223   -0.5705    3.8316 F       1  UNL1       -0.2055
     29 C           4.6767   -0.8950    1.4811 C.ar    1  UNL1       -0.0262
     30 C           4.3109   -0.4074    0.2473 C.ar    1  UNL1       -0.0551
     31 H           5.5735    1.8679   -1.8924 H       1  UNL1        0.0240
     32 H           4.3272    1.8508   -3.1661 H       1  UNL1        0.0240
     33 H           4.8379    0.2831   -2.4744 H       1  UNL1        0.0240
     34 H           3.1971    2.4978   -1.1027 H       1  UNL1        0.0440
     35 H          -0.2479    1.4007    0.2334 H       1  UNL1        0.0429
     36 H           1.2868    2.2817    0.1127 H       1  UNL1        0.0429
     37 H           1.1798    0.7270    1.0167 H       1  UNL1        0.0429
     38 H           0.5368   -0.7881   -2.5777 H       1  UNL1        0.0518
     39 H          -1.3756    1.3073   -1.4591 H       1  UNL1        0.0287
     40 H          -0.8884    0.8664   -3.1535 H       1  UNL1        0.0287
     41 H          -3.0903   -0.0501   -2.7604 H       1  UNL1        0.0328
     42 H          -1.8944   -1.3861   -2.7519 H       1  UNL1        0.0328
     43 H          -5.1902   -0.8372   -1.5484 H       1  UNL1        0.0427
     44 H          -5.8819   -0.9496    0.0733 H       1  UNL1        0.0427
     45 H          -6.6730    2.4209   -1.2970 H       1  UNL1        0.2951
     46 H          -5.1260   -1.2405    2.3493 H       1  UNL1        0.0625
     47 H          -3.9309   -2.0382    4.3909 H       1  UNL1        0.0633
     48 H          -1.5370   -2.4792    4.3704 H       1  UNL1        0.0830
     49 H          -0.0375   -2.3347   -1.0637 H       1  UNL1        0.0511
     50 H           0.4994   -1.2837    0.2716 H       1  UNL1        0.0511
     51 H           3.5937    2.7601    1.1566 H       1  UNL1        0.0621
     52 H           4.2452    1.8746    3.3342 H       1  UNL1        0.0646
     53 H           4.9950   -1.9334    1.6292 H       1  UNL1        0.0646
     54 H           4.3412   -1.0804   -0.6025 H       1  UNL1        0.0621
@<TRIPOS>BOND
     1     1     2    1
     2     2     3    1
     3     3     4    2
     4     3     5   am
     5     5     6    1
     6     5     7    1
     7     7     8    1
     8     8     9    1
     9     9    10    1
    10    10    11   ar
    11    11    12    1
    12    12    13    1
    13    13    14    2
    14    13    15    1
    15    11    16   ar
    16    16    17   ar
    17    17    18   ar
    18    18    19   ar
    19    19    20   ar
    20    20    21   ar
    21    21    22   ar
    22    22    23    1
    23     2    24    1
    24    24    25   ar
    25    25    26   ar
    26    26    27   ar
    27    27    28    1
    28    27    29   ar
    29    29    30   ar
    30    23     7    1
    31    30    24   ar
    32    22    10   ar
    33    21    16   ar
    34     1    31    1
    35     1    32    1
    36     1    33    1
    37     2    34    1
    38     6    35    1
    39     6    36    1
    40     6    37    1
    41     7    38    1
    42     8    39    1
    43     8    40    1
    44     9    41    1
    45     9    42    1
    46    12    43    1
    47    12    44    1
    48    15    45    1
    49    17    46    1
    50    18    47    1
    51    19    48    1
    52    23    49    1
    53    23    50    1
    54    25    51    1
    55    26    52    1
    56    29    53    1
    57    30    54    1
