@<TRIPOS>MOLECULE
*****
 67 71 0 0 0
SMALL
GASTEIGER

@<TRIPOS>ATOM
      1 C           8.9581    4.0673   -0.5147 C.3     1  UNL1        0.0805
      2 O           8.0814    3.0478   -0.0480 O.3     1  UNL1       -0.4774
      3 C           7.9524    1.8545   -0.7290 C.ar    1  UNL1        0.2552
      4 N           8.5772    1.4722   -1.8505 N.ar    1  UNL1       -0.1317
      5 N           8.1926    0.2656   -2.1938 N.ar    1  UNL1       -0.2692
      6 C           8.6397   -0.5125   -3.3540 C.3     1  UNL1        0.0304
      7 C           7.2945   -0.1728   -1.2889 C.ar    1  UNL1        0.0503
      8 C           7.1129    0.8068   -0.3397 C.ar    1  UNL1        0.1152
      9 N           6.2597    0.7536    0.7978 N.pl3   1  UNL1       -0.2782
     10 C           5.4922   -0.4063    1.0271 C.ar    1  UNL1        0.2202
     11 N           6.1584   -1.5549    1.2490 N.ar    1  UNL1       -0.2215
     12 C           5.4361   -2.6728    1.4953 C.ar    1  UNL1        0.0472
     13 C           4.0526   -2.6267    1.5173 C.ar    1  UNL1        0.0621
     14 BR          2.9678   -4.1569    1.8548 Br      1  UNL1       -0.0465
     15 C           3.3720   -1.4360    1.2874 C.ar    1  UNL1        0.0920
     16 C           1.9238   -1.3387    1.3208 C.ar    1  UNL1        0.0266
     17 C           1.0961   -1.7019    2.3545 C.ar    1  UNL1        0.0120
     18 N          -0.1865   -1.4396    2.0205 N.ar    1  UNL1       -0.3586
     19 C          -0.2228   -0.9023    0.7694 C.ar    1  UNL1        0.0686
     20 C          -1.2804   -0.4635   -0.0173 C.ar    1  UNL1        0.0576
     21 N          -2.5860   -0.5626    0.5248 N.am    1  UNL1       -0.2825
     22 C          -3.7811   -0.0870   -0.0544 C.2     1  UNL1        0.2342
     23 O          -3.7238    0.4937   -1.1620 O.2     1  UNL1       -0.2738
     24 C          -5.1225   -0.2362    0.5896 C.3     1  UNL1        0.0848
     25 C          -5.0808   -1.0891    1.8353 C.3     1  UNL1       -0.0409
     26 N          -5.7842    0.9776    0.8463 N.3     1  UNL1       -0.2893
     27 C          -6.0539    1.8844   -0.2010 C.3     1  UNL1        0.0124
     28 C          -7.4059    1.5854   -0.8473 C.3     1  UNL1        0.0114
     29 N          -7.7768    0.2188   -0.5789 N.3     1  UNL1       -0.3029
     30 C          -8.8057   -0.2495   -1.4706 C.3     1  UNL1       -0.0127
     31 C          -8.0767    0.0560    0.8180 C.3     1  UNL1        0.0114
     32 C          -6.9888    0.7553    1.6216 C.3     1  UNL1        0.0124
     33 C          -0.9440    0.0291   -1.2449 C.ar    1  UNL1       -0.0384
     34 C           0.3661    0.1054   -1.7177 C.ar    1  UNL1       -0.0593
     35 C           1.4009   -0.3382   -0.9113 C.ar    1  UNL1       -0.0518
     36 C           1.1033   -0.8418    0.3343 C.ar    1  UNL1        0.0107
     37 N           4.1380   -0.3470    1.0450 N.ar    1  UNL1       -0.2130
     38 H           9.1251    4.8154    0.2761 H       1  UNL1        0.0660
     39 H           8.5632    4.5584   -1.4096 H       1  UNL1        0.0660
     40 H           9.9381    3.5507   -0.6846 H       1  UNL1        0.0660
     41 H           9.2112    0.1690   -3.9901 H       1  UNL1        0.0473
     42 H           9.2491   -1.3884   -3.0500 H       1  UNL1        0.0473
     43 H           7.6935   -0.8561   -3.8663 H       1  UNL1        0.0473
     44 H           6.7784   -1.1182   -1.2698 H       1  UNL1        0.0846
     45 H           6.2222    1.5847    1.4409 H       1  UNL1        0.1552
     46 H           5.9315   -3.6060    1.6781 H       1  UNL1        0.0842
     47 H           1.4413   -2.1395    3.3037 H       1  UNL1        0.0814
     48 H          -1.0303   -1.6057    2.5949 H       1  UNL1        0.1654
     49 H          -2.7275   -1.0326    1.4773 H       1  UNL1        0.1549
     50 H          -5.6953   -0.8875   -0.1588 H       1  UNL1        0.0556
     51 H          -6.0885   -1.5802    2.0044 H       1  UNL1        0.0249
     52 H          -4.7185   -0.5723    2.7307 H       1  UNL1        0.0249
     53 H          -4.4324   -1.9842    1.5723 H       1  UNL1        0.0249
     54 H          -6.2304    2.8947    0.3064 H       1  UNL1        0.0439
     55 H          -5.2811    2.0931   -0.9321 H       1  UNL1        0.0439
     56 H          -7.3210    1.7471   -1.9470 H       1  UNL1        0.0439
     57 H          -8.2164    2.2263   -0.4417 H       1  UNL1        0.0439
     58 H          -9.7713   -0.2536   -0.9506 H       1  UNL1        0.0391
     59 H          -8.4954   -1.2415   -1.8678 H       1  UNL1        0.0391
     60 H          -8.7891    0.4437   -2.3544 H       1  UNL1        0.0391
     61 H          -9.0769    0.5457    0.9797 H       1  UNL1        0.0439
     62 H          -8.2075   -0.9958    1.1171 H       1  UNL1        0.0439
     63 H          -7.4296    1.7347    1.9586 H       1  UNL1        0.0439
     64 H          -6.7437    0.2182    2.5434 H       1  UNL1        0.0439
     65 H          -1.6894    0.3845   -1.9176 H       1  UNL1        0.0637
     66 H           0.5898    0.5003   -2.6991 H       1  UNL1        0.0618
     67 H           2.4449   -0.3021   -1.2286 H       1  UNL1        0.0624
@<TRIPOS>BOND
     1     1     2    1
     2     2     3    1
     3     3     4   ar
     4     4     5   ar
     5     5     6    1
     6     5     7   ar
     7     7     8   ar
     8     8     9    1
     9     9    10    1
    10    10    11   ar
    11    11    12   ar
    12    12    13   ar
    13    13    14    1
    14    13    15   ar
    15    15    16    1
    16    16    17   ar
    17    17    18   ar
    18    18    19   ar
    19    19    20   ar
    20    20    21    1
    21    21    22   am
    22    22    23    2
    23    22    24    1
    24    24    25    1
    25    24    26    1
    26    26    27    1
    27    27    28    1
    28    28    29    1
    29    29    30    1
    30    29    31    1
    31    31    32    1
    32    20    33   ar
    33    33    34   ar
    34    34    35   ar
    35    35    36   ar
    36    15    37   ar
    37     8     3   ar
    38    37    10   ar
    39    36    16   ar
    40    36    19   ar
    41    32    26    1
    42     1    38    1
    43     1    39    1
    44     1    40    1
    45     6    41    1
    46     6    42    1
    47     6    43    1
    48     7    44    1
    49     9    45    1
    50    12    46    1
    51    17    47    1
    52    18    48    1
    53    21    49    1
    54    24    50    1
    55    25    51    1
    56    25    52    1
    57    25    53    1
    58    27    54    1
    59    27    55    1
    60    28    56    1
    61    28    57    1
    62    30    58    1
    63    30    59    1
    64    30    60    1
    65    31    61    1
    66    31    62    1
    67    32    63    1
    68    32    64    1
    69    33    65    1
    70    34    66    1
    71    35    67    1
