
     RDKit          3D

 58 62  0  0  0  0  0  0  0  0999 V2000
  -10.0181    0.3115    4.5123 C   0  0  0  0  0  0  0  0  0  0  0  0
   -8.8755    0.1464    4.0005 C   0  0  0  0  0  0  0  0  0  0  0  0
   -7.5641   -0.0392    3.4308 C   0  0  0  0  0  0  0  0  0  0  0  0
   -7.3052   -1.1732    2.6654 C   0  0  0  0  0  0  0  0  0  0  0  0
   -6.0879   -1.3704    2.1165 N   0  0  0  0  0  0  0  0  0  0  0  0
   -5.0837   -0.4966    2.3103 C   0  0  0  0  0  0  0  0  0  0  0  0
   -3.8171   -0.7082    1.5799 C   0  0  0  0  0  0  0  0  0  0  0  0
   -2.6634   -0.2013    2.0713 F   0  0  0  0  0  0  0  0  0  0  0  0
   -3.7845   -1.4159    0.4892 C   0  0  0  0  0  0  0  0  0  0  0  0
   -2.6642   -1.7409   -0.3664 C   0  0  0  0  0  0  0  0  0  0  0  0
   -2.8374   -2.8199   -1.2338 C   0  0  0  0  0  0  0  0  0  0  0  0
   -1.8367   -3.1491   -2.0892 C   0  0  0  0  0  0  0  0  0  0  0  0
   -0.6535   -2.4562   -2.1214 C   0  0  0  0  0  0  0  0  0  0  0  0
    0.3374   -2.7854   -2.9954 F   0  0  0  0  0  0  0  0  0  0  0  0
   -0.4252   -1.3617   -1.2797 C   0  0  0  0  0  0  0  0  0  0  0  0
    0.8386   -0.5890   -1.3614 C   0  0  1  0  0  0  0  0  0  0  0  0
    1.9085   -1.7369   -1.4790 C   0  0  0  0  0  0  0  0  0  0  0  0
    0.9209   -0.0183   -2.6779 N   0  0  0  0  0  0  0  0  0  0  0  0
    1.4013    1.0410   -3.0950 C   0  0  0  0  0  0  0  0  0  0  0  0
    1.3583    1.3988   -4.4710 N   0  0  0  0  0  0  0  0  0  0  0  0
    2.1853    2.1499   -1.9128 S   0  0  0  0  0  0  0  0  0  0  0  0
    2.0054    1.3715   -0.3174 C   0  0  1  0  0  0  0  0  0  0  0  0
    3.1245    1.5973    0.6542 C   0  0  0  0  0  0  0  0  0  0  0  0
    2.8546    1.9510    1.8263 O   0  0  0  0  0  0  0  0  0  0  0  0
    4.5024    1.4336    0.3115 N   0  0  0  0  0  0  0  0  0  0  0  0
    5.4679    1.6800    1.3689 C   0  0  0  0  0  0  0  0  0  0  0  0
    6.7690    2.0833    0.7179 C   0  0  0  0  0  0  0  0  0  0  0  0
    7.1729    0.9642   -0.0379 O   0  0  0  0  0  0  0  0  0  0  0  0
    6.4228    0.9772   -1.1965 C   0  0  0  0  0  0  0  0  0  0  0  0
    4.9481    1.0709   -1.0049 C   0  0  0  0  0  0  0  0  0  0  0  0
    0.5744    1.4940    0.2302 C   0  0  0  0  0  0  0  0  0  0  0  0
    1.2103    0.1811   -0.1827 C   0  0  1  0  0  0  0  0  0  0  0  0
   -1.4659   -1.0526   -0.4210 C   0  0  0  0  0  0  0  0  0  0  0  0
   -5.3334    0.6205    3.0754 C   0  0  0  0  0  0  0  0  0  0  0  0
   -6.5512    0.8225    3.6136 N   0  0  0  0  0  0  0  0  0  0  0  0
  -10.8939    0.4254    4.9115 H   0  0  0  0  0  0  0  0  0  0  0  0
   -8.0870   -1.8900    2.4916 H   0  0  0  0  0  0  0  0  0  0  0  0
   -4.8056   -1.8565    0.1963 H   0  0  0  0  0  0  0  0  0  0  0  0
   -3.7923   -3.4023   -1.2417 H   0  0  0  0  0  0  0  0  0  0  0  0
   -1.9612   -3.9861   -2.7714 H   0  0  0  0  0  0  0  0  0  0  0  0
    1.4768   -2.6837   -1.0389 H   0  0  0  0  0  0  0  0  0  0  0  0
    2.3119   -1.8406   -2.4674 H   0  0  0  0  0  0  0  0  0  0  0  0
    2.7027   -1.4883   -0.7700 H   0  0  0  0  0  0  0  0  0  0  0  0
    2.2305    1.5864   -5.0378 H   0  0  0  0  0  0  0  0  0  0  0  0
    0.4063    1.4927   -4.9045 H   0  0  0  0  0  0  0  0  0  0  0  0
    5.6431    0.7107    1.8886 H   0  0  0  0  0  0  0  0  0  0  0  0
    5.1267    2.4082    2.1358 H   0  0  0  0  0  0  0  0  0  0  0  0
    7.5640    2.3100    1.4538 H   0  0  0  0  0  0  0  0  0  0  0  0
    6.6321    2.9456    0.0002 H   0  0  0  0  0  0  0  0  0  0  0  0
    6.6450   -0.0294   -1.7299 H   0  0  0  0  0  0  0  0  0  0  0  0
    6.8389    1.7410   -1.9054 H   0  0  0  0  0  0  0  0  0  0  0  0
    4.4622    0.1035   -1.3473 H   0  0  0  0  0  0  0  0  0  0  0  0
    4.6148    1.9017   -1.7186 H   0  0  0  0  0  0  0  0  0  0  0  0
    0.5617    1.7441    1.3217 H   0  0  0  0  0  0  0  0  0  0  0  0
   -0.2194    1.8537   -0.4157 H   0  0  0  0  0  0  0  0  0  0  0  0
    1.3961   -0.4557    0.7426 H   0  0  0  0  0  0  0  0  0  0  0  0
   -1.3542   -0.2222    0.2783 H   0  0  0  0  0  0  0  0  0  0  0  0
   -4.5345    1.3294    3.1978 H   0  0  0  0  0  0  0  0  0  0  0  0
  1  2  3  0
  2  3  1  0
  3  4  2  0
  4  5  1  0
  5  6  2  0
  6  7  1  0
  7  8  1  0
  7  9  2  0
  9 10  1  0
 10 11  2  0
 11 12  1  0
 12 13  2  0
 13 14  1  0
 13 15  1  0
 15 16  1  0
 16 17  1  6
 16 18  1  0
 18 19  2  0
 19 20  1  0
 19 21  1  0
 21 22  1  0
 22 23  1  1
 23 24  2  0
 23 25  1  0
 25 26  1  0
 26 27  1  0
 27 28  1  0
 28 29  1  0
 29 30  1  0
 22 31  1  0
 31 32  1  0
 15 33  2  0
  6 34  1  0
 34 35  2  0
 35  3  1  0
 33 10  1  0
 32 16  1  0
 32 22  1  0
 30 25  1  0
  1 36  1  0
  4 37  1  0
  9 38  1  0
 11 39  1  0
 12 40  1  0
 17 41  1  0
 17 42  1  0
 17 43  1  0
 20 44  1  0
 20 45  1  0
 26 46  1  0
 26 47  1  0
 27 48  1  0
 27 49  1  0
 29 50  1  0
 29 51  1  0
 30 52  1  0
 30 53  1  0
 31 54  1  0
 31 55  1  0
 32 56  1  1
 33 57  1  0
 34 58  1  0
M  END
$$$$
