@<TRIPOS>MOLECULE
*****
 58 62 0 0 0
SMALL
GASTEIGER

@<TRIPOS>ATOM
      1 C         -10.0181    0.3115    4.5123 C.1     1  UNL1       -0.1124
      2 C          -8.8755    0.1464    4.0005 C.1     1  UNL1       -0.0483
      3 C          -7.5641   -0.0392    3.4308 C.ar    1  UNL1        0.1312
      4 C          -7.3052   -1.1732    2.6654 C.ar    1  UNL1        0.0622
      5 N          -6.0879   -1.3704    2.1165 N.ar    1  UNL1       -0.2484
      6 C          -5.0837   -0.4966    2.3103 C.ar    1  UNL1        0.1170
      7 C          -3.8171   -0.7082    1.5799 C.2     1  UNL1        0.1506
      8 F          -2.6634   -0.2013    2.0713 F       1  UNL1       -0.2032
      9 C          -3.7845   -1.4159    0.4892 C.2     1  UNL1       -0.0171
     10 C          -2.6642   -1.7409   -0.3664 C.ar    1  UNL1       -0.0217
     11 C          -2.8374   -2.8199   -1.2338 C.ar    1  UNL1       -0.0518
     12 C          -1.8367   -3.1491   -2.0892 C.ar    1  UNL1       -0.0255
     13 C          -0.6535   -2.4562   -2.1214 C.ar    1  UNL1        0.1289
     14 F           0.3374   -2.7854   -2.9954 F       1  UNL1       -0.2051
     15 C          -0.4252   -1.3617   -1.2797 C.ar    1  UNL1        0.0158
     16 C           0.8386   -0.5890   -1.3614 C.3     1  UNL1        0.0935
     17 C           1.9085   -1.7369   -1.4790 C.3     1  UNL1       -0.0351
     18 N           0.9209   -0.0183   -2.6779 N.2     1  UNL1       -0.2521
     19 C           1.4013    1.0410   -3.0950 C.2     1  UNL1        0.1485
     20 N           1.3583    1.3988   -4.4710 N.pl3   1  UNL1       -0.3380
     21 S           2.1853    2.1499   -1.9128 S.3     1  UNL1       -0.0746
     22 C           2.0054    1.3715   -0.3174 C.3     1  UNL1        0.1054
     23 C           3.1245    1.5973    0.6542 C.2     1  UNL1        0.2326
     24 O           2.8546    1.9510    1.8263 O.2     1  UNL1       -0.2741
     25 N           4.5024    1.4336    0.3115 N.am    1  UNL1       -0.2960
     26 C           5.4679    1.6800    1.3689 C.3     1  UNL1        0.0382
     27 C           6.7690    2.0833    0.7179 C.3     1  UNL1        0.0635
     28 O           7.1729    0.9642   -0.0379 O.3     1  UNL1       -0.3767
     29 C           6.4228    0.9772   -1.1965 C.3     1  UNL1        0.0635
     30 C           4.9481    1.0709   -1.0049 C.3     1  UNL1        0.0382
     31 C           0.5744    1.4940    0.2302 C.3     1  UNL1       -0.0220
     32 C           1.2103    0.1811   -0.1827 C.3     1  UNL1        0.0134
     33 C          -1.4659   -1.0526   -0.4210 C.ar    1  UNL1       -0.0463
     34 C          -5.3334    0.6205    3.0754 C.ar    1  UNL1        0.0572
     35 N          -6.5512    0.8225    3.6136 N.ar    1  UNL1       -0.2430
     36 H         -10.8939    0.4254    4.9115 H       1  UNL1        0.1232
     37 H          -8.0870   -1.8900    2.4916 H       1  UNL1        0.0858
     38 H          -4.8056   -1.8565    0.1963 H       1  UNL1        0.0653
     39 H          -3.7923   -3.4023   -1.2417 H       1  UNL1        0.0624
     40 H          -1.9612   -3.9861   -2.7714 H       1  UNL1        0.0646
     41 H           1.4768   -2.6837   -1.0389 H       1  UNL1        0.0256
     42 H           2.3119   -1.8406   -2.4674 H       1  UNL1        0.0256
     43 H           2.7027   -1.4883   -0.7700 H       1  UNL1        0.0256
     44 H           2.2305    1.5864   -5.0378 H       1  UNL1        0.1442
     45 H           0.4063    1.4927   -4.9045 H       1  UNL1        0.1442
     46 H           5.6431    0.7107    1.8886 H       1  UNL1        0.0487
     47 H           5.1267    2.4082    2.1358 H       1  UNL1        0.0487
     48 H           7.5640    2.3100    1.4538 H       1  UNL1        0.0575
     49 H           6.6321    2.9456    0.0002 H       1  UNL1        0.0575
     50 H           6.6450   -0.0294   -1.7299 H       1  UNL1        0.0575
     51 H           6.8389    1.7410   -1.9054 H       1  UNL1        0.0575
     52 H           4.4622    0.1035   -1.3473 H       1  UNL1        0.0487
     53 H           4.6148    1.9017   -1.7186 H       1  UNL1        0.0487
     54 H           0.5617    1.7441    1.3217 H       1  UNL1        0.0287
     55 H          -0.2194    1.8537   -0.4157 H       1  UNL1        0.0287
     56 H           1.3961   -0.4557    0.7426 H       1  UNL1        0.0346
     57 H          -1.3542   -0.2222    0.2783 H       1  UNL1        0.0628
     58 H          -4.5345    1.3294    3.1978 H       1  UNL1        0.0852
@<TRIPOS>BOND
     1     1     2    3
     2     2     3    1
     3     3     4   ar
     4     4     5   ar
     5     5     6   ar
     6     6     7    1
     7     7     8    1
     8     7     9    2
     9     9    10    1
    10    10    11   ar
    11    11    12   ar
    12    12    13   ar
    13    13    14    1
    14    13    15   ar
    15    15    16    1
    16    16    17    1
    17    16    18    1
    18    18    19    2
    19    19    20    1
    20    19    21    1
    21    21    22    1
    22    22    23    1
    23    23    24    2
    24    23    25   am
    25    25    26    1
    26    26    27    1
    27    27    28    1
    28    28    29    1
    29    29    30    1
    30    22    31    1
    31    31    32    1
    32    15    33   ar
    33     6    34   ar
    34    34    35   ar
    35    35     3   ar
    36    33    10   ar
    37    32    16    1
    38    32    22    1
    39    30    25    1
    40     1    36    1
    41     4    37    1
    42     9    38    1
    43    11    39    1
    44    12    40    1
    45    17    41    1
    46    17    42    1
    47    17    43    1
    48    20    44    1
    49    20    45    1
    50    26    46    1
    51    26    47    1
    52    27    48    1
    53    27    49    1
    54    29    50    1
    55    29    51    1
    56    30    52    1
    57    30    53    1
    58    31    54    1
    59    31    55    1
    60    32    56    1
    61    33    57    1
    62    34    58    1
