@<TRIPOS>MOLECULE
*****
 48 51 0 0 0
SMALL
GASTEIGER

@<TRIPOS>ATOM
      1 C          -2.2900   -2.0596   -1.0738 C.3     1  UNL1       -0.0467
      2 C          -1.3106   -1.5636   -0.0626 C.3     1  UNL1        0.0209
      3 C          -1.3394   -2.4829    1.1380 C.3     1  UNL1       -0.0467
      4 N          -1.4850   -0.1886    0.3401 N.pl3   1  UNL1       -0.2926
      5 C          -2.6450    0.2673    1.0114 C.3     1  UNL1        0.0402
      6 C          -3.9275    0.1512    0.2970 C.ar    1  UNL1       -0.0301
      7 C          -4.3910    1.1015   -0.5799 C.ar    1  UNL1       -0.0571
      8 C          -5.6064    0.9293   -1.1853 C.ar    1  UNL1       -0.0615
      9 C          -6.4021   -0.1976   -0.9379 C.ar    1  UNL1       -0.0617
     10 C          -5.9409   -1.1487   -0.0617 C.ar    1  UNL1       -0.0615
     11 C          -4.7156   -0.9539    0.5356 C.ar    1  UNL1       -0.0571
     12 C          -0.4663    0.7879    0.0458 C.ar    1  UNL1        0.2257
     13 N           0.6835    0.8742    0.7359 N.ar    1  UNL1       -0.1821
     14 C           1.6039    1.8021    0.4215 C.ar    1  UNL1        0.2041
     15 N           2.8350    1.9330    1.0953 N.pl3   1  UNL1       -0.2849
     16 C           4.0119    1.2662    0.6814 C.ar    1  UNL1        0.0347
     17 C           5.2523    1.4481    1.2309 C.ar    1  UNL1       -0.0384
     18 C           6.4032    0.8018    0.8368 C.ar    1  UNL1       -0.0335
     19 C           6.3469   -0.1154   -0.1965 C.ar    1  UNL1        0.0783
     20 N           7.3215   -0.8484   -0.7345 N.ar    1  UNL1       -0.2474
     21 C           7.2858   -1.5833   -1.5567 C.ar    1  UNL1        0.0659
     22 S           5.4444   -1.5404   -2.0247 S.2     1  UNL1       -0.0754
     23 C           5.1272   -0.3141   -0.7580 C.ar    1  UNL1        0.0407
     24 C           3.9519    0.3380   -0.3636 C.ar    1  UNL1       -0.0246
     25 N           1.3726    2.6627   -0.6022 N.ar    1  UNL1       -0.2784
     26 C           0.2428    2.5967   -1.2977 C.ar    1  UNL1        0.3512
     27 O           0.0555    3.4024   -2.2353 O.2     1  UNL1       -0.2445
     28 N          -0.6658    1.6498   -0.9567 N.ar    1  UNL1       -0.1592
     29 H          -2.8614   -1.2651   -1.5979 H       1  UNL1        0.0247
     30 H          -2.9205   -2.8416   -0.6094 H       1  UNL1        0.0247
     31 H          -1.6899   -2.6391   -1.8530 H       1  UNL1        0.0247
     32 H          -0.2458   -1.6931   -0.4679 H       1  UNL1        0.0495
     33 H          -0.3384   -2.4919    1.6212 H       1  UNL1        0.0247
     34 H          -2.1394   -2.1581    1.8031 H       1  UNL1        0.0247
     35 H          -1.6088   -3.5010    0.7429 H       1  UNL1        0.0247
     36 H          -2.5598    1.3515    1.3302 H       1  UNL1        0.0514
     37 H          -2.7696   -0.2619    1.9997 H       1  UNL1        0.0514
     38 H          -3.8066    1.9706   -0.7846 H       1  UNL1        0.0621
     39 H          -6.0065    1.6538   -1.8803 H       1  UNL1        0.0618
     40 H          -7.3697   -0.3111   -1.4335 H       1  UNL1        0.0618
     41 H          -6.5448   -2.0239    0.1370 H       1  UNL1        0.0618
     42 H          -4.4090   -1.7541    1.2260 H       1  UNL1        0.0621
     43 H           2.8853    2.5450    1.9335 H       1  UNL1        0.1550
     44 H           5.3151    2.1741    2.0508 H       1  UNL1        0.0637
     45 H           7.3131    1.0623    1.3780 H       1  UNL1        0.0640
     46 H           7.9072   -2.3495   -2.2279 H       1  UNL1        0.0907
     47 H           3.0162    0.1276   -0.8583 H       1  UNL1        0.0648
     48 H           2.0801    3.3898   -0.8526 H       1  UNL1        0.1731
@<TRIPOS>BOND
     1     1     2    1
     2     2     3    1
     3     2     4    1
     4     4     5    1
     5     5     6    1
     6     6     7   ar
     7     7     8   ar
     8     8     9   ar
     9     9    10   ar
    10    10    11   ar
    11     4    12    1
    12    12    13   ar
    13    13    14   ar
    14    14    15    1
    15    15    16    1
    16    16    17   ar
    17    17    18   ar
    18    18    19   ar
    19    19    20   ar
    20    20    21   ar
    21    21    22   ar
    22    22    23   ar
    23    23    24   ar
    24    14    25   ar
    25    25    26   ar
    26    26    27    2
    27    26    28   ar
    28    11     6   ar
    29    28    12   ar
    30    24    16   ar
    31    23    19   ar
    32     1    29    1
    33     1    30    1
    34     1    31    1
    35     2    32    1
    36     3    33    1
    37     3    34    1
    38     3    35    1
    39     5    36    1
    40     5    37    1
    41     7    38    1
    42     8    39    1
    43     9    40    1
    44    10    41    1
    45    11    42    1
    46    15    43    1
    47    17    44    1
    48    18    45    1
    49    21    46    1
    50    24    47    1
    51    25    48    1
