
     RDKit          3D

 48 51  0  0  0  0  0  0  0  0999 V2000
   -2.2900   -2.0596   -1.0738 C   0  0  0  0  0  0  0  0  0  0  0  0
   -1.3106   -1.5636   -0.0626 C   0  0  0  0  0  0  0  0  0  0  0  0
   -1.3394   -2.4829    1.1380 C   0  0  0  0  0  0  0  0  0  0  0  0
   -1.4850   -0.1886    0.3401 N   0  0  0  0  0  0  0  0  0  0  0  0
   -2.6450    0.2673    1.0114 C   0  0  0  0  0  0  0  0  0  0  0  0
   -3.9275    0.1512    0.2970 C   0  0  0  0  0  0  0  0  0  0  0  0
   -4.3910    1.1015   -0.5799 C   0  0  0  0  0  0  0  0  0  0  0  0
   -5.6064    0.9293   -1.1853 C   0  0  0  0  0  0  0  0  0  0  0  0
   -6.4021   -0.1976   -0.9379 C   0  0  0  0  0  0  0  0  0  0  0  0
   -5.9409   -1.1487   -0.0617 C   0  0  0  0  0  0  0  0  0  0  0  0
   -4.7156   -0.9539    0.5356 C   0  0  0  0  0  0  0  0  0  0  0  0
   -0.4663    0.7879    0.0458 C   0  0  0  0  0  0  0  0  0  0  0  0
    0.6835    0.8742    0.7359 N   0  0  0  0  0  0  0  0  0  0  0  0
    1.6039    1.8021    0.4215 C   0  0  0  0  0  0  0  0  0  0  0  0
    2.8350    1.9330    1.0953 N   0  0  0  0  0  0  0  0  0  0  0  0
    4.0119    1.2662    0.6814 C   0  0  0  0  0  0  0  0  0  0  0  0
    5.2523    1.4481    1.2309 C   0  0  0  0  0  0  0  0  0  0  0  0
    6.4032    0.8018    0.8368 C   0  0  0  0  0  0  0  0  0  0  0  0
    6.3469   -0.1154   -0.1965 C   0  0  0  0  0  0  0  0  0  0  0  0
    7.3215   -0.8484   -0.7345 N   0  0  0  0  0  0  0  0  0  0  0  0
    7.2858   -1.5833   -1.5567 C   0  0  0  0  0  0  0  0  0  0  0  0
    5.4444   -1.5404   -2.0247 S   0  0  0  0  0  0  0  0  0  0  0  0
    5.1272   -0.3141   -0.7580 C   0  0  0  0  0  0  0  0  0  0  0  0
    3.9519    0.3380   -0.3636 C   0  0  0  0  0  0  0  0  0  0  0  0
    1.3726    2.6627   -0.6022 N   0  0  0  0  0  0  0  0  0  0  0  0
    0.2428    2.5967   -1.2977 C   0  0  0  0  0  0  0  0  0  0  0  0
    0.0555    3.4024   -2.2353 O   0  0  0  0  0  0  0  0  0  0  0  0
   -0.6658    1.6498   -0.9567 N   0  0  0  0  0  0  0  0  0  0  0  0
   -2.8614   -1.2651   -1.5979 H   0  0  0  0  0  0  0  0  0  0  0  0
   -2.9205   -2.8416   -0.6094 H   0  0  0  0  0  0  0  0  0  0  0  0
   -1.6899   -2.6391   -1.8530 H   0  0  0  0  0  0  0  0  0  0  0  0
   -0.2458   -1.6931   -0.4679 H   0  0  0  0  0  0  0  0  0  0  0  0
   -0.3384   -2.4919    1.6212 H   0  0  0  0  0  0  0  0  0  0  0  0
   -2.1394   -2.1581    1.8031 H   0  0  0  0  0  0  0  0  0  0  0  0
   -1.6088   -3.5010    0.7429 H   0  0  0  0  0  0  0  0  0  0  0  0
   -2.5598    1.3515    1.3302 H   0  0  0  0  0  0  0  0  0  0  0  0
   -2.7696   -0.2619    1.9997 H   0  0  0  0  0  0  0  0  0  0  0  0
   -3.8066    1.9706   -0.7846 H   0  0  0  0  0  0  0  0  0  0  0  0
   -6.0065    1.6538   -1.8803 H   0  0  0  0  0  0  0  0  0  0  0  0
   -7.3697   -0.3111   -1.4335 H   0  0  0  0  0  0  0  0  0  0  0  0
   -6.5448   -2.0239    0.1370 H   0  0  0  0  0  0  0  0  0  0  0  0
   -4.4090   -1.7541    1.2260 H   0  0  0  0  0  0  0  0  0  0  0  0
    2.8853    2.5450    1.9335 H   0  0  0  0  0  0  0  0  0  0  0  0
    5.3151    2.1741    2.0508 H   0  0  0  0  0  0  0  0  0  0  0  0
    7.3131    1.0623    1.3780 H   0  0  0  0  0  0  0  0  0  0  0  0
    7.9072   -2.3495   -2.2279 H   0  0  0  0  0  0  0  0  0  0  0  0
    3.0162    0.1276   -0.8583 H   0  0  0  0  0  0  0  0  0  0  0  0
    2.0801    3.3898   -0.8526 H   0  0  0  0  0  0  0  0  0  0  0  0
  1  2  1  0
  2  3  1  0
  2  4  1  0
  4  5  1  0
  5  6  1  0
  6  7  2  0
  7  8  1  0
  8  9  2  0
  9 10  1  0
 10 11  2  0
  4 12  1  0
 12 13  1  0
 13 14  2  0
 14 15  1  0
 15 16  1  0
 16 17  2  0
 17 18  1  0
 18 19  2  0
 19 20  1  0
 20 21  2  0
 21 22  1  0
 22 23  1  0
 23 24  2  0
 14 25  1  0
 25 26  1  0
 26 27  2  0
 26 28  1  0
 11  6  1  0
 28 12  2  0
 24 16  1  0
 23 19  1  0
  1 29  1  0
  1 30  1  0
  1 31  1  0
  2 32  1  0
  3 33  1  0
  3 34  1  0
  3 35  1  0
  5 36  1  0
  5 37  1  0
  7 38  1  0
  8 39  1  0
  9 40  1  0
 10 41  1  0
 11 42  1  0
 15 43  1  0
 17 44  1  0
 18 45  1  0
 21 46  1  0
 24 47  1  0
 25 48  1  0
M  END
$$$$
