@<TRIPOS>MOLECULE
*****
 43 45 0 0 0
SMALL
GASTEIGER

@<TRIPOS>ATOM
      1 C          -3.5841   -0.2050    1.5380 C.3     1  UNL1       -0.0354
      2 C          -2.8673   -0.4840    0.2373 C.3     1  UNL1        0.0897
      3 C          -1.4460   -0.8733    0.5061 C.ar    1  UNL1        0.0154
      4 C          -0.4090   -0.0726    0.1165 C.ar    1  UNL1       -0.0464
      5 C           0.9401   -0.3764    0.3485 C.ar    1  UNL1        0.0021
      6 C           2.0055    0.5539   -0.1011 C.3     1  UNL1        0.0246
      7 N           3.2937   -0.0277    0.0938 N.3     1  UNL1       -0.3018
      8 C           4.3926    0.8655   -0.2030 C.3     1  UNL1        0.0804
      9 C           4.5775    2.1603    0.5040 C.3     1  UNL1        0.2571
     10 F           5.7306    2.7907    0.0048 F       1  UNL1       -0.2073
     11 F           3.5479    3.0602    0.2436 F       1  UNL1       -0.2073
     12 C           5.7105    0.0798   -0.4154 C.3     1  UNL1       -0.0275
     13 C           4.9939    0.6602   -1.5981 C.3     1  UNL1       -0.0275
     14 C           1.1709   -1.5555    1.0069 C.ar    1  UNL1        0.1305
     15 F           2.4608   -1.9186    1.2815 F       1  UNL1       -0.2051
     16 C           0.1422   -2.4097    1.4260 C.ar    1  UNL1        0.0095
     17 C          -1.1384   -2.0438    1.1631 C.ar    1  UNL1        0.1316
     18 F          -2.1408   -2.8694    1.5675 F       1  UNL1       -0.2050
     19 C          -3.5543   -1.4725   -0.6420 C.3     1  UNL1       -0.0142
     20 C          -5.0496   -1.3222   -0.5637 C.3     1  UNL1        0.0034
     21 S          -5.4732    0.4228   -0.8272 S.3     1  UNL1       -0.0910
     22 C          -3.9027    1.2989   -0.9834 C.2     1  UNL1        0.1475
     23 N          -3.9270    2.5350   -1.6800 N.pl3   1  UNL1       -0.3380
     24 N          -2.8296    0.8026   -0.4767 N.2     1  UNL1       -0.2524
     25 H          -4.2603    0.6686    1.4169 H       1  UNL1        0.0256
     26 H          -2.8038    0.1174    2.2695 H       1  UNL1        0.0256
     27 H          -4.1931   -1.0278    1.9098 H       1  UNL1        0.0256
     28 H          -0.5815    0.8741   -0.4116 H       1  UNL1        0.0626
     29 H           1.8783    0.6473   -1.2220 H       1  UNL1        0.0475
     30 H           1.8844    1.5603    0.2879 H       1  UNL1        0.0475
     31 H           3.4129   -0.9215   -0.4633 H       1  UNL1        0.1229
     32 H           4.7421    2.0098    1.5704 H       1  UNL1        0.1037
     33 H           6.6560    0.5835   -0.0841 H       1  UNL1        0.0285
     34 H           5.7147   -0.9996   -0.2861 H       1  UNL1        0.0285
     35 H           4.5051   -0.0331   -2.2850 H       1  UNL1        0.0285
     36 H           5.3511    1.6044   -2.0463 H       1  UNL1        0.0285
     37 H           0.4279   -3.3259    1.9428 H       1  UNL1        0.0675
     38 H          -3.2356   -1.2653   -1.7019 H       1  UNL1        0.0300
     39 H          -3.3165   -2.5316   -0.3864 H       1  UNL1        0.0300
     40 H          -5.4127   -1.6755    0.4161 H       1  UNL1        0.0381
     41 H          -5.5463   -1.8855   -1.3840 H       1  UNL1        0.0381
     42 H          -4.0472    2.5753   -2.7091 H       1  UNL1        0.1442
     43 H          -3.8198    3.4255   -1.1347 H       1  UNL1        0.1442
@<TRIPOS>BOND
     1     2     1    1
     2     2     3    1
     3     3     4   ar
     4     4     5   ar
     5     5     6    1
     6     6     7    1
     7     7     8    1
     8     8     9    1
     9     9    10    1
    10     9    11    1
    11     8    12    1
    12    12    13    1
    13     5    14   ar
    14    14    15    1
    15    14    16   ar
    16    16    17   ar
    17    17    18    1
    18     2    19    1
    19    19    20    1
    20    20    21    1
    21    21    22    1
    22    22    23    1
    23    22    24    2
    24    24     2    1
    25    17     3   ar
    26    13     8    1
    27     1    25    1
    28     1    26    1
    29     1    27    1
    30     4    28    1
    31     6    29    1
    32     6    30    1
    33     7    31    1
    34     9    32    1
    35    12    33    1
    36    12    34    1
    37    13    35    1
    38    13    36    1
    39    16    37    1
    40    19    38    1
    41    19    39    1
    42    20    40    1
    43    20    41    1
    44    23    42    1
    45    23    43    1
