
     RDKit          3D

 43 45  0  0  0  0  0  0  0  0999 V2000
   -3.5841   -0.2050    1.5380 C   0  0  0  0  0  0  0  0  0  0  0  0
   -2.8673   -0.4840    0.2373 C   0  0  1  0  0  0  0  0  0  0  0  0
   -1.4460   -0.8733    0.5061 C   0  0  0  0  0  0  0  0  0  0  0  0
   -0.4090   -0.0726    0.1165 C   0  0  0  0  0  0  0  0  0  0  0  0
    0.9401   -0.3764    0.3485 C   0  0  0  0  0  0  0  0  0  0  0  0
    2.0055    0.5539   -0.1011 C   0  0  0  0  0  0  0  0  0  0  0  0
    3.2937   -0.0277    0.0938 N   0  0  0  0  0  0  0  0  0  0  0  0
    4.3926    0.8655   -0.2030 C   0  0  0  0  0  0  0  0  0  0  0  0
    4.5775    2.1603    0.5040 C   0  0  0  0  0  0  0  0  0  0  0  0
    5.7306    2.7907    0.0048 F   0  0  0  0  0  0  0  0  0  0  0  0
    3.5479    3.0602    0.2436 F   0  0  0  0  0  0  0  0  0  0  0  0
    5.7105    0.0798   -0.4154 C   0  0  0  0  0  0  0  0  0  0  0  0
    4.9939    0.6602   -1.5981 C   0  0  0  0  0  0  0  0  0  0  0  0
    1.1709   -1.5555    1.0069 C   0  0  0  0  0  0  0  0  0  0  0  0
    2.4608   -1.9186    1.2815 F   0  0  0  0  0  0  0  0  0  0  0  0
    0.1422   -2.4097    1.4260 C   0  0  0  0  0  0  0  0  0  0  0  0
   -1.1384   -2.0438    1.1631 C   0  0  0  0  0  0  0  0  0  0  0  0
   -2.1408   -2.8694    1.5675 F   0  0  0  0  0  0  0  0  0  0  0  0
   -3.5543   -1.4725   -0.6420 C   0  0  0  0  0  0  0  0  0  0  0  0
   -5.0496   -1.3222   -0.5637 C   0  0  0  0  0  0  0  0  0  0  0  0
   -5.4732    0.4228   -0.8272 S   0  0  0  0  0  0  0  0  0  0  0  0
   -3.9027    1.2989   -0.9834 C   0  0  0  0  0  0  0  0  0  0  0  0
   -3.9270    2.5350   -1.6800 N   0  0  0  0  0  0  0  0  0  0  0  0
   -2.8296    0.8026   -0.4767 N   0  0  0  0  0  0  0  0  0  0  0  0
   -4.2603    0.6686    1.4169 H   0  0  0  0  0  0  0  0  0  0  0  0
   -2.8038    0.1174    2.2695 H   0  0  0  0  0  0  0  0  0  0  0  0
   -4.1931   -1.0278    1.9098 H   0  0  0  0  0  0  0  0  0  0  0  0
   -0.5815    0.8741   -0.4116 H   0  0  0  0  0  0  0  0  0  0  0  0
    1.8783    0.6473   -1.2220 H   0  0  0  0  0  0  0  0  0  0  0  0
    1.8844    1.5603    0.2879 H   0  0  0  0  0  0  0  0  0  0  0  0
    3.4129   -0.9215   -0.4633 H   0  0  0  0  0  0  0  0  0  0  0  0
    4.7421    2.0098    1.5704 H   0  0  0  0  0  0  0  0  0  0  0  0
    6.6560    0.5835   -0.0841 H   0  0  0  0  0  0  0  0  0  0  0  0
    5.7147   -0.9996   -0.2861 H   0  0  0  0  0  0  0  0  0  0  0  0
    4.5051   -0.0331   -2.2850 H   0  0  0  0  0  0  0  0  0  0  0  0
    5.3511    1.6044   -2.0463 H   0  0  0  0  0  0  0  0  0  0  0  0
    0.4279   -3.3259    1.9428 H   0  0  0  0  0  0  0  0  0  0  0  0
   -3.2356   -1.2653   -1.7019 H   0  0  0  0  0  0  0  0  0  0  0  0
   -3.3165   -2.5316   -0.3864 H   0  0  0  0  0  0  0  0  0  0  0  0
   -5.4127   -1.6755    0.4161 H   0  0  0  0  0  0  0  0  0  0  0  0
   -5.5463   -1.8855   -1.3840 H   0  0  0  0  0  0  0  0  0  0  0  0
   -4.0472    2.5753   -2.7091 H   0  0  0  0  0  0  0  0  0  0  0  0
   -3.8198    3.4255   -1.1347 H   0  0  0  0  0  0  0  0  0  0  0  0
  2  1  1  1
  2  3  1  0
  3  4  2  0
  4  5  1  0
  5  6  1  0
  6  7  1  0
  7  8  1  0
  8  9  1  0
  9 10  1  0
  9 11  1  0
  8 12  1  0
 12 13  1  0
  5 14  2  0
 14 15  1  0
 14 16  1  0
 16 17  2  0
 17 18  1  0
  2 19  1  0
 19 20  1  0
 20 21  1  0
 21 22  1  0
 22 23  1  0
 22 24  2  0
 24  2  1  0
 17  3  1  0
 13  8  1  0
  1 25  1  0
  1 26  1  0
  1 27  1  0
  4 28  1  0
  6 29  1  0
  6 30  1  0
  7 31  1  0
  9 32  1  0
 12 33  1  0
 12 34  1  0
 13 35  1  0
 13 36  1  0
 16 37  1  0
 19 38  1  0
 19 39  1  0
 20 40  1  0
 20 41  1  0
 23 42  1  0
 23 43  1  0
M  END
$$$$
