
     RDKit          3D

 61 68  0  0  0  0  0  0  0  0999 V2000
   -4.4893   -0.6769    1.5353 C   0  0  0  0  0  0  0  0  0  0  0  0
   -4.4818   -0.5500    0.1240 N   0  0  0  0  0  0  0  0  0  0  0  0
   -3.2528   -0.4776   -0.5503 C   0  0  2  0  0  0  0  0  0  0  0  0
   -2.3130   -1.6398   -0.2463 C   0  0  0  0  0  0  0  0  0  0  0  0
   -1.2119   -1.5591   -1.2456 C   0  0  1  0  0  0  0  0  0  0  0  0
   -1.1041   -0.4529   -1.9836 O   0  0  0  0  0  0  0  0  0  0  0  0
   -1.3294    0.8022   -1.4064 C   0  0  1  0  0  0  0  0  0  0  0  0
   -1.7411    1.6290   -2.6060 C   0  0  0  0  0  0  0  0  0  0  0  0
   -2.4496    0.7811   -0.3798 C   0  0  2  0  0  0  0  0  0  0  0  0
   -1.9603    0.7915    0.9185 O   0  0  0  0  0  0  0  0  0  0  0  0
   -2.4054    1.9163    1.6109 C   0  0  0  0  0  0  0  0  0  0  0  0
   -0.0562    1.2401   -0.8247 N   0  0  0  0  0  0  0  0  0  0  0  0
    0.3911    2.4885   -0.6558 C   0  0  0  0  0  0  0  0  0  0  0  0
   -0.1710    3.7079   -0.9336 C   0  0  0  0  0  0  0  0  0  0  0  0
    0.4930    4.8726   -0.6631 C   0  0  0  0  0  0  0  0  0  0  0  0
    1.7303    4.8587   -0.1101 C   0  0  0  0  0  0  0  0  0  0  0  0
    2.3506    3.6419    0.1944 C   0  0  0  0  0  0  0  0  0  0  0  0
    1.6645    2.4796   -0.0862 C   0  0  0  0  0  0  0  0  0  0  0  0
    2.0058    1.1531    0.1019 C   0  0  0  0  0  0  0  0  0  0  0  0
    3.1371    0.5664    0.6279 C   0  0  0  0  0  0  0  0  0  0  0  0
    3.2067   -0.8369    0.7014 C   0  0  0  0  0  0  0  0  0  0  0  0
    2.1385   -1.5787    0.2444 C   0  0  0  0  0  0  0  0  0  0  0  0
    1.8908   -2.9245    0.1813 C   0  0  0  0  0  0  0  0  0  0  0  0
    2.5979   -4.0527    0.5366 C   0  0  0  0  0  0  0  0  0  0  0  0
    2.0629   -5.3101    0.3425 C   0  0  0  0  0  0  0  0  0  0  0  0
    0.8141   -5.4390   -0.2098 C   0  0  0  0  0  0  0  0  0  0  0  0
    0.1056   -4.3013   -0.5661 C   0  0  0  0  0  0  0  0  0  0  0  0
    0.6218   -3.0419   -0.3805 C   0  0  0  0  0  0  0  0  0  0  0  0
    0.1048   -1.8319   -0.6539 N   0  0  0  0  0  0  0  0  0  0  0  0
    1.0228   -0.9337   -0.2767 C   0  0  0  0  0  0  0  0  0  0  0  0
    0.9478    0.4397   -0.3529 C   0  0  0  0  0  0  0  0  0  0  0  0
    4.4957   -1.1395    1.2879 C   0  0  0  0  0  0  0  0  0  0  0  0
    4.9748   -2.2548    1.5362 O   0  0  0  0  0  0  0  0  0  0  0  0
    5.1919    0.0751    1.5629 N   0  0  0  0  0  0  0  0  0  0  0  0
    4.3735    1.1705    1.1664 C   0  0  0  0  0  0  0  0  0  0  0  0
   -5.0185    0.1943    1.9736 H   0  0  0  0  0  0  0  0  0  0  0  0
   -5.1142   -1.5596    1.8637 H   0  0  0  0  0  0  0  0  0  0  0  0
   -3.4959   -0.7230    2.0201 H   0  0  0  0  0  0  0  0  0  0  0  0
   -5.1660    0.1447   -0.1858 H   0  0  0  0  0  0  0  0  0  0  0  0
   -3.4528   -0.5571   -1.6623 H   0  0  0  0  0  0  0  0  0  0  0  0
   -1.8438   -1.5035    0.7694 H   0  0  0  0  0  0  0  0  0  0  0  0
   -2.8523   -2.6076   -0.2877 H   0  0  0  0  0  0  0  0  0  0  0  0
   -1.3791   -2.4210   -1.9642 H   0  0  0  0  0  0  0  0  0  0  0  0
   -0.8787    2.1253   -3.0680 H   0  0  0  0  0  0  0  0  0  0  0  0
   -2.1172    0.9288   -3.4238 H   0  0  0  0  0  0  0  0  0  0  0  0
   -2.6266    2.2608   -2.4254 H   0  0  0  0  0  0  0  0  0  0  0  0
   -3.1211    1.6649   -0.5710 H   0  0  0  0  0  0  0  0  0  0  0  0
   -2.0317    2.8330    1.0693 H   0  0  0  0  0  0  0  0  0  0  0  0
   -3.4962    2.0068    1.6786 H   0  0  0  0  0  0  0  0  0  0  0  0
   -1.9535    1.9886    2.6197 H   0  0  0  0  0  0  0  0  0  0  0  0
   -1.1708    3.7019   -1.3658 H   0  0  0  0  0  0  0  0  0  0  0  0
   -0.0269    5.8054   -0.9163 H   0  0  0  0  0  0  0  0  0  0  0  0
    2.2698    5.7616    0.1105 H   0  0  0  0  0  0  0  0  0  0  0  0
    3.3331    3.6193    0.6338 H   0  0  0  0  0  0  0  0  0  0  0  0
    3.5675   -4.0353    0.9683 H   0  0  0  0  0  0  0  0  0  0  0  0
    2.5989   -6.2130    0.6135 H   0  0  0  0  0  0  0  0  0  0  0  0
    0.4085   -6.4249   -0.3558 H   0  0  0  0  0  0  0  0  0  0  0  0
   -0.8857   -4.3809   -1.0053 H   0  0  0  0  0  0  0  0  0  0  0  0
    6.1353    0.1425    1.9813 H   0  0  0  0  0  0  0  0  0  0  0  0
    4.0991    1.8313    2.0149 H   0  0  0  0  0  0  0  0  0  0  0  0
    4.8625    1.8038    0.3738 H   0  0  0  0  0  0  0  0  0  0  0  0
  1  2  1  0
  2  3  1  0
  3  4  1  0
  4  5  1  0
  5  6  1  0
  6  7  1  0
  7  8  1  6
  7  9  1  0
  9 10  1  0
 10 11  1  0
  7 12  1  0
 12 13  1  0
 13 14  2  0
 14 15  1  0
 15 16  2  0
 16 17  1  0
 17 18  2  0
 18 19  1  0
 19 20  2  0
 20 21  1  0
 21 22  2  0
 22 23  1  0
 23 24  2  0
 24 25  1  0
 25 26  2  0
 26 27  1  0
 27 28  2  0
 28 29  1  0
 29 30  1  0
 30 31  2  0
 21 32  1  0
 32 33  2  0
 32 34  1  0
 34 35  1  0
  9  3  1  0
 31 12  1  0
 29  5  1  0
 18 13  1  0
 31 19  1  0
 35 20  1  0
 30 22  1  0
 28 23  1  0
  1 36  1  0
  1 37  1  0
  1 38  1  0
  2 39  1  0
  3 40  1  6
  4 41  1  0
  4 42  1  0
  5 43  1  6
  8 44  1  0
  8 45  1  0
  8 46  1  0
  9 47  1  6
 11 48  1  0
 11 49  1  0
 11 50  1  0
 14 51  1  0
 15 52  1  0
 16 53  1  0
 17 54  1  0
 24 55  1  0
 25 56  1  0
 26 57  1  0
 27 58  1  0
 34 59  1  0
 35 60  1  0
 35 61  1  0
M  END
$$$$
