@<TRIPOS>MOLECULE
*****
 61 68 0 0 0
SMALL
GASTEIGER

@<TRIPOS>ATOM
      1 C          -4.4893   -0.6769    1.5353 C.3     1  UNL1       -0.0155
      2 N          -4.4818   -0.5500    0.1240 N.3     1  UNL1       -0.3136
      3 C          -3.2528   -0.4776   -0.5503 C.3     1  UNL1        0.0423
      4 C          -2.3130   -1.6398   -0.2463 C.3     1  UNL1        0.0107
      5 C          -1.2119   -1.5591   -1.2456 C.3     1  UNL1        0.1402
      6 O          -1.1041   -0.4529   -1.9836 O.3     1  UNL1       -0.3282
      7 C          -1.3294    0.8022   -1.4064 C.3     1  UNL1        0.1741
      8 C          -1.7411    1.6290   -2.6060 C.3     1  UNL1       -0.0136
      9 C          -2.4496    0.7811   -0.3798 C.3     1  UNL1        0.1214
     10 O          -1.9603    0.7915    0.9185 O.3     1  UNL1       -0.3735
     11 C          -2.4054    1.9163    1.6109 C.3     1  UNL1        0.0371
     12 N          -0.0562    1.2401   -0.8247 N.ar    1  UNL1       -0.3070
     13 C           0.3911    2.4885   -0.6558 C.ar    1  UNL1        0.0527
     14 C          -0.1710    3.7079   -0.9336 C.ar    1  UNL1       -0.0375
     15 C           0.4930    4.8726   -0.6631 C.ar    1  UNL1       -0.0598
     16 C           1.7303    4.8587   -0.1101 C.ar    1  UNL1       -0.0611
     17 C           2.3506    3.6419    0.1944 C.ar    1  UNL1       -0.0520
     18 C           1.6645    2.4796   -0.0862 C.ar    1  UNL1        0.0081
     19 C           2.0058    1.1531    0.1019 C.ar    1  UNL1        0.0151
     20 C           3.1371    0.5664    0.6279 C.ar    1  UNL1       -0.0078
     21 C           3.2067   -0.8369    0.7014 C.ar    1  UNL1        0.0518
     22 C           2.1385   -1.5787    0.2444 C.ar    1  UNL1        0.0221
     23 C           1.8908   -2.9245    0.1813 C.ar    1  UNL1        0.0085
     24 C           2.5979   -4.0527    0.5366 C.ar    1  UNL1       -0.0520
     25 C           2.0629   -5.3101    0.3425 C.ar    1  UNL1       -0.0611
     26 C           0.8141   -5.4390   -0.2098 C.ar    1  UNL1       -0.0598
     27 C           0.1056   -4.3013   -0.5661 C.ar    1  UNL1       -0.0375
     28 C           0.6218   -3.0419   -0.3805 C.ar    1  UNL1        0.0524
     29 N           0.1048   -1.8319   -0.6539 N.ar    1  UNL1       -0.3115
     30 C           1.0228   -0.9337   -0.2767 C.ar    1  UNL1        0.0774
     31 C           0.9478    0.4397   -0.3529 C.ar    1  UNL1        0.0772
     32 C           4.4957   -1.1395    1.2879 C.2     1  UNL1        0.2453
     33 O           4.9748   -2.2548    1.5362 O.2     1  UNL1       -0.2702
     34 N           5.1919    0.0751    1.5629 N.am    1  UNL1       -0.3072
     35 C           4.3735    1.1705    1.1664 C.3     1  UNL1        0.0385
     36 H          -5.0185    0.1943    1.9736 H       1  UNL1        0.0388
     37 H          -5.1142   -1.5596    1.8637 H       1  UNL1        0.0388
     38 H          -3.4959   -0.7230    2.0201 H       1  UNL1        0.0388
     39 H          -5.1660    0.1447   -0.1858 H       1  UNL1        0.1220
     40 H          -3.4528   -0.5571   -1.6623 H       1  UNL1        0.0489
     41 H          -1.8438   -1.5035    0.7694 H       1  UNL1        0.0325
     42 H          -2.8523   -2.6076   -0.2877 H       1  UNL1        0.0325
     43 H          -1.3791   -2.4210   -1.9642 H       1  UNL1        0.0839
     44 H          -0.8787    2.1253   -3.0680 H       1  UNL1        0.0277
     45 H          -2.1172    0.9288   -3.4238 H       1  UNL1        0.0277
     46 H          -2.6266    2.2608   -2.4254 H       1  UNL1        0.0277
     47 H          -3.1211    1.6649   -0.5710 H       1  UNL1        0.0660
     48 H          -2.0317    2.8330    1.0693 H       1  UNL1        0.0524
     49 H          -3.4962    2.0068    1.6786 H       1  UNL1        0.0524
     50 H          -1.9535    1.9886    2.6197 H       1  UNL1        0.0524
     51 H          -1.1708    3.7019   -1.3658 H       1  UNL1        0.0638
     52 H          -0.0269    5.8054   -0.9163 H       1  UNL1        0.0618
     53 H           2.2698    5.7616    0.1105 H       1  UNL1        0.0618
     54 H           3.3331    3.6193    0.6338 H       1  UNL1        0.0624
     55 H           3.5675   -4.0353    0.9683 H       1  UNL1        0.0624
     56 H           2.5989   -6.2130    0.6135 H       1  UNL1        0.0618
     57 H           0.4085   -6.4249   -0.3558 H       1  UNL1        0.0618
     58 H          -0.8857   -4.3809   -1.0053 H       1  UNL1        0.0638
     59 H           6.1353    0.1425    1.9813 H       1  UNL1        0.1493
     60 H           4.0991    1.8313    2.0149 H       1  UNL1        0.0512
     61 H           4.8625    1.8038    0.3738 H       1  UNL1        0.0512
@<TRIPOS>BOND
     1     1     2    1
     2     2     3    1
     3     3     4    1
     4     4     5    1
     5     5     6    1
     6     6     7    1
     7     7     8    1
     8     7     9    1
     9     9    10    1
    10    10    11    1
    11     7    12    1
    12    12    13   ar
    13    13    14   ar
    14    14    15   ar
    15    15    16   ar
    16    16    17   ar
    17    17    18   ar
    18    18    19   ar
    19    19    20   ar
    20    20    21   ar
    21    21    22   ar
    22    22    23   ar
    23    23    24   ar
    24    24    25   ar
    25    25    26   ar
    26    26    27   ar
    27    27    28   ar
    28    28    29   ar
    29    29    30   ar
    30    30    31   ar
    31    21    32    1
    32    32    33    2
    33    32    34   am
    34    34    35    1
    35     9     3    1
    36    31    12   ar
    37    29     5    1
    38    18    13   ar
    39    31    19   ar
    40    35    20    1
    41    30    22   ar
    42    28    23   ar
    43     1    36    1
    44     1    37    1
    45     1    38    1
    46     2    39    1
    47     3    40    1
    48     4    41    1
    49     4    42    1
    50     5    43    1
    51     8    44    1
    52     8    45    1
    53     8    46    1
    54     9    47    1
    55    11    48    1
    56    11    49    1
    57    11    50    1
    58    14    51    1
    59    15    52    1
    60    16    53    1
    61    17    54    1
    62    24    55    1
    63    25    56    1
    64    26    57    1
    65    27    58    1
    66    34    59    1
    67    35    60    1
    68    35    61    1
