
     RDKit          3D

 49 48  0  0  0  0  0  0  0  0999 V2000
    7.2996    1.3807   -0.4912 C   0  0  0  0  0  0  0  0  0  0  0  0
    6.5060    1.1368    0.7666 C   0  0  0  0  0  0  0  0  0  0  0  0
    5.2739    0.2912    0.5610 C   0  0  0  0  0  0  0  0  0  0  0  0
    4.3338    0.9463   -0.4116 C   0  0  0  0  0  0  0  0  0  0  0  0
    3.0897    0.1700   -0.6770 C   0  0  0  0  0  0  0  0  0  0  0  0
    2.2594   -0.0713    0.5472 C   0  0  0  0  0  0  0  0  0  0  0  0
    1.0133   -0.8526    0.2324 C   0  0  0  0  0  0  0  0  0  0  0  0
    0.1015   -0.2042   -0.7302 C   0  0  0  0  0  0  0  0  0  0  0  0
   -1.1484   -1.0214   -1.0373 C   0  0  0  0  0  0  0  0  0  0  0  0
   -1.9758   -1.2773    0.2132 C   0  0  0  0  0  0  0  0  0  0  0  0
   -3.2030   -2.0840   -0.0563 C   0  0  0  0  0  0  0  0  0  0  0  0
   -4.1925   -1.5183   -0.9920 C   0  0  0  0  0  0  0  0  0  0  0  0
   -4.8156   -0.2155   -0.6263 C   0  0  0  0  0  0  0  0  0  0  0  0
   -5.5664   -0.3058    0.6764 C   0  0  0  0  0  0  0  0  0  0  0  0
   -6.2239    0.9943    1.0793 C   0  0  0  0  0  0  0  0  0  0  0  0
   -5.2709    2.0981    1.2451 C   0  0  0  0  0  0  0  0  0  0  0  0
   -4.4160    2.6501    0.6071 O   0  0  0  0  0  0  0  0  0  0  0  0
    6.8763    0.9109   -1.3982 H   0  0  0  0  0  0  0  0  0  0  0  0
    8.3447    0.9927   -0.4154 H   0  0  0  0  0  0  0  0  0  0  0  0
    7.3898    2.4817   -0.6382 H   0  0  0  0  0  0  0  0  0  0  0  0
    6.2220    2.0758    1.2374 H   0  0  0  0  0  0  0  0  0  0  0  0
    7.1623    0.6032    1.4838 H   0  0  0  0  0  0  0  0  0  0  0  0
    4.7655    0.2637    1.5562 H   0  0  0  0  0  0  0  0  0  0  0  0
    5.5121   -0.7111    0.2000 H   0  0  0  0  0  0  0  0  0  0  0  0
    4.8562    1.1154   -1.3788 H   0  0  0  0  0  0  0  0  0  0  0  0
    4.0784    1.9869   -0.0515 H   0  0  0  0  0  0  0  0  0  0  0  0
    2.5026    0.7305   -1.4278 H   0  0  0  0  0  0  0  0  0  0  0  0
    3.3943   -0.8342   -1.0510 H   0  0  0  0  0  0  0  0  0  0  0  0
    2.8604   -0.6150    1.3031 H   0  0  0  0  0  0  0  0  0  0  0  0
    1.9446    0.8820    1.0187 H   0  0  0  0  0  0  0  0  0  0  0  0
    0.4896   -1.1184    1.1678 H   0  0  0  0  0  0  0  0  0  0  0  0
    1.3397   -1.8412   -0.2201 H   0  0  0  0  0  0  0  0  0  0  0  0
    0.5621    0.0404   -1.7059 H   0  0  0  0  0  0  0  0  0  0  0  0
   -0.2308    0.7715   -0.2939 H   0  0  0  0  0  0  0  0  0  0  0  0
   -1.8015   -0.4685   -1.7442 H   0  0  0  0  0  0  0  0  0  0  0  0
   -0.8804   -1.9591   -1.5484 H   0  0  0  0  0  0  0  0  0  0  0  0
   -2.1853   -0.3240    0.7361 H   0  0  0  0  0  0  0  0  0  0  0  0
   -1.3442   -1.8800    0.8917 H   0  0  0  0  0  0  0  0  0  0  0  0
   -3.6653   -2.3318    0.9264 H   0  0  0  0  0  0  0  0  0  0  0  0
   -2.8456   -3.0555   -0.4921 H   0  0  0  0  0  0  0  0  0  0  0  0
   -5.0225   -2.2579   -1.0744 H   0  0  0  0  0  0  0  0  0  0  0  0
   -3.7707   -1.4824   -2.0351 H   0  0  0  0  0  0  0  0  0  0  0  0
   -5.5746    0.0054   -1.4096 H   0  0  0  0  0  0  0  0  0  0  0  0
   -4.1083    0.6370   -0.6501 H   0  0  0  0  0  0  0  0  0  0  0  0
   -4.8643   -0.5605    1.4855 H   0  0  0  0  0  0  0  0  0  0  0  0
   -6.3720   -1.0794    0.5947 H   0  0  0  0  0  0  0  0  0  0  0  0
   -6.6774    0.7849    2.0944 H   0  0  0  0  0  0  0  0  0  0  0  0
   -7.0611    1.2743    0.4153 H   0  0  0  0  0  0  0  0  0  0  0  0
   -4.9613    2.8454    1.9969 H   0  0  0  0  0  0  0  0  0  0  0  0
  1  2  1  0
  2  3  1  0
  3  4  1  0
  4  5  1  0
  5  6  1  0
  6  7  1  0
  7  8  1  0
  8  9  1  0
  9 10  1  0
 10 11  1  0
 11 12  1  0
 12 13  1  0
 13 14  1  0
 14 15  1  0
 15 16  1  0
 16 17  2  0
  1 18  1  0
  1 19  1  0
  1 20  1  0
  2 21  1  0
  2 22  1  0
  3 23  1  0
  3 24  1  0
  4 25  1  0
  4 26  1  0
  5 27  1  0
  5 28  1  0
  6 29  1  0
  6 30  1  0
  7 31  1  0
  7 32  1  0
  8 33  1  0
  8 34  1  0
  9 35  1  0
  9 36  1  0
 10 37  1  0
 10 38  1  0
 11 39  1  0
 11 40  1  0
 12 41  1  0
 12 42  1  0
 13 43  1  0
 13 44  1  0
 14 45  1  0
 14 46  1  0
 15 47  1  0
 15 48  1  0
 16 49  1  0
M  END
$$$$
