@<TRIPOS>MOLECULE
*****
 49 48 0 0 0
SMALL
GASTEIGER

@<TRIPOS>ATOM
      1 C           7.2996    1.3807   -0.4912 C.3     1  UNL1       -0.0653
      2 C           6.5060    1.1368    0.7666 C.3     1  UNL1       -0.0559
      3 C           5.2739    0.2912    0.5610 C.3     1  UNL1       -0.0533
      4 C           4.3338    0.9463   -0.4116 C.3     1  UNL1       -0.0531
      5 C           3.0897    0.1700   -0.6770 C.3     1  UNL1       -0.0531
      6 C           2.2594   -0.0713    0.5472 C.3     1  UNL1       -0.0531
      7 C           1.0133   -0.8526    0.2324 C.3     1  UNL1       -0.0531
      8 C           0.1015   -0.2042   -0.7302 C.3     1  UNL1       -0.0531
      9 C          -1.1484   -1.0214   -1.0373 C.3     1  UNL1       -0.0531
     10 C          -1.9758   -1.2773    0.2132 C.3     1  UNL1       -0.0531
     11 C          -3.2030   -2.0840   -0.0563 C.3     1  UNL1       -0.0531
     12 C          -4.1925   -1.5183   -0.9920 C.3     1  UNL1       -0.0530
     13 C          -4.8156   -0.2155   -0.6263 C.3     1  UNL1       -0.0527
     14 C          -5.5664   -0.3058    0.6764 C.3     1  UNL1       -0.0466
     15 C          -6.2239    0.9943    1.0793 C.3     1  UNL1        0.0028
     16 C          -5.2709    2.0981    1.2451 C.2     1  UNL1        0.1203
     17 O          -4.4160    2.6501    0.6071 O.2     1  UNL1       -0.3010
     18 H           6.8763    0.9109   -1.3982 H       1  UNL1        0.0230
     19 H           8.3447    0.9927   -0.4154 H       1  UNL1        0.0230
     20 H           7.3898    2.4817   -0.6382 H       1  UNL1        0.0230
     21 H           6.2220    2.0758    1.2374 H       1  UNL1        0.0263
     22 H           7.1623    0.6032    1.4838 H       1  UNL1        0.0263
     23 H           4.7655    0.2637    1.5562 H       1  UNL1        0.0265
     24 H           5.5121   -0.7111    0.2000 H       1  UNL1        0.0265
     25 H           4.8562    1.1154   -1.3788 H       1  UNL1        0.0265
     26 H           4.0784    1.9869   -0.0515 H       1  UNL1        0.0265
     27 H           2.5026    0.7305   -1.4278 H       1  UNL1        0.0265
     28 H           3.3943   -0.8342   -1.0510 H       1  UNL1        0.0265
     29 H           2.8604   -0.6150    1.3031 H       1  UNL1        0.0265
     30 H           1.9446    0.8820    1.0187 H       1  UNL1        0.0265
     31 H           0.4896   -1.1184    1.1678 H       1  UNL1        0.0265
     32 H           1.3397   -1.8412   -0.2201 H       1  UNL1        0.0265
     33 H           0.5621    0.0404   -1.7059 H       1  UNL1        0.0265
     34 H          -0.2308    0.7715   -0.2939 H       1  UNL1        0.0265
     35 H          -1.8015   -0.4685   -1.7442 H       1  UNL1        0.0265
     36 H          -0.8804   -1.9591   -1.5484 H       1  UNL1        0.0265
     37 H          -2.1853   -0.3240    0.7361 H       1  UNL1        0.0265
     38 H          -1.3442   -1.8800    0.8917 H       1  UNL1        0.0265
     39 H          -3.6653   -2.3318    0.9264 H       1  UNL1        0.0265
     40 H          -2.8456   -3.0555   -0.4921 H       1  UNL1        0.0265
     41 H          -5.0225   -2.2579   -1.0744 H       1  UNL1        0.0265
     42 H          -3.7707   -1.4824   -2.0351 H       1  UNL1        0.0265
     43 H          -5.5746    0.0054   -1.4096 H       1  UNL1        0.0265
     44 H          -4.1083    0.6370   -0.6501 H       1  UNL1        0.0265
     45 H          -4.8643   -0.5605    1.4855 H       1  UNL1        0.0269
     46 H          -6.3720   -1.0794    0.5947 H       1  UNL1        0.0269
     47 H          -6.6774    0.7849    2.0944 H       1  UNL1        0.0339
     48 H          -7.0611    1.2743    0.4153 H       1  UNL1        0.0339
     49 H          -4.9613    2.8454    1.9969 H       1  UNL1        0.1026
@<TRIPOS>BOND
     1     1     2    1
     2     2     3    1
     3     3     4    1
     4     4     5    1
     5     5     6    1
     6     6     7    1
     7     7     8    1
     8     8     9    1
     9     9    10    1
    10    10    11    1
    11    11    12    1
    12    12    13    1
    13    13    14    1
    14    14    15    1
    15    15    16    1
    16    16    17    2
    17     1    18    1
    18     1    19    1
    19     1    20    1
    20     2    21    1
    21     2    22    1
    22     3    23    1
    23     3    24    1
    24     4    25    1
    25     4    26    1
    26     5    27    1
    27     5    28    1
    28     6    29    1
    29     6    30    1
    30     7    31    1
    31     7    32    1
    32     8    33    1
    33     8    34    1
    34     9    35    1
    35     9    36    1
    36    10    37    1
    37    10    38    1
    38    11    39    1
    39    11    40    1
    40    12    41    1
    41    12    42    1
    42    13    43    1
    43    13    44    1
    44    14    45    1
    45    14    46    1
    46    15    47    1
    47    15    48    1
    48    16    49    1
