@<TRIPOS>MOLECULE
*****
 81 85 0 0 0
SMALL
GASTEIGER

@<TRIPOS>ATOM
      1 C           9.3209    0.6214    0.4402 C.3     1  UNL1        0.1421
      2 C           8.6892    1.8544   -0.1414 C.3     1  UNL1        0.0244
      3 C           7.2137    1.4940   -0.1423 C.3     1  UNL1        0.1617
      4 N           6.6300    2.0904    1.0438 N.2     1  UNL1        0.0825
      5 N           6.1254    1.4579    1.9633 N.2     1  UNL1       -0.0144
      6 N           5.9914    0.7930    2.9909 N.2     1  UNL1       -0.3282
      7 C           7.2226    0.0055    0.0195 C.3     1  UNL1        0.1137
      8 C           6.4098   -0.6976   -1.0530 C.3     1  UNL1        0.0834
      9 O           5.0711   -0.3527   -0.9886 O.3     1  UNL1       -0.3246
     10 P           4.1218   -1.1025   -2.1553 P.3     1  UNL1        0.2182
     11 O           4.2369   -2.7859   -2.0751 O.co2   1  UNL1       -0.4371
     12 O           4.5142   -0.7040   -3.5711 O.2     1  UNL1       -0.5170
     13 O           2.5366   -0.5989   -1.9362 O.3     1  UNL1       -0.2700
     14 P           2.5082    1.0686   -1.5667 P.3     1  UNL1        0.2276
     15 O           2.9928    1.9473   -2.9348 O.co2   1  UNL1       -0.4368
     16 O           3.3815    1.3706   -0.3742 O.2     1  UNL1       -0.5168
     17 O           0.9314    1.5432   -1.1825 O.3     1  UNL1       -0.2287
     18 P           0.3284    0.4965   -0.0066 P.3     1  UNL1        0.4858
     19 O          -0.2344   -0.9575   -0.6718 O.3     1  UNL1       -0.3021
     20 O           1.4918    0.1411    0.8935 O.2     1  UNL1       -0.2267
     21 O          -0.8625    1.2094    0.9295 O.3     1  UNL1       -0.2287
     22 P          -1.6675   -0.0576    1.7500 P.3     1  UNL1        0.2276
     23 O          -0.5851   -0.6967    2.9059 O.co2   1  UNL1       -0.4368
     24 O          -2.9300    0.4392    2.4228 O.2     1  UNL1       -0.5168
     25 O          -2.0602   -1.2981    0.7031 O.3     1  UNL1       -0.2700
     26 P          -3.4743   -1.0397   -0.1700 P.3     1  UNL1        0.2182
     27 O          -3.2169   -0.1623   -1.5752 O.co2   1  UNL1       -0.4371
     28 O          -3.9676   -2.4220   -0.5979 O.2     1  UNL1       -0.5170
     29 O          -4.6279   -0.3904    0.8469 O.3     1  UNL1       -0.3246
     30 C          -5.7120    0.1822    0.1872 C.3     1  UNL1        0.0836
     31 C          -6.7229    0.7539    1.1581 C.3     1  UNL1        0.1133
     32 O          -7.7456    1.2915    0.4279 O.3     1  UNL1       -0.3456
     33 C          -8.9387    1.0026    1.0633 C.3     1  UNL1        0.1667
     34 N          -9.9878    0.7696    0.0894 N.ar    1  UNL1       -0.2855
     35 C         -10.0468    1.2375   -1.1786 C.ar    1  UNL1        0.1004
     36 N         -11.1749    0.8159   -1.7945 N.ar    1  UNL1       -0.2306
     37 C         -11.8572    0.0585   -0.8995 C.ar    1  UNL1        0.1473
     38 C         -13.0638   -0.5969   -1.0423 C.ar    1  UNL1        0.1472
     39 N         -13.8374   -0.5811   -2.2338 N.pl3   1  UNL1       -0.3413
     40 N         -13.4930   -1.2791    0.0395 N.ar    1  UNL1       -0.2188
     41 C         -12.7597   -1.2941    1.1687 C.ar    1  UNL1        0.1205
     42 N         -11.5924   -0.6637    1.3163 N.ar    1  UNL1       -0.2159
     43 C         -11.1141    0.0344    0.2674 C.ar    1  UNL1        0.1674
     44 C          -8.7280   -0.1618    1.9588 C.3     1  UNL1        0.1285
     45 O          -9.3663    0.0160    3.1914 O.3     1  UNL1       -0.3847
     46 C          -7.2441   -0.2692    2.1051 C.3     1  UNL1        0.1135
     47 O          -6.8620    0.0318    3.4154 O.3     1  UNL1       -0.3864
     48 O           8.5506   -0.4050   -0.1275 O.3     1  UNL1       -0.3485
     49 N          10.6899    0.4239    0.0680 N.ar    1  UNL1       -0.2724
     50 C          11.1962   -0.5524   -0.7108 C.ar    1  UNL1        0.0157
     51 C          12.5376   -0.6319   -0.9946 C.ar    1  UNL1       -0.0233
     52 C          12.9578   -1.7623   -1.8681 C.3     1  UNL1       -0.0375
     53 C          13.4389    0.2965   -0.4885 C.ar    1  UNL1       -0.0023
     54 O          14.7751    0.1717   -0.8037 O.co2   1  UNL1       -0.8598
     55 N          12.8952    1.2675    0.2928 N.ar    1  UNL1       -0.2089
     56 C          11.5809    1.3176    0.5512 C.ar    1  UNL1        0.3499
     57 O          11.2340    2.2754    1.2898 O.2     1  UNL1       -0.2444
     58 H           9.2015    0.6269    1.5454 H       1  UNL1        0.0840
     59 H           8.8770    2.7287    0.5085 H       1  UNL1        0.0332
     60 H           9.0485    2.0550   -1.1721 H       1  UNL1        0.0332
     61 H           6.7230    1.8069   -1.0853 H       1  UNL1        0.0643
     62 H           6.8977   -0.3090    1.0282 H       1  UNL1        0.0644
     63 H           6.5887   -1.7743   -1.0071 H       1  UNL1        0.0591
     64 H           6.7746   -0.3517   -2.0429 H       1  UNL1        0.0591
     65 H          -0.1288   -0.9280   -1.6559 H       1  UNL1        0.2220
     66 H          -5.4515    0.9469   -0.5437 H       1  UNL1        0.0591
     67 H          -6.2109   -0.6500   -0.3503 H       1  UNL1        0.0591
     68 H          -6.2769    1.5930    1.7461 H       1  UNL1        0.0647
     69 H          -9.1972    1.9028    1.6827 H       1  UNL1        0.0866
     70 H          -9.3252    1.8636   -1.6841 H       1  UNL1        0.1030
     71 H         -13.3945   -1.4026   -2.7052 H       1  UNL1        0.1438
     72 H         -14.4435    0.2505   -2.0041 H       1  UNL1        0.1438
     73 H         -13.1768   -1.8673    1.9940 H       1  UNL1        0.1048
     74 H          -9.1356   -1.0955    1.5152 H       1  UNL1        0.0665
     75 H          -9.3149   -0.8758    3.6425 H       1  UNL1        0.2101
     76 H          -6.9192   -1.3038    1.8641 H       1  UNL1        0.0647
     77 H          -6.3843   -0.7366    3.8510 H       1  UNL1        0.2100
     78 H          10.4775   -1.2617   -1.0923 H       1  UNL1        0.0814
     79 H          12.3830   -2.6637   -1.5693 H       1  UNL1        0.0278
     80 H          14.0342   -1.9898   -1.7664 H       1  UNL1        0.0278
     81 H          12.6530   -1.5534   -2.9143 H       1  UNL1        0.0278
@<TRIPOS>UNITY_ATOM_ATTR
5 1
charge 1
6 1
charge -1
11 1
charge -1
15 1
charge -1
23 1
charge -1
27 1
charge -1
54 1
charge -1
@<TRIPOS>BOND
     1     1     2    1
     2     2     3    1
     3     3     4    1
     4     4     5    2
     5     5     6    2
     6     3     7    1
     7     7     8    1
     8     8     9    1
     9     9    10    1
    10    10    11    1
    11    10    12    2
    12    10    13    1
    13    13    14    1
    14    14    15    1
    15    14    16    2
    16    14    17    1
    17    17    18    1
    18    18    19    1
    19    18    20    2
    20    18    21    1
    21    21    22    1
    22    22    23    1
    23    22    24    2
    24    22    25    1
    25    25    26    1
    26    26    27    1
    27    26    28    2
    28    26    29    1
    29    29    30    1
    30    30    31    1
    31    31    32    1
    32    32    33    1
    33    33    34    1
    34    34    35   ar
    35    35    36   ar
    36    36    37   ar
    37    37    38   ar
    38    38    39    1
    39    38    40   ar
    40    40    41   ar
    41    41    42   ar
    42    42    43   ar
    43    33    44    1
    44    44    45    1
    45    44    46    1
    46    46    47    1
    47     7    48    1
    48     1    49    1
    49    49    50   ar
    50    50    51   ar
    51    51    52    1
    52    51    53   ar
    53    53    54    1
    54    53    55   ar
    55    55    56   ar
    56    56    57    2
    57    48     1    1
    58    56    49   ar
    59    46    31    1
    60    43    34   ar
    61    43    37   ar
    62     1    58    1
    63     2    59    1
    64     2    60    1
    65     3    61    1
    66     7    62    1
    67     8    63    1
    68     8    64    1
    69    19    65    1
    70    30    66    1
    71    30    67    1
    72    31    68    1
    73    33    69    1
    74    35    70    1
    75    39    71    1
    76    39    72    1
    77    41    73    1
    78    44    74    1
    79    45    75    1
    80    46    76    1
    81    47    77    1
    82    50    78    1
    83    52    79    1
    84    52    80    1
    85    52    81    1
