
     RDKit          3D

 81 85  0  0  0  0  0  0  0  0999 V2000
    9.3209    0.6214    0.4402 C   0  0  1  0  0  0  0  0  0  0  0  0
    8.6892    1.8544   -0.1414 C   0  0  0  0  0  0  0  0  0  0  0  0
    7.2137    1.4940   -0.1423 C   0  0  2  0  0  0  0  0  0  0  0  0
    6.6300    2.0904    1.0438 N   0  0  0  0  0  0  0  0  0  0  0  0
    6.1254    1.4579    1.9633 N   0  0  0  0  0  4  0  0  0  0  0  0
    5.9914    0.7930    2.9909 N   0  0  0  0  0  2  0  0  0  0  0  0
    7.2226    0.0055    0.0195 C   0  0  1  0  0  0  0  0  0  0  0  0
    6.4098   -0.6976   -1.0530 C   0  0  0  0  0  0  0  0  0  0  0  0
    5.0711   -0.3527   -0.9886 O   0  0  0  0  0  0  0  0  0  0  0  0
    4.1218   -1.1025   -2.1553 P   0  0  0  0  0  0  0  0  0  0  0  0
    4.2369   -2.7859   -2.0751 O   0  0  0  0  0  1  0  0  0  0  0  0
    4.5142   -0.7040   -3.5711 O   0  0  0  0  0  0  0  0  0  0  0  0
    2.5366   -0.5989   -1.9362 O   0  0  0  0  0  0  0  0  0  0  0  0
    2.5082    1.0686   -1.5667 P   0  0  0  0  0  0  0  0  0  0  0  0
    2.9928    1.9473   -2.9348 O   0  0  0  0  0  1  0  0  0  0  0  0
    3.3815    1.3706   -0.3742 O   0  0  0  0  0  0  0  0  0  0  0  0
    0.9314    1.5432   -1.1825 O   0  0  0  0  0  0  0  0  0  0  0  0
    0.3284    0.4965   -0.0066 P   0  0  0  0  0  0  0  0  0  0  0  0
   -0.2344   -0.9575   -0.6718 O   0  0  0  0  0  0  0  0  0  0  0  0
    1.4918    0.1411    0.8935 O   0  0  0  0  0  0  0  0  0  0  0  0
   -0.8625    1.2094    0.9295 O   0  0  0  0  0  0  0  0  0  0  0  0
   -1.6675   -0.0576    1.7500 P   0  0  0  0  0  0  0  0  0  0  0  0
   -0.5851   -0.6967    2.9059 O   0  0  0  0  0  1  0  0  0  0  0  0
   -2.9300    0.4392    2.4228 O   0  0  0  0  0  0  0  0  0  0  0  0
   -2.0602   -1.2981    0.7031 O   0  0  0  0  0  0  0  0  0  0  0  0
   -3.4743   -1.0397   -0.1700 P   0  0  0  0  0  0  0  0  0  0  0  0
   -3.2169   -0.1623   -1.5752 O   0  0  0  0  0  1  0  0  0  0  0  0
   -3.9676   -2.4220   -0.5979 O   0  0  0  0  0  0  0  0  0  0  0  0
   -4.6279   -0.3904    0.8469 O   0  0  0  0  0  0  0  0  0  0  0  0
   -5.7120    0.1822    0.1872 C   0  0  0  0  0  0  0  0  0  0  0  0
   -6.7229    0.7539    1.1581 C   0  0  1  0  0  0  0  0  0  0  0  0
   -7.7456    1.2915    0.4279 O   0  0  0  0  0  0  0  0  0  0  0  0
   -8.9387    1.0026    1.0633 C   0  0  1  0  0  0  0  0  0  0  0  0
   -9.9878    0.7696    0.0894 N   0  0  0  0  0  0  0  0  0  0  0  0
  -10.0468    1.2375   -1.1786 C   0  0  0  0  0  0  0  0  0  0  0  0
  -11.1749    0.8159   -1.7945 N   0  0  0  0  0  0  0  0  0  0  0  0
  -11.8572    0.0585   -0.8995 C   0  0  0  0  0  0  0  0  0  0  0  0
  -13.0638   -0.5969   -1.0423 C   0  0  0  0  0  0  0  0  0  0  0  0
  -13.8374   -0.5811   -2.2338 N   0  0  0  0  0  0  0  0  0  0  0  0
  -13.4930   -1.2791    0.0395 N   0  0  0  0  0  0  0  0  0  0  0  0
  -12.7597   -1.2941    1.1687 C   0  0  0  0  0  0  0  0  0  0  0  0
  -11.5924   -0.6637    1.3163 N   0  0  0  0  0  0  0  0  0  0  0  0
  -11.1141    0.0344    0.2674 C   0  0  0  0  0  0  0  0  0  0  0  0
   -8.7280   -0.1618    1.9588 C   0  0  2  0  0  0  0  0  0  0  0  0
   -9.3663    0.0160    3.1914 O   0  0  0  0  0  0  0  0  0  0  0  0
   -7.2441   -0.2692    2.1051 C   0  0  2  0  0  0  0  0  0  0  0  0
   -6.8620    0.0318    3.4154 O   0  0  0  0  0  0  0  0  0  0  0  0
    8.5506   -0.4050   -0.1275 O   0  0  0  0  0  0  0  0  0  0  0  0
   10.6899    0.4239    0.0680 N   0  0  0  0  0  0  0  0  0  0  0  0
   11.1962   -0.5524   -0.7108 C   0  0  0  0  0  0  0  0  0  0  0  0
   12.5376   -0.6319   -0.9946 C   0  0  0  0  0  0  0  0  0  0  0  0
   12.9578   -1.7623   -1.8681 C   0  0  0  0  0  0  0  0  0  0  0  0
   13.4389    0.2965   -0.4885 C   0  0  0  0  0  0  0  0  0  0  0  0
   14.7751    0.1717   -0.8037 O   0  0  0  0  0  1  0  0  0  0  0  0
   12.8952    1.2675    0.2928 N   0  0  0  0  0  0  0  0  0  0  0  0
   11.5809    1.3176    0.5512 C   0  0  0  0  0  0  0  0  0  0  0  0
   11.2340    2.2754    1.2898 O   0  0  0  0  0  0  0  0  0  0  0  0
    9.2015    0.6269    1.5454 H   0  0  0  0  0  0  0  0  0  0  0  0
    8.8770    2.7287    0.5085 H   0  0  0  0  0  0  0  0  0  0  0  0
    9.0485    2.0550   -1.1721 H   0  0  0  0  0  0  0  0  0  0  0  0
    6.7230    1.8069   -1.0853 H   0  0  0  0  0  0  0  0  0  0  0  0
    6.8977   -0.3090    1.0282 H   0  0  0  0  0  0  0  0  0  0  0  0
    6.5887   -1.7743   -1.0071 H   0  0  0  0  0  0  0  0  0  0  0  0
    6.7746   -0.3517   -2.0429 H   0  0  0  0  0  0  0  0  0  0  0  0
   -0.1288   -0.9280   -1.6559 H   0  0  0  0  0  0  0  0  0  0  0  0
   -5.4515    0.9469   -0.5437 H   0  0  0  0  0  0  0  0  0  0  0  0
   -6.2109   -0.6500   -0.3503 H   0  0  0  0  0  0  0  0  0  0  0  0
   -6.2769    1.5930    1.7461 H   0  0  0  0  0  0  0  0  0  0  0  0
   -9.1972    1.9028    1.6827 H   0  0  0  0  0  0  0  0  0  0  0  0
   -9.3252    1.8636   -1.6841 H   0  0  0  0  0  0  0  0  0  0  0  0
  -13.3945   -1.4026   -2.7052 H   0  0  0  0  0  0  0  0  0  0  0  0
  -14.4435    0.2505   -2.0041 H   0  0  0  0  0  0  0  0  0  0  0  0
  -13.1768   -1.8673    1.9940 H   0  0  0  0  0  0  0  0  0  0  0  0
   -9.1356   -1.0955    1.5152 H   0  0  0  0  0  0  0  0  0  0  0  0
   -9.3149   -0.8758    3.6425 H   0  0  0  0  0  0  0  0  0  0  0  0
   -6.9192   -1.3038    1.8641 H   0  0  0  0  0  0  0  0  0  0  0  0
   -6.3843   -0.7366    3.8510 H   0  0  0  0  0  0  0  0  0  0  0  0
   10.4775   -1.2617   -1.0923 H   0  0  0  0  0  0  0  0  0  0  0  0
   12.3830   -2.6637   -1.5693 H   0  0  0  0  0  0  0  0  0  0  0  0
   14.0342   -1.9898   -1.7664 H   0  0  0  0  0  0  0  0  0  0  0  0
   12.6530   -1.5534   -2.9143 H   0  0  0  0  0  0  0  0  0  0  0  0
  1  2  1  0
  2  3  1  0
  3  4  1  0
  4  5  2  0
  5  6  2  0
  3  7  1  0
  7  8  1  0
  8  9  1  0
  9 10  1  0
 10 11  1  0
 10 12  2  0
 10 13  1  0
 13 14  1  0
 14 15  1  0
 14 16  2  0
 14 17  1  0
 17 18  1  0
 18 19  1  0
 18 20  2  0
 18 21  1  0
 21 22  1  0
 22 23  1  0
 22 24  2  0
 22 25  1  0
 25 26  1  0
 26 27  1  0
 26 28  2  0
 26 29  1  0
 29 30  1  0
 30 31  1  0
 31 32  1  0
 32 33  1  0
 33 34  1  0
 34 35  1  0
 35 36  2  0
 36 37  1  0
 37 38  2  0
 38 39  1  0
 38 40  1  0
 40 41  2  0
 41 42  1  0
 42 43  2  0
 33 44  1  0
 44 45  1  0
 44 46  1  0
 46 47  1  0
  7 48  1  0
  1 49  1  0
 49 50  1  0
 50 51  2  0
 51 52  1  0
 51 53  1  0
 53 54  1  0
 53 55  2  0
 55 56  1  0
 56 57  2  0
 48  1  1  0
 56 49  1  0
 46 31  1  0
 43 34  1  0
 43 37  1  0
  1 58  1  1
  2 59  1  0
  2 60  1  0
  3 61  1  6
  7 62  1  1
  8 63  1  0
  8 64  1  0
 19 65  1  0
 30 66  1  0
 30 67  1  0
 31 68  1  1
 33 69  1  1
 35 70  1  0
 39 71  1  0
 39 72  1  0
 41 73  1  0
 44 74  1  6
 45 75  1  0
 46 76  1  6
 47 77  1  0
 50 78  1  0
 52 79  1  0
 52 80  1  0
 52 81  1  0
M  CHG  7   5   1   6  -1  11  -1  15  -1  23  -1  27  -1  54  -1
M  END
$$$$
