@<TRIPOS>MOLECULE
*****
 62 65 0 0 0
SMALL
GASTEIGER

@<TRIPOS>ATOM
      1 C           6.5973    2.1183    1.1836 C.3     1  UNL1       -0.0029
      2 N           5.5305    2.7224    0.4134 N.pl3   1  UNL1       -0.3522
      3 C           4.3419    1.9999    0.1932 C.2     1  UNL1       -0.0016
      4 C           4.0147    1.3020   -0.8649 C.2     1  UNL1        0.0134
      5 C           4.8878    1.1923   -1.9896 C.2     1  UNL1        0.0276
      6 N           6.0004    1.7362   -2.1895 N.2     1  UNL1       -0.3068
      7 C           2.7693    0.5316   -0.8135 C.ar    1  UNL1       -0.0064
      8 C           2.3513    0.0886    0.4528 C.ar    1  UNL1       -0.0486
      9 C           1.2079   -0.6112    0.6564 C.ar    1  UNL1       -0.0251
     10 C           0.4246   -0.8992   -0.4338 C.ar    1  UNL1        0.0377
     11 C           0.7613   -0.4994   -1.7036 C.ar    1  UNL1       -0.0310
     12 C           1.9618    0.2311   -1.8633 C.ar    1  UNL1        0.0270
     13 C           2.1877    0.7983   -3.2236 C.3     1  UNL1        0.2650
     14 F           0.9474    1.3080   -3.6608 F       1  UNL1       -0.2039
     15 F           2.3952   -0.3032   -4.0631 F       1  UNL1       -0.2039
     16 N          -0.7761   -1.6451   -0.2208 N.pl3   1  UNL1       -0.2981
     17 C          -1.9076   -1.4266   -1.0543 C.ar    1  UNL1        0.0569
     18 C          -1.9870   -2.0763   -2.2819 C.ar    1  UNL1       -0.0384
     19 C          -3.0865   -1.9240   -3.0976 C.ar    1  UNL1       -0.0581
     20 C          -4.1406   -1.1238   -2.7210 C.ar    1  UNL1       -0.0386
     21 C          -4.1034   -0.4619   -1.5136 C.ar    1  UNL1        0.0563
     22 C          -2.9717   -0.6315   -0.6996 C.ar    1  UNL1        0.0705
     23 N          -2.7473   -0.0045    0.5567 N.pl3   1  UNL1       -0.3379
     24 C          -3.4846    1.1052    1.1138 C.3     1  UNL1        0.0262
     25 C          -2.8509    1.6236    2.3787 C.3     1  UNL1       -0.0463
     26 C          -4.9173    0.7395    1.3264 C.3     1  UNL1        0.0423
     27 C          -5.6792    0.7439    0.0240 C.2     1  UNL1        0.2190
     28 O          -6.8396    1.1998    0.1393 O.2     1  UNL1       -0.2754
     29 N          -5.2607    0.3142   -1.2565 N.am    1  UNL1       -0.2839
     30 C          -0.8393   -2.5995    0.8329 C.3     1  UNL1        0.0202
     31 C           0.0102   -2.3278    2.0230 C.3     1  UNL1       -0.0237
     32 C          -0.8102   -2.3544    3.3198 C.3     1  UNL1       -0.0607
     33 C           0.7635   -1.0555    2.0088 C.3     1  UNL1       -0.0219
     34 H           7.5478    2.5338    0.8210 H       1  UNL1        0.0425
     35 H           6.6460    1.0090    1.0048 H       1  UNL1        0.0425
     36 H           6.4664    2.2347    2.2729 H       1  UNL1        0.0425
     37 H           5.6464    3.6741    0.0521 H       1  UNL1        0.1452
     38 H           3.6246    2.0769    1.0475 H       1  UNL1        0.0784
     39 H           4.6303    0.4772   -2.8303 H       1  UNL1        0.0829
     40 H           6.5205    2.3575   -1.6212 H       1  UNL1        0.1860
     41 H           2.9486    0.2812    1.3555 H       1  UNL1        0.0627
     42 H           0.1268   -0.7284   -2.5437 H       1  UNL1        0.0641
     43 H           2.9214    1.5653   -3.3268 H       1  UNL1        0.1072
     44 H          -1.1434   -2.7096   -2.5507 H       1  UNL1        0.0637
     45 H          -3.1326   -2.4344   -4.0468 H       1  UNL1        0.0619
     46 H          -5.0349   -0.9780   -3.3450 H       1  UNL1        0.0637
     47 H          -1.9494   -0.3968    1.1254 H       1  UNL1        0.1465
     48 H          -3.4254    1.9545    0.3712 H       1  UNL1        0.0499
     49 H          -2.8937    0.9265    3.2203 H       1  UNL1        0.0248
     50 H          -1.8081    1.9329    2.1238 H       1  UNL1        0.0248
     51 H          -3.3787    2.5597    2.6537 H       1  UNL1        0.0248
     52 H          -5.3700    1.5371    1.9480 H       1  UNL1        0.0376
     53 H          -4.9673   -0.2599    1.8018 H       1  UNL1        0.0376
     54 H          -5.8267    0.5743   -2.0642 H       1  UNL1        0.1549
     55 H          -0.5809   -3.6003    0.3641 H       1  UNL1        0.0470
     56 H          -1.8951   -2.7277    1.1776 H       1  UNL1        0.0470
     57 H           0.7688   -3.1622    2.1037 H       1  UNL1        0.0316
     58 H          -1.6575   -3.0245    3.1413 H       1  UNL1        0.0233
     59 H          -0.1683   -2.7991    4.1243 H       1  UNL1        0.0233
     60 H          -1.1247   -1.3213    3.5649 H       1  UNL1        0.0233
     61 H           1.6574   -1.1320    2.6824 H       1  UNL1        0.0317
     62 H           0.1014   -0.2314    2.4003 H       1  UNL1        0.0317
@<TRIPOS>BOND
     1     1     2    1
     2     2     3    1
     3     3     4    2
     4     4     5    1
     5     5     6    2
     6     4     7    1
     7     7     8   ar
     8     8     9   ar
     9     9    10   ar
    10    10    11   ar
    11    11    12   ar
    12    12    13    1
    13    13    14    1
    14    13    15    1
    15    10    16    1
    16    16    17    1
    17    17    18   ar
    18    18    19   ar
    19    19    20   ar
    20    20    21   ar
    21    21    22   ar
    22    22    23    1
    23    23    24    1
    24    24    25    1
    25    24    26    1
    26    26    27    1
    27    27    28    2
    28    27    29   am
    29    16    30    1
    30    30    31    1
    31    31    32    1
    32    31    33    1
    33    12     7   ar
    34    22    17   ar
    35    33     9    1
    36    29    21    1
    37     1    34    1
    38     1    35    1
    39     1    36    1
    40     2    37    1
    41     3    38    1
    42     5    39    1
    43     6    40    1
    44     8    41    1
    45    11    42    1
    46    13    43    1
    47    18    44    1
    48    19    45    1
    49    20    46    1
    50    23    47    1
    51    24    48    1
    52    25    49    1
    53    25    50    1
    54    25    51    1
    55    26    52    1
    56    26    53    1
    57    29    54    1
    58    30    55    1
    59    30    56    1
    60    31    57    1
    61    32    58    1
    62    32    59    1
    63    32    60    1
    64    33    61    1
    65    33    62    1
