@<TRIPOS>MOLECULE
*****
 42 44 0 0 0
SMALL
GASTEIGER

@<TRIPOS>ATOM
      1 F           8.7007    1.3131    0.3322 F       1  UNL1       -0.2055
      2 C           7.5556    0.6678   -0.0433 C.ar    1  UNL1        0.1236
      3 C           6.8794    1.0544   -1.1684 C.ar    1  UNL1       -0.0230
      4 C           5.7233    0.3822   -1.5232 C.ar    1  UNL1       -0.0166
      5 C           5.2543   -0.6615   -0.7598 C.ar    1  UNL1        0.1286
      6 O           4.0820   -1.3278   -1.1376 O.3     1  UNL1       -0.4560
      7 C           2.8658   -0.8964   -0.6783 C.ar    1  UNL1        0.1287
      8 C           2.7083    0.1837    0.1577 C.ar    1  UNL1       -0.0159
      9 C           1.4467    0.5839    0.5983 C.ar    1  UNL1       -0.0165
     10 C           0.3205   -0.0989    0.2031 C.ar    1  UNL1        0.1208
     11 O          -0.8971    0.3525    0.6776 O.3     1  UNL1       -0.4907
     12 C          -2.1338   -0.2698    0.3402 C.3     1  UNL1        0.1022
     13 C          -3.2174    0.4906    1.0347 C.3     1  UNL1        0.0331
     14 N          -4.5380   -0.0326    0.7815 N.3     1  UNL1       -0.2991
     15 C          -5.5727    0.6925    1.4440 C.3     1  UNL1       -0.0010
     16 C          -6.6017    1.0838    0.4182 C.3     1  UNL1       -0.0390
     17 C          -6.3939    0.0303   -0.6503 C.3     1  UNL1       -0.0390
     18 C          -4.8674   -0.1140   -0.6146 C.3     1  UNL1       -0.0010
     19 C           0.4725   -1.1744   -0.6289 C.ar    1  UNL1       -0.0165
     20 C           1.7201   -1.5659   -1.0614 C.ar    1  UNL1       -0.0159
     21 C           5.9444   -1.0371    0.3661 C.ar    1  UNL1       -0.0166
     22 C           7.0795   -0.3678    0.7035 C.ar    1  UNL1       -0.0230
     23 H           7.2137    1.8733   -1.8007 H       1  UNL1        0.0647
     24 H           5.1702    0.6682   -2.4079 H       1  UNL1        0.0655
     25 H           3.5881    0.7247    0.4723 H       1  UNL1        0.0655
     26 H           1.4338    1.4470    1.2541 H       1  UNL1        0.0655
     27 H          -2.1690   -1.3170    0.7048 H       1  UNL1        0.0709
     28 H          -2.2035   -0.2120   -0.7690 H       1  UNL1        0.0709
     29 H          -3.0363    0.4115    2.1265 H       1  UNL1        0.0460
     30 H          -3.1401    1.5763    0.7855 H       1  UNL1        0.0460
     31 H          -6.0760   -0.0139    2.1584 H       1  UNL1        0.0427
     32 H          -5.2110    1.5526    2.0386 H       1  UNL1        0.0427
     33 H          -6.4636    2.1109    0.0256 H       1  UNL1        0.0278
     34 H          -7.6192    0.9967    0.8595 H       1  UNL1        0.0278
     35 H          -6.8360   -0.9059   -0.2703 H       1  UNL1        0.0278
     36 H          -6.7552    0.3366   -1.6388 H       1  UNL1        0.0278
     37 H          -4.6532   -1.1480   -0.9594 H       1  UNL1        0.0427
     38 H          -4.3990    0.6569   -1.2362 H       1  UNL1        0.0427
     39 H          -0.3843   -1.7179   -0.9478 H       1  UNL1        0.0655
     40 H           1.8237   -2.4316   -1.7290 H       1  UNL1        0.0655
     41 H           5.5701   -1.8519    0.9540 H       1  UNL1        0.0655
     42 H           7.6157   -0.6680    1.5882 H       1  UNL1        0.0647
@<TRIPOS>BOND
     1     1     2    1
     2     2     3   ar
     3     3     4   ar
     4     4     5   ar
     5     5     6    1
     6     6     7    1
     7     7     8   ar
     8     8     9   ar
     9     9    10   ar
    10    10    11    1
    11    11    12    1
    12    12    13    1
    13    13    14    1
    14    14    15    1
    15    15    16    1
    16    16    17    1
    17    17    18    1
    18    10    19   ar
    19    19    20   ar
    20     5    21   ar
    21    21    22   ar
    22    22     2   ar
    23    20     7   ar
    24    18    14    1
    25     3    23    1
    26     4    24    1
    27     8    25    1
    28     9    26    1
    29    12    27    1
    30    12    28    1
    31    13    29    1
    32    13    30    1
    33    15    31    1
    34    15    32    1
    35    16    33    1
    36    16    34    1
    37    17    35    1
    38    17    36    1
    39    18    37    1
    40    18    38    1
    41    19    39    1
    42    20    40    1
    43    21    41    1
    44    22    42    1
