
     RDKit          3D

 42 44  0  0  0  0  0  0  0  0999 V2000
    8.7007    1.3131    0.3322 F   0  0  0  0  0  0  0  0  0  0  0  0
    7.5556    0.6678   -0.0433 C   0  0  0  0  0  0  0  0  0  0  0  0
    6.8794    1.0544   -1.1684 C   0  0  0  0  0  0  0  0  0  0  0  0
    5.7233    0.3822   -1.5232 C   0  0  0  0  0  0  0  0  0  0  0  0
    5.2543   -0.6615   -0.7598 C   0  0  0  0  0  0  0  0  0  0  0  0
    4.0820   -1.3278   -1.1376 O   0  0  0  0  0  0  0  0  0  0  0  0
    2.8658   -0.8964   -0.6783 C   0  0  0  0  0  0  0  0  0  0  0  0
    2.7083    0.1837    0.1577 C   0  0  0  0  0  0  0  0  0  0  0  0
    1.4467    0.5839    0.5983 C   0  0  0  0  0  0  0  0  0  0  0  0
    0.3205   -0.0989    0.2031 C   0  0  0  0  0  0  0  0  0  0  0  0
   -0.8971    0.3525    0.6776 O   0  0  0  0  0  0  0  0  0  0  0  0
   -2.1338   -0.2698    0.3402 C   0  0  0  0  0  0  0  0  0  0  0  0
   -3.2174    0.4906    1.0347 C   0  0  0  0  0  0  0  0  0  0  0  0
   -4.5380   -0.0326    0.7815 N   0  0  0  0  0  0  0  0  0  0  0  0
   -5.5727    0.6925    1.4440 C   0  0  0  0  0  0  0  0  0  0  0  0
   -6.6017    1.0838    0.4182 C   0  0  0  0  0  0  0  0  0  0  0  0
   -6.3939    0.0303   -0.6503 C   0  0  0  0  0  0  0  0  0  0  0  0
   -4.8674   -0.1140   -0.6146 C   0  0  0  0  0  0  0  0  0  0  0  0
    0.4725   -1.1744   -0.6289 C   0  0  0  0  0  0  0  0  0  0  0  0
    1.7201   -1.5659   -1.0614 C   0  0  0  0  0  0  0  0  0  0  0  0
    5.9444   -1.0371    0.3661 C   0  0  0  0  0  0  0  0  0  0  0  0
    7.0795   -0.3678    0.7035 C   0  0  0  0  0  0  0  0  0  0  0  0
    7.2137    1.8733   -1.8007 H   0  0  0  0  0  0  0  0  0  0  0  0
    5.1702    0.6682   -2.4079 H   0  0  0  0  0  0  0  0  0  0  0  0
    3.5881    0.7247    0.4723 H   0  0  0  0  0  0  0  0  0  0  0  0
    1.4338    1.4470    1.2541 H   0  0  0  0  0  0  0  0  0  0  0  0
   -2.1690   -1.3170    0.7048 H   0  0  0  0  0  0  0  0  0  0  0  0
   -2.2035   -0.2120   -0.7690 H   0  0  0  0  0  0  0  0  0  0  0  0
   -3.0363    0.4115    2.1265 H   0  0  0  0  0  0  0  0  0  0  0  0
   -3.1401    1.5763    0.7855 H   0  0  0  0  0  0  0  0  0  0  0  0
   -6.0760   -0.0139    2.1584 H   0  0  0  0  0  0  0  0  0  0  0  0
   -5.2110    1.5526    2.0386 H   0  0  0  0  0  0  0  0  0  0  0  0
   -6.4636    2.1109    0.0256 H   0  0  0  0  0  0  0  0  0  0  0  0
   -7.6192    0.9967    0.8595 H   0  0  0  0  0  0  0  0  0  0  0  0
   -6.8360   -0.9059   -0.2703 H   0  0  0  0  0  0  0  0  0  0  0  0
   -6.7552    0.3366   -1.6388 H   0  0  0  0  0  0  0  0  0  0  0  0
   -4.6532   -1.1480   -0.9594 H   0  0  0  0  0  0  0  0  0  0  0  0
   -4.3990    0.6569   -1.2362 H   0  0  0  0  0  0  0  0  0  0  0  0
   -0.3843   -1.7179   -0.9478 H   0  0  0  0  0  0  0  0  0  0  0  0
    1.8237   -2.4316   -1.7290 H   0  0  0  0  0  0  0  0  0  0  0  0
    5.5701   -1.8519    0.9540 H   0  0  0  0  0  0  0  0  0  0  0  0
    7.6157   -0.6680    1.5882 H   0  0  0  0  0  0  0  0  0  0  0  0
  1  2  1  0
  2  3  2  0
  3  4  1  0
  4  5  2  0
  5  6  1  0
  6  7  1  0
  7  8  2  0
  8  9  1  0
  9 10  2  0
 10 11  1  0
 11 12  1  0
 12 13  1  0
 13 14  1  0
 14 15  1  0
 15 16  1  0
 16 17  1  0
 17 18  1  0
 10 19  1  0
 19 20  2  0
  5 21  1  0
 21 22  2  0
 22  2  1  0
 20  7  1  0
 18 14  1  0
  3 23  1  0
  4 24  1  0
  8 25  1  0
  9 26  1  0
 12 27  1  0
 12 28  1  0
 13 29  1  0
 13 30  1  0
 15 31  1  0
 15 32  1  0
 16 33  1  0
 16 34  1  0
 17 35  1  0
 17 36  1  0
 18 37  1  0
 18 38  1  0
 19 39  1  0
 20 40  1  0
 21 41  1  0
 22 42  1  0
M  END
$$$$
