
     RDKit          3D

 66 69  0  0  0  0  0  0  0  0999 V2000
    0.1891    3.0412    2.1424 C   0  0  0  0  0  0  0  0  0  0  0  0
    0.3073    2.5023    0.7136 C   0  0  1  0  0  0  0  0  0  0  0  0
    1.5997    1.7973    0.5337 C   0  0  0  0  0  0  0  0  0  0  0  0
    2.5894    1.8570    1.4910 C   0  0  0  0  0  0  0  0  0  0  0  0
    3.7992    1.2123    1.3528 C   0  0  0  0  0  0  0  0  0  0  0  0
    4.0832    0.4538    0.2133 C   0  0  0  0  0  0  0  0  0  0  0  0
    5.3719   -0.2211    0.0875 C   0  0  0  0  0  0  0  0  0  0  0  0
    5.6841   -0.9627   -0.9973 C   0  0  0  0  0  0  0  0  0  0  0  0
    6.9246   -1.6065   -1.1077 C   0  0  0  0  0  0  0  0  0  0  0  0
    7.8272   -1.4667   -0.0790 C   0  0  0  0  0  0  0  0  0  0  0  0
    9.1444   -2.1196   -0.1403 C   0  0  0  0  0  0  0  0  0  0  0  0
    9.5247   -2.9066   -1.2483 N   0  0  0  0  0  0  0  0  0  0  0  0
    9.9210   -1.9608    0.8144 O   0  0  0  0  0  0  0  0  0  0  0  0
    7.4505   -0.6988    0.9983 C   0  0  0  0  0  0  0  0  0  0  0  0
    6.2581   -0.0886    1.0887 N   0  0  0  0  0  0  0  0  0  0  0  0
    3.0973    0.3947   -0.7398 C   0  0  0  0  0  0  0  0  0  0  0  0
    1.8787    1.0500   -0.5896 C   0  0  0  0  0  0  0  0  0  0  0  0
   -0.8228    1.6976    0.3575 N   0  0  0  0  0  0  0  0  0  0  0  0
   -1.7467    2.1095   -0.7010 C   0  0  0  0  0  0  0  0  0  0  0  0
   -2.1277    0.8429   -1.4292 C   0  0  0  0  0  0  0  0  0  0  0  0
   -3.0028   -0.0631   -0.5457 C   0  0  2  0  0  0  0  0  0  0  0  0
   -3.0823   -1.3850   -1.2008 C   0  0  0  0  0  0  0  0  0  0  0  0
   -3.8501   -2.4573   -0.5395 C   0  0  0  0  0  0  0  0  0  0  0  0
   -5.2924   -2.2373   -0.2830 C   0  0  0  0  0  0  0  0  0  0  0  0
   -3.2034   -2.9479    0.7491 C   0  0  0  0  0  0  0  0  0  0  0  0
   -3.7788   -3.5823   -1.4042 O   0  0  0  0  0  0  0  0  0  0  0  0
   -4.3018    0.6773   -0.4672 C   0  0  0  0  0  0  0  0  0  0  0  0
   -5.1747    0.5653   -1.5149 C   0  0  0  0  0  0  0  0  0  0  0  0
   -6.4091    1.2245   -1.5120 C   0  0  0  0  0  0  0  0  0  0  0  0
   -6.7335    2.0022   -0.4139 C   0  0  0  0  0  0  0  0  0  0  0  0
   -5.8367    2.0989    0.6290 C   0  0  0  0  0  0  0  0  0  0  0  0
   -4.6276    1.4495    0.6194 C   0  0  0  0  0  0  0  0  0  0  0  0
   -2.3697   -0.0966    0.7205 O   0  0  0  0  0  0  0  0  0  0  0  0
   -1.1321    0.4604    0.9886 C   0  0  0  0  0  0  0  0  0  0  0  0
   -0.2708   -0.0513    1.7472 O   0  0  0  0  0  0  0  0  0  0  0  0
    0.9327    3.8604    2.2199 H   0  0  0  0  0  0  0  0  0  0  0  0
    0.4235    2.2942    2.8996 H   0  0  0  0  0  0  0  0  0  0  0  0
   -0.8007    3.5220    2.2779 H   0  0  0  0  0  0  0  0  0  0  0  0
    0.3042    3.4033    0.0657 H   0  0  0  0  0  0  0  0  0  0  0  0
    2.3859    2.4499    2.3969 H   0  0  0  0  0  0  0  0  0  0  0  0
    4.5671    1.2696    2.1156 H   0  0  0  0  0  0  0  0  0  0  0  0
    4.9842   -1.0834   -1.8174 H   0  0  0  0  0  0  0  0  0  0  0  0
    7.1739   -2.1950   -1.9672 H   0  0  0  0  0  0  0  0  0  0  0  0
    9.4460   -3.9444   -1.2954 H   0  0  0  0  0  0  0  0  0  0  0  0
    9.9144   -2.4189   -2.0859 H   0  0  0  0  0  0  0  0  0  0  0  0
    8.2021   -0.6131    1.7991 H   0  0  0  0  0  0  0  0  0  0  0  0
    3.2297   -0.1619   -1.6414 H   0  0  0  0  0  0  0  0  0  0  0  0
    1.1062    0.9980   -1.3471 H   0  0  0  0  0  0  0  0  0  0  0  0
   -1.2310    2.7539   -1.4408 H   0  0  0  0  0  0  0  0  0  0  0  0
   -2.6117    2.6016   -0.2358 H   0  0  0  0  0  0  0  0  0  0  0  0
   -2.7108    1.1122   -2.3477 H   0  0  0  0  0  0  0  0  0  0  0  0
   -1.2375    0.2526   -1.6670 H   0  0  0  0  0  0  0  0  0  0  0  0
   -2.0288   -1.7595   -1.3081 H   0  0  0  0  0  0  0  0  0  0  0  0
   -3.4481   -1.2755   -2.2425 H   0  0  0  0  0  0  0  0  0  0  0  0
   -5.5404   -1.4614    0.4665 H   0  0  0  0  0  0  0  0  0  0  0  0
   -5.8941   -2.1853   -1.2146 H   0  0  0  0  0  0  0  0  0  0  0  0
   -5.6667   -3.1957    0.2078 H   0  0  0  0  0  0  0  0  0  0  0  0
   -2.1425   -3.1396    0.5592 H   0  0  0  0  0  0  0  0  0  0  0  0
   -3.7061   -3.9352    0.9690 H   0  0  0  0  0  0  0  0  0  0  0  0
   -3.4208   -2.2979    1.5984 H   0  0  0  0  0  0  0  0  0  0  0  0
   -4.2589   -3.3099   -2.2327 H   0  0  0  0  0  0  0  0  0  0  0  0
   -5.0003   -0.0219   -2.4159 H   0  0  0  0  0  0  0  0  0  0  0  0
   -7.1007    1.1367   -2.3405 H   0  0  0  0  0  0  0  0  0  0  0  0
   -7.6881    2.5079   -0.4192 H   0  0  0  0  0  0  0  0  0  0  0  0
   -6.1178    2.7124    1.4707 H   0  0  0  0  0  0  0  0  0  0  0  0
   -3.9525    1.5394    1.4383 H   0  0  0  0  0  0  0  0  0  0  0  0
  1  2  1  0
  2  3  1  0
  3  4  2  0
  4  5  1  0
  5  6  2  0
  6  7  1  0
  7  8  2  0
  8  9  1  0
  9 10  2  0
 10 11  1  0
 11 12  1  0
 11 13  2  0
 10 14  1  0
 14 15  2  0
  6 16  1  0
 16 17  2  0
  2 18  1  0
 18 19  1  0
 19 20  1  0
 20 21  1  0
 21 22  1  6
 22 23  1  0
 23 24  1  0
 23 25  1  0
 23 26  1  0
 21 27  1  0
 27 28  2  0
 28 29  1  0
 29 30  2  0
 30 31  1  0
 31 32  2  0
 21 33  1  0
 33 34  1  0
 34 35  2  0
 17  3  1  0
 34 18  1  0
 15  7  1  0
 32 27  1  0
  1 36  1  0
  1 37  1  0
  1 38  1  0
  2 39  1  6
  4 40  1  0
  5 41  1  0
  8 42  1  0
  9 43  1  0
 12 44  1  0
 12 45  1  0
 14 46  1  0
 16 47  1  0
 17 48  1  0
 19 49  1  0
 19 50  1  0
 20 51  1  0
 20 52  1  0
 22 53  1  0
 22 54  1  0
 24 55  1  0
 24 56  1  0
 24 57  1  0
 25 58  1  0
 25 59  1  0
 25 60  1  0
 26 61  1  0
 28 62  1  0
 29 63  1  0
 30 64  1  0
 31 65  1  0
 32 66  1  0
M  END
$$$$
