@<TRIPOS>MOLECULE
*****
 66 69 0 0 0
SMALL
GASTEIGER

@<TRIPOS>ATOM
      1 C           0.1891    3.0412    2.1424 C.3     1  UNL1       -0.0421
      2 C           0.3073    2.5023    0.7136 C.3     1  UNL1        0.0515
      3 C           1.5997    1.7973    0.5337 C.ar    1  UNL1       -0.0271
      4 C           2.5894    1.8570    1.4910 C.ar    1  UNL1       -0.0562
      5 C           3.7992    1.2123    1.3528 C.ar    1  UNL1       -0.0523
      6 C           4.0832    0.4538    0.2133 C.ar    1  UNL1        0.0004
      7 C           5.3719   -0.2211    0.0875 C.ar    1  UNL1        0.0710
      8 C           5.6841   -0.9627   -0.9973 C.ar    1  UNL1       -0.0350
      9 C           6.9246   -1.6065   -1.1077 C.ar    1  UNL1       -0.0462
     10 C           7.8272   -1.4667   -0.0790 C.ar    1  UNL1        0.0546
     11 C           9.1444   -2.1196   -0.1403 C.2     1  UNL1        0.2430
     12 N           9.5247   -2.9066   -1.2483 N.am    1  UNL1       -0.3253
     13 O           9.9210   -1.9608    0.8144 O.2     1  UNL1       -0.2704
     14 C           7.4505   -0.6988    0.9983 C.ar    1  UNL1        0.0403
     15 N           6.2581   -0.0886    1.0887 N.ar    1  UNL1       -0.2542
     16 C           3.0973    0.3947   -0.7398 C.ar    1  UNL1       -0.0523
     17 C           1.8787    1.0500   -0.5896 C.ar    1  UNL1       -0.0562
     18 N          -0.8228    1.6976    0.3575 N.am    1  UNL1       -0.2605
     19 C          -1.7467    2.1095   -0.7010 C.3     1  UNL1        0.0224
     20 C          -2.1277    0.8429   -1.4292 C.3     1  UNL1        0.0076
     21 C          -3.0028   -0.0631   -0.5457 C.3     1  UNL1        0.1440
     22 C          -3.0823   -1.3850   -1.2008 C.3     1  UNL1        0.0199
     23 C          -3.8501   -2.4573   -0.5395 C.3     1  UNL1        0.0645
     24 C          -5.2924   -2.2373   -0.2830 C.3     1  UNL1       -0.0362
     25 C          -3.2034   -2.9479    0.7491 C.3     1  UNL1       -0.0362
     26 O          -3.7788   -3.5823   -1.4042 O.3     1  UNL1       -0.3890
     27 C          -4.3018    0.6773   -0.4672 C.ar    1  UNL1       -0.0040
     28 C          -5.1747    0.5653   -1.5149 C.ar    1  UNL1       -0.0548
     29 C          -6.4091    1.2245   -1.5120 C.ar    1  UNL1       -0.0614
     30 C          -6.7335    2.0022   -0.4139 C.ar    1  UNL1       -0.0617
     31 C          -5.8367    2.0989    0.6290 C.ar    1  UNL1       -0.0614
     32 C          -4.6276    1.4495    0.6194 C.ar    1  UNL1       -0.0548
     33 O          -2.3697   -0.0966    0.7205 O.3     1  UNL1       -0.4387
     34 C          -1.1321    0.4604    0.9886 C.2     1  UNL1        0.4042
     35 O          -0.2708   -0.0513    1.7472 O.2     1  UNL1       -0.2262
     36 H           0.9327    3.8604    2.2199 H       1  UNL1        0.0251
     37 H           0.4235    2.2942    2.8996 H       1  UNL1        0.0251
     38 H          -0.8007    3.5220    2.2779 H       1  UNL1        0.0251
     39 H           0.3042    3.4033    0.0657 H       1  UNL1        0.0549
     40 H           2.3859    2.4499    2.3969 H       1  UNL1        0.0621
     41 H           4.5671    1.2696    2.1156 H       1  UNL1        0.0624
     42 H           4.9842   -1.0834   -1.8174 H       1  UNL1        0.0639
     43 H           7.1739   -2.1950   -1.9672 H       1  UNL1        0.0626
     44 H           9.4460   -3.9444   -1.2954 H       1  UNL1        0.1453
     45 H           9.9144   -2.4189   -2.0859 H       1  UNL1        0.1453
     46 H           8.2021   -0.6131    1.7991 H       1  UNL1        0.0837
     47 H           3.2297   -0.1619   -1.6414 H       1  UNL1        0.0624
     48 H           1.1062    0.9980   -1.3471 H       1  UNL1        0.0621
     49 H          -1.2310    2.7539   -1.4408 H       1  UNL1        0.0467
     50 H          -2.6117    2.6016   -0.2358 H       1  UNL1        0.0467
     51 H          -2.7108    1.1122   -2.3477 H       1  UNL1        0.0322
     52 H          -1.2375    0.2526   -1.6670 H       1  UNL1        0.0322
     53 H          -2.0288   -1.7595   -1.3081 H       1  UNL1        0.0335
     54 H          -3.4481   -1.2755   -2.2425 H       1  UNL1        0.0335
     55 H          -5.5404   -1.4614    0.4665 H       1  UNL1        0.0257
     56 H          -5.8941   -2.1853   -1.2146 H       1  UNL1        0.0257
     57 H          -5.6667   -3.1957    0.2078 H       1  UNL1        0.0257
     58 H          -2.1425   -3.1396    0.5592 H       1  UNL1        0.0257
     59 H          -3.7061   -3.9352    0.9690 H       1  UNL1        0.0257
     60 H          -3.4208   -2.2979    1.5984 H       1  UNL1        0.0257
     61 H          -4.2589   -3.3099   -2.2327 H       1  UNL1        0.2101
     62 H          -5.0003   -0.0219   -2.4159 H       1  UNL1        0.0622
     63 H          -7.1007    1.1367   -2.3405 H       1  UNL1        0.0618
     64 H          -7.6881    2.5079   -0.4192 H       1  UNL1        0.0618
     65 H          -6.1178    2.7124    1.4707 H       1  UNL1        0.0618
     66 H          -3.9525    1.5394    1.4383 H       1  UNL1        0.0622
@<TRIPOS>BOND
     1     1     2    1
     2     2     3    1
     3     3     4   ar
     4     4     5   ar
     5     5     6   ar
     6     6     7    1
     7     7     8   ar
     8     8     9   ar
     9     9    10   ar
    10    10    11    1
    11    11    12   am
    12    11    13    2
    13    10    14   ar
    14    14    15   ar
    15     6    16   ar
    16    16    17   ar
    17     2    18    1
    18    18    19    1
    19    19    20    1
    20    20    21    1
    21    21    22    1
    22    22    23    1
    23    23    24    1
    24    23    25    1
    25    23    26    1
    26    21    27    1
    27    27    28   ar
    28    28    29   ar
    29    29    30   ar
    30    30    31   ar
    31    31    32   ar
    32    21    33    1
    33    33    34    1
    34    34    35    2
    35    17     3   ar
    36    34    18   am
    37    15     7   ar
    38    32    27   ar
    39     1    36    1
    40     1    37    1
    41     1    38    1
    42     2    39    1
    43     4    40    1
    44     5    41    1
    45     8    42    1
    46     9    43    1
    47    12    44    1
    48    12    45    1
    49    14    46    1
    50    16    47    1
    51    17    48    1
    52    19    49    1
    53    19    50    1
    54    20    51    1
    55    20    52    1
    56    22    53    1
    57    22    54    1
    58    24    55    1
    59    24    56    1
    60    24    57    1
    61    25    58    1
    62    25    59    1
    63    25    60    1
    64    26    61    1
    65    28    62    1
    66    29    63    1
    67    30    64    1
    68    31    65    1
    69    32    66    1
