@<TRIPOS>MOLECULE
*****
 48 51 0 0 0
SMALL
GASTEIGER

@<TRIPOS>ATOM
      1 C          -1.4695    0.6312   -1.1310 C.3     1  UNL1       -0.0354
      2 C          -1.8930   -0.5247   -0.2138 C.3     1  UNL1        0.0903
      3 C          -0.6368   -1.1657    0.2799 C.ar    1  UNL1        0.0167
      4 C           0.6273   -0.6902   -0.0150 C.ar    1  UNL1       -0.0323
      5 C           1.7855   -1.2525    0.4337 C.ar    1  UNL1        0.0342
      6 N           3.1003   -0.7973    0.1552 N.am    1  UNL1       -0.2802
      7 C           3.4753    0.3029   -0.6238 C.2     1  UNL1        0.2666
      8 O           2.6143    1.0105   -1.1665 O.2     1  UNL1       -0.2682
      9 C           4.8943    0.6693   -0.8344 C.ar    1  UNL1        0.1257
     10 C           5.2581    1.7434   -1.5950 C.ar    1  UNL1       -0.0298
     11 C           6.5972    2.0930   -1.7964 C.ar    1  UNL1       -0.0397
     12 C           7.5702    1.3185   -1.2013 C.ar    1  UNL1        0.0591
     13 CL          9.2778    1.6869   -1.4024 Cl      1  UNL1       -0.0820
     14 C           7.1648    0.2422   -0.4407 C.ar    1  UNL1        0.0467
     15 N           5.8549   -0.0733   -0.2627 N.ar    1  UNL1       -0.2489
     16 C           1.6489   -2.3860    1.2450 C.ar    1  UNL1       -0.0377
     17 C           0.4303   -2.9038    1.5719 C.ar    1  UNL1       -0.0243
     18 C          -0.6930   -2.2951    1.0908 C.ar    1  UNL1        0.1290
     19 F          -1.9162   -2.7859    1.3850 F       1  UNL1       -0.2051
     20 C          -2.6206    0.0263    0.9537 C.3     1  UNL1       -0.0085
     21 C          -3.9334    0.6776    0.6292 C.3     1  UNL1        0.0263
     22 C          -4.8671    0.6383    1.7975 C.3     1  UNL1       -0.0378
     23 C          -4.4885    2.0731    2.1010 C.3     1  UNL1       -0.0505
     24 C          -3.9482    2.1876    0.7010 C.3     1  UNL1       -0.0378
     25 S          -4.6212    0.1091   -0.9433 S.3     1  UNL1       -0.0842
     26 C          -3.7884   -1.4080   -1.3659 C.2     1  UNL1        0.1480
     27 N          -4.3870   -2.4614   -2.1073 N.pl3   1  UNL1       -0.3380
     28 N          -2.5796   -1.5374   -0.9689 N.2     1  UNL1       -0.2524
     29 H          -0.8115    0.2518   -1.9318 H       1  UNL1        0.0256
     30 H          -2.3750    1.0963   -1.5947 H       1  UNL1        0.0256
     31 H          -0.8991    1.3640   -0.5331 H       1  UNL1        0.0256
     32 H           0.6875    0.1846   -0.6415 H       1  UNL1        0.0640
     33 H           3.8989   -1.3496    0.5835 H       1  UNL1        0.1552
     34 H           4.4543    2.3247   -2.0444 H       1  UNL1        0.0641
     35 H           6.8540    2.9499   -2.4044 H       1  UNL1        0.0633
     36 H           7.9508   -0.3498    0.0157 H       1  UNL1        0.0844
     37 H           2.5190   -2.9068    1.6531 H       1  UNL1        0.0637
     38 H           0.3232   -3.7912    2.2070 H       1  UNL1        0.0647
     39 H          -2.7150   -0.7187    1.7616 H       1  UNL1        0.0305
     40 H          -1.9701    0.8404    1.3867 H       1  UNL1        0.0305
     41 H          -4.5097   -0.0005    2.6563 H       1  UNL1        0.0279
     42 H          -5.9306    0.5104    1.5982 H       1  UNL1        0.0279
     43 H          -3.7043    2.2037    2.8662 H       1  UNL1        0.0266
     44 H          -5.3643    2.6882    2.3448 H       1  UNL1        0.0266
     45 H          -4.6885    2.6517    0.0215 H       1  UNL1        0.0279
     46 H          -2.9618    2.6547    0.5892 H       1  UNL1        0.0279
     47 H          -3.9831   -2.7529   -3.0243 H       1  UNL1        0.1442
     48 H          -5.2312   -2.9796   -1.7849 H       1  UNL1        0.1442
@<TRIPOS>BOND
     1     2     1    1
     2     2     3    1
     3     3     4   ar
     4     4     5   ar
     5     5     6    1
     6     6     7   am
     7     7     8    2
     8     7     9    1
     9     9    10   ar
    10    10    11   ar
    11    11    12   ar
    12    12    13    1
    13    12    14   ar
    14    14    15   ar
    15     5    16   ar
    16    16    17   ar
    17    17    18   ar
    18    18    19    1
    19     2    20    1
    20    20    21    1
    21    21    22    1
    22    22    23    1
    23    23    24    1
    24    21    25    1
    25    25    26    1
    26    26    27    1
    27    26    28    2
    28    28     2    1
    29    18     3   ar
    30    24    21    1
    31    15     9   ar
    32     1    29    1
    33     1    30    1
    34     1    31    1
    35     4    32    1
    36     6    33    1
    37    10    34    1
    38    11    35    1
    39    14    36    1
    40    16    37    1
    41    17    38    1
    42    20    39    1
    43    20    40    1
    44    22    41    1
    45    22    42    1
    46    23    43    1
    47    23    44    1
    48    24    45    1
    49    24    46    1
    50    27    47    1
    51    27    48    1
