
     RDKit          3D

 48 51  0  0  0  0  0  0  0  0999 V2000
   -1.4695    0.6312   -1.1310 C   0  0  0  0  0  0  0  0  0  0  0  0
   -1.8930   -0.5247   -0.2138 C   0  0  1  0  0  0  0  0  0  0  0  0
   -0.6368   -1.1657    0.2799 C   0  0  0  0  0  0  0  0  0  0  0  0
    0.6273   -0.6902   -0.0150 C   0  0  0  0  0  0  0  0  0  0  0  0
    1.7855   -1.2525    0.4337 C   0  0  0  0  0  0  0  0  0  0  0  0
    3.1003   -0.7973    0.1552 N   0  0  0  0  0  0  0  0  0  0  0  0
    3.4753    0.3029   -0.6238 C   0  0  0  0  0  0  0  0  0  0  0  0
    2.6143    1.0105   -1.1665 O   0  0  0  0  0  0  0  0  0  0  0  0
    4.8943    0.6693   -0.8344 C   0  0  0  0  0  0  0  0  0  0  0  0
    5.2581    1.7434   -1.5950 C   0  0  0  0  0  0  0  0  0  0  0  0
    6.5972    2.0930   -1.7964 C   0  0  0  0  0  0  0  0  0  0  0  0
    7.5702    1.3185   -1.2013 C   0  0  0  0  0  0  0  0  0  0  0  0
    9.2778    1.6869   -1.4024 Cl  0  0  0  0  0  0  0  0  0  0  0  0
    7.1648    0.2422   -0.4407 C   0  0  0  0  0  0  0  0  0  0  0  0
    5.8549   -0.0733   -0.2627 N   0  0  0  0  0  0  0  0  0  0  0  0
    1.6489   -2.3860    1.2450 C   0  0  0  0  0  0  0  0  0  0  0  0
    0.4303   -2.9038    1.5719 C   0  0  0  0  0  0  0  0  0  0  0  0
   -0.6930   -2.2951    1.0908 C   0  0  0  0  0  0  0  0  0  0  0  0
   -1.9162   -2.7859    1.3850 F   0  0  0  0  0  0  0  0  0  0  0  0
   -2.6206    0.0263    0.9537 C   0  0  0  0  0  0  0  0  0  0  0  0
   -3.9334    0.6776    0.6292 C   0  0  0  0  0  0  0  0  0  0  0  0
   -4.8671    0.6383    1.7975 C   0  0  0  0  0  0  0  0  0  0  0  0
   -4.4885    2.0731    2.1010 C   0  0  0  0  0  0  0  0  0  0  0  0
   -3.9482    2.1876    0.7010 C   0  0  0  0  0  0  0  0  0  0  0  0
   -4.6212    0.1091   -0.9433 S   0  0  0  0  0  0  0  0  0  0  0  0
   -3.7884   -1.4080   -1.3659 C   0  0  0  0  0  0  0  0  0  0  0  0
   -4.3870   -2.4614   -2.1073 N   0  0  0  0  0  0  0  0  0  0  0  0
   -2.5796   -1.5374   -0.9689 N   0  0  0  0  0  0  0  0  0  0  0  0
   -0.8115    0.2518   -1.9318 H   0  0  0  0  0  0  0  0  0  0  0  0
   -2.3750    1.0963   -1.5947 H   0  0  0  0  0  0  0  0  0  0  0  0
   -0.8991    1.3640   -0.5331 H   0  0  0  0  0  0  0  0  0  0  0  0
    0.6875    0.1846   -0.6415 H   0  0  0  0  0  0  0  0  0  0  0  0
    3.8989   -1.3496    0.5835 H   0  0  0  0  0  0  0  0  0  0  0  0
    4.4543    2.3247   -2.0444 H   0  0  0  0  0  0  0  0  0  0  0  0
    6.8540    2.9499   -2.4044 H   0  0  0  0  0  0  0  0  0  0  0  0
    7.9508   -0.3498    0.0157 H   0  0  0  0  0  0  0  0  0  0  0  0
    2.5190   -2.9068    1.6531 H   0  0  0  0  0  0  0  0  0  0  0  0
    0.3232   -3.7912    2.2070 H   0  0  0  0  0  0  0  0  0  0  0  0
   -2.7150   -0.7187    1.7616 H   0  0  0  0  0  0  0  0  0  0  0  0
   -1.9701    0.8404    1.3867 H   0  0  0  0  0  0  0  0  0  0  0  0
   -4.5097   -0.0005    2.6563 H   0  0  0  0  0  0  0  0  0  0  0  0
   -5.9306    0.5104    1.5982 H   0  0  0  0  0  0  0  0  0  0  0  0
   -3.7043    2.2037    2.8662 H   0  0  0  0  0  0  0  0  0  0  0  0
   -5.3643    2.6882    2.3448 H   0  0  0  0  0  0  0  0  0  0  0  0
   -4.6885    2.6517    0.0215 H   0  0  0  0  0  0  0  0  0  0  0  0
   -2.9618    2.6547    0.5892 H   0  0  0  0  0  0  0  0  0  0  0  0
   -3.9831   -2.7529   -3.0243 H   0  0  0  0  0  0  0  0  0  0  0  0
   -5.2312   -2.9796   -1.7849 H   0  0  0  0  0  0  0  0  0  0  0  0
  2  1  1  6
  2  3  1  0
  3  4  2  0
  4  5  1  0
  5  6  1  0
  6  7  1  0
  7  8  2  0
  7  9  1  0
  9 10  2  0
 10 11  1  0
 11 12  2  0
 12 13  1  0
 12 14  1  0
 14 15  2  0
  5 16  2  0
 16 17  1  0
 17 18  2  0
 18 19  1  0
  2 20  1  0
 20 21  1  0
 21 22  1  0
 22 23  1  0
 23 24  1  0
 21 25  1  0
 25 26  1  0
 26 27  1  0
 26 28  2  0
 28  2  1  0
 18  3  1  0
 24 21  1  0
 15  9  1  0
  1 29  1  0
  1 30  1  0
  1 31  1  0
  4 32  1  0
  6 33  1  0
 10 34  1  0
 11 35  1  0
 14 36  1  0
 16 37  1  0
 17 38  1  0
 20 39  1  0
 20 40  1  0
 22 41  1  0
 22 42  1  0
 23 43  1  0
 23 44  1  0
 24 45  1  0
 24 46  1  0
 27 47  1  0
 27 48  1  0
M  END
$$$$
