@<TRIPOS>MOLECULE
*****
 46 49 0 0 0
SMALL
GASTEIGER

@<TRIPOS>ATOM
      1 N1          6.4703   -1.9603   -1.5201 N.3     1  <1>        -0.2035
      2 S1          5.1187   -2.7817   -0.7919 S.O2    1  <1>         0.0559
      3 O1          4.4926   -3.7868   -1.6762 O.2     1  <1>        -0.1533
      4 O2          5.6395   -3.3886    0.5046 O.2     1  <1>        -0.1533
      5 C1          3.9744   -1.5348   -0.3045 C.ar    1  <1>         0.1050
      6 C2          3.8284   -1.1417    1.0032 C.ar    1  <1>        -0.0351
      7 C3          2.9215   -0.1625    1.3439 C.ar    1  <1>        -0.0564
      8 C4          2.1293    0.4642    0.4139 C.ar    1  <1>        -0.0428
      9 C5          1.1089    1.4899    0.8327 C.3     1  <1>         0.0011
     10 C6         -0.2236    0.9687    0.4641 C.ar    1  <1>         0.0027
     11 C7         -0.4978   -0.3681    0.3483 C.ar    1  <1>         0.0375
     12 N2         -1.7776   -0.4873   -0.0357 N.ar    1  <1>        -0.2149
     13 C8         -2.4960   -1.6992   -0.3053 C.ar    1  <1>         0.1944
     14 N3         -3.5053   -2.2711    0.0402 N.ar    1  <1>        -0.2145
     15 C9         -3.9698   -3.4126   -0.3786 C.ar    1  <1>         0.1568
     16 C10        -5.2340   -3.9882    0.1394 C.2     1  <1>         0.3559
     17 O3         -5.9161   -3.3956    1.0138 O.2     1  <1>        -0.2434
     18 O4         -5.6517   -5.2011   -0.3625 O.3     1  <1>        -0.4761
     19 C11        -3.2304   -4.0628   -1.3352 C.ar    1  <1>         0.0116
     20 S2         -1.8514   -2.9264   -1.5747 S.2     1  <1>        -0.0555
     21 N4         -2.2952    0.7467   -0.1557 N.ar    1  <1>        -0.1643
     22 C12        -1.3569    1.6728    0.1471 C.ar    1  <1>         0.0967
     23 C13        -1.5903    3.1353    0.1473 C.ar    1  <1>         0.0053
     24 C14        -0.7918    4.0541   -0.4442 C.ar    1  <1>        -0.0496
     25 C15        -1.1331    5.4158   -0.3536 C.ar    1  <1>        -0.0230
     26 C16        -2.2440    5.8557    0.3120 C.ar    1  <1>         0.1584
     27 F1         -2.5301    7.1800    0.3688 F       1  <1>        -0.2025
     28 C17        -3.0450    4.9113    0.9069 C.ar    1  <1>         0.1590
     29 F2         -4.1567    5.3655    1.5684 F       1  <1>        -0.2025
     30 C18        -2.7294    3.5882    0.8278 C.ar    1  <1>        -0.0143
     31 C19         2.2704    0.0786   -0.8949 C.ar    1  <1>        -0.0564
     32 C20         3.1842   -0.9144   -1.2586 C.ar    1  <1>        -0.0351
     33 H1          7.1813   -1.6712   -0.8250 H       1  <1>         0.1442
     34 H2          6.8715   -2.6725   -2.1818 H       1  <1>         0.1442
     35 H3          4.4500   -1.6306    1.7366 H       1  <1>         0.0637
     36 H4          2.8069    0.1460    2.3855 H       1  <1>         0.0621
     37 H5          1.3334    2.4740    0.4579 H       1  <1>         0.0363
     38 H6          1.0988    1.5628    1.9565 H       1  <1>         0.0363
     39 H7          0.1725   -1.2185    0.5265 H       1  <1>         0.0834
     40 H8         -6.6050   -5.5447   -0.2758 H       1  <1>         0.2955
     41 H9         -3.3811   -4.9914   -1.8378 H       1  <1>         0.0718
     42 H10         0.0801    3.7639   -0.9905 H       1  <1>         0.0625
     43 H11        -0.4873    6.1226   -0.8266 H       1  <1>         0.0647
     44 H12        -3.3651    2.8578    1.2980 H       1  <1>         0.0654
     45 H13         1.6504    0.5632   -1.6361 H       1  <1>         0.0621
     46 H14         3.2816   -1.2049   -2.2926 H       1  <1>         0.0637
@<TRIPOS>BOND
     1     1     2    1
     2     2     3    2
     3     2     4    2
     4     2     5    1
     5     5     6   ar
     6     6     7   ar
     7     7     8   ar
     8     8     9    1
     9     9    10    1
    10    10    11   ar
    11    11    12   ar
    12    12    13    1
    13    13    14   ar
    14    14    15   ar
    15    15    16    1
    16    16    17    2
    17    16    18    1
    18    15    19   ar
    19    19    20   ar
    20    12    21   ar
    21    21    22   ar
    22    22    23    1
    23    23    24   ar
    24    24    25   ar
    25    25    26   ar
    26    26    27    1
    27    26    28   ar
    28    28    29    1
    29    28    30   ar
    30     8    31   ar
    31    31    32   ar
    32    32     5   ar
    33    22    10   ar
    34    30    23   ar
    35    20    13   ar
    36     1    33    1
    37     1    34    1
    38     6    35    1
    39     7    36    1
    40     9    37    1
    41     9    38    1
    42    11    39    1
    43    18    40    1
    44    19    41    1
    45    24    42    1
    46    25    43    1
    47    30    44    1
    48    31    45    1
    49    32    46    1
