
     RDKit          3D

 49 53  0  0  0  0  0  0  0  0999 V2000
    9.4452    0.5891   -0.1884 O   0  0  0  0  0  0  0  0  0  0  0  0
    8.5111    1.1980    0.3765 C   0  0  0  0  0  0  0  0  0  0  0  0
    8.8281    2.2576    1.1915 O   0  0  0  0  0  0  0  0  0  0  0  0
    7.1335    0.7877    0.1693 C   0  0  0  0  0  0  0  0  0  0  0  0
    6.8387   -0.2796   -0.6560 C   0  0  0  0  0  0  0  0  0  0  0  0
    5.5612   -0.7153   -0.8915 C   0  0  0  0  0  0  0  0  0  0  0  0
    4.4943   -0.0765   -0.2887 C   0  0  0  0  0  0  0  0  0  0  0  0
    3.2021   -0.5372   -0.5546 N   0  0  0  0  0  0  0  0  0  0  0  0
    1.9861   -0.1697    0.0751 C   0  0  0  0  0  0  0  0  0  0  0  0
    1.9143    0.6924    1.0871 N   0  0  0  0  0  0  0  0  0  0  0  0
    0.8153    1.0775    1.7244 C   0  0  0  0  0  0  0  0  0  0  0  0
   -0.4028    0.5251    1.2956 C   0  0  0  0  0  0  0  0  0  0  0  0
   -0.3442   -0.3637    0.2542 C   0  0  0  0  0  0  0  0  0  0  0  0
    0.8049   -0.7123   -0.3495 N   0  0  0  0  0  0  0  0  0  0  0  0
   -1.4717   -1.0806   -0.3827 C   0  0  0  0  0  0  0  0  0  0  0  0
   -1.0430   -2.0773   -1.2404 C   0  0  0  0  0  0  0  0  0  0  0  0
   -1.9955   -2.8436   -1.9198 C   0  0  0  0  0  0  0  0  0  0  0  0
   -3.3482   -2.6226   -1.7491 C   0  0  0  0  0  0  0  0  0  0  0  0
   -4.5365   -3.5940   -2.6108 Cl  0  0  0  0  0  0  0  0  0  0  0  0
   -3.7262   -1.6179   -0.8837 C   0  0  0  0  0  0  0  0  0  0  0  0
   -2.8154   -0.8427   -0.1972 C   0  0  0  0  0  0  0  0  0  0  0  0
   -3.4481    0.1709    0.6717 C   0  0  0  0  0  0  0  0  0  0  0  0
   -4.8681    0.3295    0.4506 C   0  0  0  0  0  0  0  0  0  0  0  0
   -5.8292   -0.3072    1.2014 C   0  0  0  0  0  0  0  0  0  0  0  0
   -5.4497   -1.1271    2.1987 F   0  0  0  0  0  0  0  0  0  0  0  0
   -7.1545   -0.0834    0.9062 C   0  0  0  0  0  0  0  0  0  0  0  0
   -7.5439    0.7451   -0.1017 C   0  0  0  0  0  0  0  0  0  0  0  0
   -6.5953    1.3892   -0.8617 C   0  0  0  0  0  0  0  0  0  0  0  0
   -5.2717    1.1662   -0.5677 C   0  0  0  0  0  0  0  0  0  0  0  0
   -4.3654    1.8323   -1.3549 F   0  0  0  0  0  0  0  0  0  0  0  0
   -2.8299    0.8504    1.5417 N   0  0  0  0  0  0  0  0  0  0  0  0
   -1.5290    1.0148    2.0702 C   0  0  0  0  0  0  0  0  0  0  0  0
    4.7565    0.9807    0.5310 C   0  0  0  0  0  0  0  0  0  0  0  0
    6.0745    1.4149    0.7620 C   0  0  0  0  0  0  0  0  0  0  0  0
    9.7670    2.3456    1.5567 H   0  0  0  0  0  0  0  0  0  0  0  0
    7.6999   -0.7827   -1.1321 H   0  0  0  0  0  0  0  0  0  0  0  0
    5.4096   -1.5707   -1.5602 H   0  0  0  0  0  0  0  0  0  0  0  0
    3.1054   -1.2639   -1.3389 H   0  0  0  0  0  0  0  0  0  0  0  0
    0.7565    1.7706    2.5383 H   0  0  0  0  0  0  0  0  0  0  0  0
    0.0027   -2.2393   -1.3648 H   0  0  0  0  0  0  0  0  0  0  0  0
   -1.6875   -3.6229   -2.5910 H   0  0  0  0  0  0  0  0  0  0  0  0
   -4.7818   -1.4329   -0.7394 H   0  0  0  0  0  0  0  0  0  0  0  0
   -7.9532   -0.5723    1.4819 H   0  0  0  0  0  0  0  0  0  0  0  0
   -8.6030    0.9280   -0.3424 H   0  0  0  0  0  0  0  0  0  0  0  0
   -6.9132    2.0552   -1.6717 H   0  0  0  0  0  0  0  0  0  0  0  0
   -1.5119    0.5236    3.0940 H   0  0  0  0  0  0  0  0  0  0  0  0
   -1.3333    2.1027    2.3299 H   0  0  0  0  0  0  0  0  0  0  0  0
    3.9830    1.5382    1.0354 H   0  0  0  0  0  0  0  0  0  0  0  0
    6.2620    2.2503    1.4120 H   0  0  0  0  0  0  0  0  0  0  0  0
  1  2  2  0
  2  3  1  0
  2  4  1  0
  4  5  2  0
  5  6  1  0
  6  7  2  0
  7  8  1  0
  8  9  1  0
  9 10  2  0
 10 11  1  0
 11 12  2  0
 12 13  1  0
 13 14  2  0
 13 15  1  0
 15 16  2  0
 16 17  1  0
 17 18  2  0
 18 19  1  0
 18 20  1  0
 20 21  2  0
 21 22  1  0
 22 23  1  0
 23 24  2  0
 24 25  1  0
 24 26  1  0
 26 27  2  0
 27 28  1  0
 28 29  2  0
 29 30  1  0
 22 31  2  0
 31 32  1  0
  7 33  1  0
 33 34  2  0
 34  4  1  0
 14  9  1  0
 21 15  1  0
 29 23  1  0
 32 12  1  0
  3 35  1  0
  5 36  1  0
  6 37  1  0
  8 38  1  0
 11 39  1  0
 16 40  1  0
 17 41  1  0
 20 42  1  0
 26 43  1  0
 27 44  1  0
 28 45  1  0
 32 46  1  0
 32 47  1  0
 33 48  1  0
 34 49  1  0
M  END
$$$$
