@<TRIPOS>MOLECULE
*****
 49 53 0 0 0
SMALL
GASTEIGER

@<TRIPOS>ATOM
      1 O           9.4452    0.5891   -0.1884 O.2     1  UNL1       -0.2451
      2 C           8.5111    1.1980    0.3765 C.2     1  UNL1        0.3368
      3 O           8.8281    2.2576    1.1915 O.3     1  UNL1       -0.4771
      4 C           7.1335    0.7877    0.1693 C.ar    1  UNL1        0.0589
      5 C           6.8387   -0.2796   -0.6560 C.ar    1  UNL1       -0.0460
      6 C           5.5612   -0.7153   -0.8915 C.ar    1  UNL1       -0.0397
      7 C           4.4943   -0.0765   -0.2887 C.ar    1  UNL1        0.0336
      8 N           3.2021   -0.5372   -0.5546 N.pl3   1  UNL1       -0.2836
      9 C           1.9861   -0.1697    0.0751 C.ar    1  UNL1        0.2200
     10 N           1.9143    0.6924    1.0871 N.ar    1  UNL1       -0.2223
     11 C           0.8153    1.0775    1.7244 C.ar    1  UNL1        0.0382
     12 C          -0.4028    0.5251    1.2956 C.ar    1  UNL1        0.0180
     13 C          -0.3442   -0.3637    0.2542 C.ar    1  UNL1        0.0816
     14 N           0.8049   -0.7123   -0.3495 N.ar    1  UNL1       -0.2139
     15 C          -1.4717   -1.0806   -0.3827 C.ar    1  UNL1        0.0101
     16 C          -1.0430   -2.0773   -1.2404 C.ar    1  UNL1       -0.0505
     17 C          -1.9955   -2.8436   -1.9198 C.ar    1  UNL1       -0.0427
     18 C          -3.3482   -2.6226   -1.7491 C.ar    1  UNL1        0.0416
     19 CL         -4.5365   -3.5940   -2.6108 Cl      1  UNL1       -0.0835
     20 C          -3.7262   -1.6179   -0.8837 C.ar    1  UNL1       -0.0336
     21 C          -2.8154   -0.8427   -0.1972 C.ar    1  UNL1        0.0112
     22 C          -3.4481    0.1709    0.6717 C.2     1  UNL1        0.0792
     23 C          -4.8681    0.3295    0.4506 C.ar    1  UNL1        0.0708
     24 C          -5.8292   -0.3072    1.2014 C.ar    1  UNL1        0.1353
     25 F          -5.4497   -1.1271    2.1987 F       1  UNL1       -0.2047
     26 C          -7.1545   -0.0834    0.9062 C.ar    1  UNL1       -0.0256
     27 C          -7.5439    0.7451   -0.1017 C.ar    1  UNL1       -0.0563
     28 C          -6.5953    1.3892   -0.8617 C.ar    1  UNL1       -0.0256
     29 C          -5.2717    1.1662   -0.5677 C.ar    1  UNL1        0.1353
     30 F          -4.3654    1.8323   -1.3549 F       1  UNL1       -0.2047
     31 N          -2.8299    0.8504    1.5417 N.2     1  UNL1       -0.2778
     32 C          -1.5290    1.0148    2.0702 C.3     1  UNL1        0.0688
     33 C           4.7565    0.9807    0.5310 C.ar    1  UNL1       -0.0397
     34 C           6.0745    1.4149    0.7620 C.ar    1  UNL1       -0.0460
     35 H           9.7670    2.3456    1.5567 H       1  UNL1        0.2954
     36 H           7.6999   -0.7827   -1.1321 H       1  UNL1        0.0626
     37 H           5.4096   -1.5707   -1.5602 H       1  UNL1        0.0636
     38 H           3.1054   -1.2639   -1.3389 H       1  UNL1        0.1550
     39 H           0.7565    1.7706    2.5383 H       1  UNL1        0.0835
     40 H           0.0027   -2.2393   -1.3648 H       1  UNL1        0.0625
     41 H          -1.6875   -3.6229   -2.5910 H       1  UNL1        0.0632
     42 H          -4.7818   -1.4329   -0.7394 H       1  UNL1        0.0639
     43 H          -7.9532   -0.5723    1.4819 H       1  UNL1        0.0646
     44 H          -8.6030    0.9280   -0.3424 H       1  UNL1        0.0619
     45 H          -6.9132    2.0552   -1.6717 H       1  UNL1        0.0646
     46 H          -1.5119    0.5236    3.0940 H       1  UNL1        0.0559
     47 H          -1.3333    2.1027    2.3299 H       1  UNL1        0.0559
     48 H           3.9830    1.5382    1.0354 H       1  UNL1        0.0636
     49 H           6.2620    2.2503    1.4120 H       1  UNL1        0.0626
@<TRIPOS>BOND
     1     1     2    2
     2     2     3    1
     3     2     4    1
     4     4     5   ar
     5     5     6   ar
     6     6     7   ar
     7     7     8    1
     8     8     9    1
     9     9    10   ar
    10    10    11   ar
    11    11    12   ar
    12    12    13   ar
    13    13    14   ar
    14    13    15    1
    15    15    16   ar
    16    16    17   ar
    17    17    18   ar
    18    18    19    1
    19    18    20   ar
    20    20    21   ar
    21    21    22    1
    22    22    23    1
    23    23    24   ar
    24    24    25    1
    25    24    26   ar
    26    26    27   ar
    27    27    28   ar
    28    28    29   ar
    29    29    30    1
    30    22    31    2
    31    31    32    1
    32     7    33   ar
    33    33    34   ar
    34    34     4   ar
    35    14     9   ar
    36    21    15   ar
    37    29    23   ar
    38    32    12    1
    39     3    35    1
    40     5    36    1
    41     6    37    1
    42     8    38    1
    43    11    39    1
    44    16    40    1
    45    17    41    1
    46    20    42    1
    47    26    43    1
    48    27    44    1
    49    28    45    1
    50    32    46    1
    51    32    47    1
    52    33    48    1
    53    34    49    1
