@<TRIPOS>MOLECULE
*****
 28 28 0 0 0
SMALL
GASTEIGER

@<TRIPOS>ATOM
      1 O          -2.3629   -0.3620   -2.0708 O.2     1  UNL1       -0.2551
      2 P          -2.3944   -0.9431   -0.6547 P.3     1  UNL1        0.3713
      3 O          -3.6727   -0.1734    0.1405 O.3     1  UNL1       -0.3217
      4 O          -2.5902   -2.6089   -0.6929 O.3     1  UNL1       -0.3217
      5 C          -0.8249   -0.4662    0.1221 C.3     1  UNL1        0.2711
      6 O          -0.5335   -1.2813    1.2138 O.3     1  UNL1       -0.3669
      7 C           0.2649   -0.6083   -0.9224 C.3     1  UNL1        0.0258
      8 C           1.5993   -0.2409   -0.3897 C.ar    1  UNL1       -0.0253
      9 C           2.0567    1.0563   -0.4735 C.ar    1  UNL1       -0.0556
     10 C           3.3067    1.3721    0.0320 C.ar    1  UNL1       -0.0433
     11 C           4.1103    0.4219    0.6192 C.ar    1  UNL1        0.0276
     12 N           3.6453   -0.8345    0.6902 N.ar    1  UNL1       -0.2630
     13 C           2.4203   -1.1754    0.2020 C.ar    1  UNL1        0.0308
     14 P          -1.0227    1.2573    0.6536 P.3     1  UNL1        0.3713
     15 O           0.1396    1.7338    1.4817 O.2     1  UNL1       -0.2551
     16 O          -2.4419    1.3086    1.6051 O.3     1  UNL1       -0.3217
     17 O          -1.2952    2.1958   -0.7066 O.3     1  UNL1       -0.3217
     18 H          -4.1176   -0.7551    0.8051 H       1  UNL1        0.2198
     19 H          -3.5454   -2.7937   -0.8930 H       1  UNL1        0.2198
     20 H          -1.3106   -1.9079    1.3275 H       1  UNL1        0.2117
     21 H           0.0204   -0.0210   -1.8201 H       1  UNL1        0.0354
     22 H           0.2409   -1.6799   -1.2395 H       1  UNL1        0.0354
     23 H           1.4736    1.8370   -0.9204 H       1  UNL1        0.0621
     24 H           3.6400    2.3885   -0.0452 H       1  UNL1        0.0633
     25 H           5.0949    0.6966    1.0115 H       1  UNL1        0.0829
     26 H           2.0831   -2.1974    0.2787 H       1  UNL1        0.0832
     27 H          -3.0233    2.0430    1.3360 H       1  UNL1        0.2198
     28 H          -0.9605    1.7381   -1.4986 H       1  UNL1        0.2198
@<TRIPOS>BOND
     1     1     2    2
     2     2     3    1
     3     2     4    1
     4     2     5    1
     5     5     6    1
     6     5     7    1
     7     7     8    1
     8     8     9   ar
     9     9    10   ar
    10    10    11   ar
    11    11    12   ar
    12    12    13   ar
    13     5    14    1
    14    14    15    2
    15    14    16    1
    16    14    17    1
    17    13     8   ar
    18     3    18    1
    19     4    19    1
    20     6    20    1
    21     7    21    1
    22     7    22    1
    23     9    23    1
    24    10    24    1
    25    11    25    1
    26    13    26    1
    27    16    27    1
    28    17    28    1
