
     RDKit          3D

 28 28  0  0  0  0  0  0  0  0999 V2000
   -2.3629   -0.3620   -2.0708 O   0  0  0  0  0  0  0  0  0  0  0  0
   -2.3944   -0.9431   -0.6547 P   0  0  0  0  0  5  0  0  0  0  0  0
   -3.6727   -0.1734    0.1405 O   0  0  0  0  0  0  0  0  0  0  0  0
   -2.5902   -2.6089   -0.6929 O   0  0  0  0  0  0  0  0  0  0  0  0
   -0.8249   -0.4662    0.1221 C   0  0  0  0  0  0  0  0  0  0  0  0
   -0.5335   -1.2813    1.2138 O   0  0  0  0  0  0  0  0  0  0  0  0
    0.2649   -0.6083   -0.9224 C   0  0  0  0  0  0  0  0  0  0  0  0
    1.5993   -0.2409   -0.3897 C   0  0  0  0  0  0  0  0  0  0  0  0
    2.0567    1.0563   -0.4735 C   0  0  0  0  0  0  0  0  0  0  0  0
    3.3067    1.3721    0.0320 C   0  0  0  0  0  0  0  0  0  0  0  0
    4.1103    0.4219    0.6192 C   0  0  0  0  0  0  0  0  0  0  0  0
    3.6453   -0.8345    0.6902 N   0  0  0  0  0  0  0  0  0  0  0  0
    2.4203   -1.1754    0.2020 C   0  0  0  0  0  0  0  0  0  0  0  0
   -1.0227    1.2573    0.6536 P   0  0  0  0  0  5  0  0  0  0  0  0
    0.1396    1.7338    1.4817 O   0  0  0  0  0  0  0  0  0  0  0  0
   -2.4419    1.3086    1.6051 O   0  0  0  0  0  0  0  0  0  0  0  0
   -1.2952    2.1958   -0.7066 O   0  0  0  0  0  0  0  0  0  0  0  0
   -4.1176   -0.7551    0.8051 H   0  0  0  0  0  0  0  0  0  0  0  0
   -3.5454   -2.7937   -0.8930 H   0  0  0  0  0  0  0  0  0  0  0  0
   -1.3106   -1.9079    1.3275 H   0  0  0  0  0  0  0  0  0  0  0  0
    0.0204   -0.0210   -1.8201 H   0  0  0  0  0  0  0  0  0  0  0  0
    0.2409   -1.6799   -1.2395 H   0  0  0  0  0  0  0  0  0  0  0  0
    1.4736    1.8370   -0.9204 H   0  0  0  0  0  0  0  0  0  0  0  0
    3.6400    2.3885   -0.0452 H   0  0  0  0  0  0  0  0  0  0  0  0
    5.0949    0.6966    1.0115 H   0  0  0  0  0  0  0  0  0  0  0  0
    2.0831   -2.1974    0.2787 H   0  0  0  0  0  0  0  0  0  0  0  0
   -3.0233    2.0430    1.3360 H   0  0  0  0  0  0  0  0  0  0  0  0
   -0.9605    1.7381   -1.4986 H   0  0  0  0  0  0  0  0  0  0  0  0
  1  2  2  0
  2  3  1  0
  2  4  1  0
  2  5  1  0
  5  6  1  0
  5  7  1  0
  7  8  1  0
  8  9  2  0
  9 10  1  0
 10 11  2  0
 11 12  1  0
 12 13  2  0
  5 14  1  0
 14 15  2  0
 14 16  1  0
 14 17  1  0
 13  8  1  0
  3 18  1  0
  4 19  1  0
  6 20  1  0
  7 21  1  0
  7 22  1  0
  9 23  1  0
 10 24  1  0
 11 25  1  0
 13 26  1  0
 16 27  1  0
 17 28  1  0
M  END
$$$$
