@<TRIPOS>MOLECULE
*****
 39 42 0 0 0
SMALL
GASTEIGER

@<TRIPOS>ATOM
      1 C          -1.7642    2.9824    0.4879 C.3     1  UNL1        0.0309
      2 N          -2.6880    1.8761    0.3398 N.ar    1  UNL1       -0.2642
      3 N          -3.9957    1.8661    0.3502 N.ar    1  UNL1       -0.1639
      4 C          -4.4760    0.6218    0.1785 C.ar    1  UNL1        0.1728
      5 C          -5.8944    0.3202    0.1487 C.2     1  UNL1        0.3574
      6 O          -6.3459   -0.9807   -0.0312 O.3     1  UNL1       -0.4760
      7 O          -6.7147    1.2416    0.2865 O.2     1  UNL1       -0.2433
      8 C          -3.3848   -0.2114    0.0508 C.ar    1  UNL1        0.0141
      9 C          -2.2925    0.6045    0.1563 C.ar    1  UNL1        0.0911
     10 C          -0.9961   -0.0525    0.0511 C.ar    1  UNL1        0.0973
     11 N           0.1469    0.6365    0.1388 N.ar    1  UNL1       -0.2124
     12 C           1.3707    0.0900    0.0505 C.ar    1  UNL1        0.2201
     13 N           2.5317    0.8920    0.1542 N.pl3   1  UNL1       -0.2836
     14 C           3.8700    0.5024    0.0871 C.ar    1  UNL1        0.0336
     15 C           4.3541   -0.7730   -0.0984 C.ar    1  UNL1       -0.0405
     16 C           5.6811   -1.1397   -0.1620 C.ar    1  UNL1       -0.0600
     17 C           6.6199   -0.1569   -0.0305 C.ar    1  UNL1       -0.0616
     18 C           6.2192    1.1258    0.1553 C.ar    1  UNL1       -0.0600
     19 C           4.8790    1.4329    0.2106 C.ar    1  UNL1       -0.0405
     20 N           1.3578   -1.2364   -0.1375 N.ar    1  UNL1       -0.2224
     21 C           0.2641   -2.0027   -0.2366 C.ar    1  UNL1        0.0365
     22 C          -0.9741   -1.4142   -0.1423 C.ar    1  UNL1       -0.0014
     23 C          -2.1223   -2.3428   -0.2645 C.3     1  UNL1       -0.0200
     24 C          -3.4519   -1.6826   -0.1566 C.3     1  UNL1       -0.0192
     25 H          -2.3155    3.9376    0.4599 H       1  UNL1        0.0473
     26 H          -1.0808    2.9485   -0.3923 H       1  UNL1        0.0473
     27 H          -1.1183    2.8922    1.3839 H       1  UNL1        0.0473
     28 H          -7.2193   -1.1395   -0.5479 H       1  UNL1        0.2955
     29 H           2.3537    1.9276    0.3027 H       1  UNL1        0.1550
     30 H           3.6527   -1.5871   -0.2080 H       1  UNL1        0.0636
     31 H           5.9825   -2.1681   -0.3108 H       1  UNL1        0.0618
     32 H           7.6702   -0.4033   -0.0747 H       1  UNL1        0.0618
     33 H           6.9830    1.8914    0.2575 H       1  UNL1        0.0618
     34 H           4.6518    2.4954    0.3636 H       1  UNL1        0.0636
     35 H           0.4648   -3.0485   -0.3867 H       1  UNL1        0.0834
     36 H          -2.0351   -2.8216   -1.2618 H       1  UNL1        0.0317
     37 H          -2.0576   -3.1501    0.5115 H       1  UNL1        0.0317
     38 H          -4.0101   -2.0806    0.7156 H       1  UNL1        0.0318
     39 H          -4.1159   -1.8931   -1.0351 H       1  UNL1        0.0318
@<TRIPOS>BOND
     1     1     2    1
     2     2     3   ar
     3     3     4   ar
     4     4     5    1
     5     5     6    1
     6     5     7    2
     7     4     8   ar
     8     8     9   ar
     9     9    10    1
    10    10    11   ar
    11    11    12   ar
    12    12    13    1
    13    13    14    1
    14    14    15   ar
    15    15    16   ar
    16    16    17   ar
    17    17    18   ar
    18    18    19   ar
    19    12    20   ar
    20    20    21   ar
    21    21    22   ar
    22    22    23    1
    23    23    24    1
    24     9     2   ar
    25    22    10   ar
    26    24     8    1
    27    19    14   ar
    28     1    25    1
    29     1    26    1
    30     1    27    1
    31     6    28    1
    32    13    29    1
    33    15    30    1
    34    16    31    1
    35    17    32    1
    36    18    33    1
    37    19    34    1
    38    21    35    1
    39    23    36    1
    40    23    37    1
    41    24    38    1
    42    24    39    1
