
     RDKit          3D

 39 42  0  0  0  0  0  0  0  0999 V2000
   -1.7642    2.9824    0.4879 C   0  0  0  0  0  0  0  0  0  0  0  0
   -2.6880    1.8761    0.3398 N   0  0  0  0  0  0  0  0  0  0  0  0
   -3.9957    1.8661    0.3502 N   0  0  0  0  0  0  0  0  0  0  0  0
   -4.4760    0.6218    0.1785 C   0  0  0  0  0  0  0  0  0  0  0  0
   -5.8944    0.3202    0.1487 C   0  0  0  0  0  0  0  0  0  0  0  0
   -6.3459   -0.9807   -0.0312 O   0  0  0  0  0  0  0  0  0  0  0  0
   -6.7147    1.2416    0.2865 O   0  0  0  0  0  0  0  0  0  0  0  0
   -3.3848   -0.2114    0.0508 C   0  0  0  0  0  0  0  0  0  0  0  0
   -2.2925    0.6045    0.1563 C   0  0  0  0  0  0  0  0  0  0  0  0
   -0.9961   -0.0525    0.0511 C   0  0  0  0  0  0  0  0  0  0  0  0
    0.1469    0.6365    0.1388 N   0  0  0  0  0  0  0  0  0  0  0  0
    1.3707    0.0900    0.0505 C   0  0  0  0  0  0  0  0  0  0  0  0
    2.5317    0.8920    0.1542 N   0  0  0  0  0  0  0  0  0  0  0  0
    3.8700    0.5024    0.0871 C   0  0  0  0  0  0  0  0  0  0  0  0
    4.3541   -0.7730   -0.0984 C   0  0  0  0  0  0  0  0  0  0  0  0
    5.6811   -1.1397   -0.1620 C   0  0  0  0  0  0  0  0  0  0  0  0
    6.6199   -0.1569   -0.0305 C   0  0  0  0  0  0  0  0  0  0  0  0
    6.2192    1.1258    0.1553 C   0  0  0  0  0  0  0  0  0  0  0  0
    4.8790    1.4329    0.2106 C   0  0  0  0  0  0  0  0  0  0  0  0
    1.3578   -1.2364   -0.1375 N   0  0  0  0  0  0  0  0  0  0  0  0
    0.2641   -2.0027   -0.2366 C   0  0  0  0  0  0  0  0  0  0  0  0
   -0.9741   -1.4142   -0.1423 C   0  0  0  0  0  0  0  0  0  0  0  0
   -2.1223   -2.3428   -0.2645 C   0  0  0  0  0  0  0  0  0  0  0  0
   -3.4519   -1.6826   -0.1566 C   0  0  0  0  0  0  0  0  0  0  0  0
   -2.3155    3.9376    0.4599 H   0  0  0  0  0  0  0  0  0  0  0  0
   -1.0808    2.9485   -0.3923 H   0  0  0  0  0  0  0  0  0  0  0  0
   -1.1183    2.8922    1.3839 H   0  0  0  0  0  0  0  0  0  0  0  0
   -7.2193   -1.1395   -0.5479 H   0  0  0  0  0  0  0  0  0  0  0  0
    2.3537    1.9276    0.3027 H   0  0  0  0  0  0  0  0  0  0  0  0
    3.6527   -1.5871   -0.2080 H   0  0  0  0  0  0  0  0  0  0  0  0
    5.9825   -2.1681   -0.3108 H   0  0  0  0  0  0  0  0  0  0  0  0
    7.6702   -0.4033   -0.0747 H   0  0  0  0  0  0  0  0  0  0  0  0
    6.9830    1.8914    0.2575 H   0  0  0  0  0  0  0  0  0  0  0  0
    4.6518    2.4954    0.3636 H   0  0  0  0  0  0  0  0  0  0  0  0
    0.4648   -3.0485   -0.3867 H   0  0  0  0  0  0  0  0  0  0  0  0
   -2.0351   -2.8216   -1.2618 H   0  0  0  0  0  0  0  0  0  0  0  0
   -2.0576   -3.1501    0.5115 H   0  0  0  0  0  0  0  0  0  0  0  0
   -4.0101   -2.0806    0.7156 H   0  0  0  0  0  0  0  0  0  0  0  0
   -4.1159   -1.8931   -1.0351 H   0  0  0  0  0  0  0  0  0  0  0  0
  1  2  1  0
  2  3  1  0
  3  4  2  0
  4  5  1  0
  5  6  1  0
  5  7  2  0
  4  8  1  0
  8  9  2  0
  9 10  1  0
 10 11  2  0
 11 12  1  0
 12 13  1  0
 13 14  1  0
 14 15  2  0
 15 16  1  0
 16 17  2  0
 17 18  1  0
 18 19  2  0
 12 20  2  0
 20 21  1  0
 21 22  2  0
 22 23  1  0
 23 24  1  0
  9  2  1  0
 22 10  1  0
 24  8  1  0
 19 14  1  0
  1 25  1  0
  1 26  1  0
  1 27  1  0
  6 28  1  0
 13 29  1  0
 15 30  1  0
 16 31  1  0
 17 32  1  0
 18 33  1  0
 19 34  1  0
 21 35  1  0
 23 36  1  0
 23 37  1  0
 24 38  1  0
 24 39  1  0
M  END
$$$$
