@<TRIPOS>MOLECULE
*****
 74 78 0 0 0
SMALL
GASTEIGER

@<TRIPOS>ATOM
      1 C           3.7708    0.3581    4.7142 C.3     1  UNL1       -0.0589
      2 C           3.1266    0.5610    3.3673 C.3     1  UNL1       -0.0215
      3 C           2.4630    1.8855    3.2055 C.3     1  UNL1       -0.0589
      4 C           4.1216    0.2680    2.2262 C.3     1  UNL1       -0.0133
      5 C           4.3960   -1.1848    2.4638 C.3     1  UNL1       -0.0473
      6 C           3.1833   -1.7524    3.2202 C.3     1  UNL1       -0.0434
      7 C           2.1919   -0.6137    3.0274 C.3     1  UNL1        0.0122
      8 C           0.9853   -0.6813    3.8388 C.3     1  UNL1       -0.0556
      9 C           2.0071   -0.4312    1.5463 C.3     1  UNL1        0.1277
     10 O           0.7441    0.0525    1.1904 O.3     1  UNL1       -0.4554
     11 C          -0.0806   -0.6829    0.3571 C.2     1  UNL1        0.3398
     12 O           0.3662   -1.7911   -0.0527 O.2     1  UNL1       -0.2449
     13 C          -1.4079   -0.2505   -0.0599 C.ar    1  UNL1        0.0659
     14 C          -1.8837    0.9662    0.3957 C.ar    1  UNL1       -0.0053
     15 C          -3.1347    1.3365   -0.0161 C.ar    1  UNL1        0.1320
     16 O          -3.6071    2.5719    0.4515 O.3     1  UNL1       -0.5059
     17 C          -3.9203    0.5509   -0.8541 C.ar    1  UNL1        0.1050
     18 C          -5.1739    1.1157   -1.2943 C.2     1  UNL1        0.2044
     19 O          -5.3080    2.4075   -1.2869 O.2     1  UNL1       -0.2863
     20 C          -6.3434    0.4084   -1.7715 C.ar    1  UNL1        0.0778
     21 C          -6.9889    0.9945   -2.8670 C.ar    1  UNL1        0.1285
     22 O          -6.5068    2.1588   -3.4479 O.3     1  UNL1       -0.5060
     23 C          -8.1134    0.4380   -3.3970 C.ar    1  UNL1       -0.0194
     24 C          -8.6168   -0.7208   -2.8399 C.ar    1  UNL1       -0.0575
     25 C          -7.9883   -1.2843   -1.7737 C.ar    1  UNL1       -0.0468
     26 C          -6.8232   -0.7399   -1.1900 C.ar    1  UNL1        0.0731
     27 C          -6.3568   -1.3099    0.0615 C.2     1  UNL1        0.3376
     28 O          -6.8239   -2.4312    0.4111 O.2     1  UNL1       -0.2451
     29 O          -5.4548   -0.7380    0.9142 O.3     1  UNL1       -0.4771
     30 C          -3.4251   -0.6639   -1.3008 C.ar    1  UNL1        0.1320
     31 O          -4.1750   -1.4513   -2.1305 O.3     1  UNL1       -0.5059
     32 C          -2.1527   -1.0484   -0.8854 C.ar    1  UNL1       -0.0053
     33 C           3.1549    0.4348    1.0637 C.3     1  UNL1        0.0642
     34 N           3.6957    0.0439   -0.1983 N.am    1  UNL1       -0.3047
     35 C           3.8189    0.9230   -1.3043 C.2     1  UNL1        0.2444
     36 O           3.4178    2.1019   -1.1221 O.2     1  UNL1       -0.2702
     37 C           4.3671    0.5523   -2.6028 C.ar    1  UNL1        0.0369
     38 C           4.8204   -0.7152   -2.8910 C.ar    1  UNL1       -0.0462
     39 C           5.3390   -1.0124   -4.1572 C.ar    1  UNL1       -0.0195
     40 C           5.4174   -0.0637   -5.1556 C.ar    1  UNL1        0.1169
     41 O           5.9340   -0.3623   -6.4147 O.3     1  UNL1       -0.5068
     42 C           4.9609    1.2015   -4.8558 C.ar    1  UNL1       -0.0195
     43 C           4.4511    1.4902   -3.6081 C.ar    1  UNL1       -0.0462
     44 H           3.1030   -0.1643    5.4282 H       1  UNL1        0.0235
     45 H           4.1052    1.3385    5.1145 H       1  UNL1        0.0235
     46 H           4.6914   -0.2598    4.5754 H       1  UNL1        0.0235
     47 H           1.5367    1.8870    2.6328 H       1  UNL1        0.0235
     48 H           3.1517    2.6713    2.7872 H       1  UNL1        0.0235
     49 H           2.2168    2.2677    4.2362 H       1  UNL1        0.0235
     50 H           4.9642    0.9280    2.2145 H       1  UNL1        0.0325
     51 H           4.4194   -1.7401    1.5050 H       1  UNL1        0.0269
     52 H           5.3347   -1.3875    3.0045 H       1  UNL1        0.0269
     53 H           3.4165   -1.8886    4.2779 H       1  UNL1        0.0272
     54 H           2.8328   -2.6938    2.7916 H       1  UNL1        0.0272
     55 H           1.1457   -0.1058    4.7967 H       1  UNL1        0.0236
     56 H           0.6878   -1.7056    4.1698 H       1  UNL1        0.0236
     57 H           0.1371   -0.1673    3.3370 H       1  UNL1        0.0236
     58 H           2.1748   -1.4351    1.0540 H       1  UNL1        0.0758
     59 H          -1.2531    1.5463    1.0394 H       1  UNL1        0.0662
     60 H          -4.4607    2.5059    1.0183 H       1  UNL1        0.2922
     61 H          -6.2793    2.2462   -4.4334 H       1  UNL1        0.2922
     62 H          -8.6353    0.8620   -4.2389 H       1  UNL1        0.0654
     63 H          -9.5091   -1.1779   -3.2517 H       1  UNL1        0.0619
     64 H          -8.3784   -2.1858   -1.3400 H       1  UNL1        0.0626
     65 H          -5.0192   -1.1446    1.7107 H       1  UNL1        0.2954
     66 H          -4.3760   -2.4284   -1.9188 H       1  UNL1        0.2922
     67 H          -1.8042   -2.0140   -1.2611 H       1  UNL1        0.0662
     68 H           2.8318    1.4956    1.0983 H       1  UNL1        0.0538
     69 H           4.0191   -0.9376   -0.3224 H       1  UNL1        0.1494
     70 H           4.7710   -1.4841   -2.1236 H       1  UNL1        0.0626
     71 H           5.6876   -2.0137   -4.3571 H       1  UNL1        0.0654
     72 H           6.9324   -0.1751   -6.5762 H       1  UNL1        0.2921
     73 H           5.0190    1.9670   -5.6465 H       1  UNL1        0.0654
     74 H           4.0889    2.5017   -3.3764 H       1  UNL1        0.0626
@<TRIPOS>BOND
     1     1     2    1
     2     2     3    1
     3     2     4    1
     4     4     5    1
     5     5     6    1
     6     6     7    1
     7     7     8    1
     8     7     9    1
     9     9    10    1
    10    10    11    1
    11    11    12    2
    12    11    13    1
    13    13    14   ar
    14    14    15   ar
    15    15    16    1
    16    15    17   ar
    17    17    18    1
    18    18    19    2
    19    18    20    1
    20    20    21   ar
    21    21    22    1
    22    21    23   ar
    23    23    24   ar
    24    24    25   ar
    25    25    26   ar
    26    26    27    1
    27    27    28    2
    28    27    29    1
    29    17    30   ar
    30    30    31    1
    31    30    32   ar
    32     9    33    1
    33    33    34    1
    34    34    35   am
    35    35    36    2
    36    35    37    1
    37    37    38   ar
    38    38    39   ar
    39    39    40   ar
    40    40    41    1
    41    40    42   ar
    42    42    43   ar
    43     7     2    1
    44    32    13   ar
    45    43    37   ar
    46    33     4    1
    47    26    20   ar
    48     1    44    1
    49     1    45    1
    50     1    46    1
    51     3    47    1
    52     3    48    1
    53     3    49    1
    54     4    50    1
    55     5    51    1
    56     5    52    1
    57     6    53    1
    58     6    54    1
    59     8    55    1
    60     8    56    1
    61     8    57    1
    62     9    58    1
    63    14    59    1
    64    16    60    1
    65    22    61    1
    66    23    62    1
    67    24    63    1
    68    25    64    1
    69    29    65    1
    70    31    66    1
    71    32    67    1
    72    33    68    1
    73    34    69    1
    74    38    70    1
    75    39    71    1
    76    41    72    1
    77    42    73    1
    78    43    74    1
