
     RDKit          3D

 74 78  0  0  0  0  0  0  0  0999 V2000
    3.7708    0.3581    4.7142 C   0  0  0  0  0  0  0  0  0  0  0  0
    3.1266    0.5610    3.3673 C   0  0  0  0  0  0  0  0  0  0  0  0
    2.4630    1.8855    3.2055 C   0  0  0  0  0  0  0  0  0  0  0  0
    4.1216    0.2680    2.2262 C   0  0  0  0  0  0  0  0  0  0  0  0
    4.3960   -1.1848    2.4638 C   0  0  0  0  0  0  0  0  0  0  0  0
    3.1833   -1.7524    3.2202 C   0  0  0  0  0  0  0  0  0  0  0  0
    2.1919   -0.6137    3.0274 C   0  0  0  0  0  0  0  0  0  0  0  0
    0.9853   -0.6813    3.8388 C   0  0  0  0  0  0  0  0  0  0  0  0
    2.0071   -0.4312    1.5463 C   0  0  1  0  0  0  0  0  0  0  0  0
    0.7441    0.0525    1.1904 O   0  0  0  0  0  0  0  0  0  0  0  0
   -0.0806   -0.6829    0.3571 C   0  0  0  0  0  0  0  0  0  0  0  0
    0.3662   -1.7911   -0.0527 O   0  0  0  0  0  0  0  0  0  0  0  0
   -1.4079   -0.2505   -0.0599 C   0  0  0  0  0  0  0  0  0  0  0  0
   -1.8837    0.9662    0.3957 C   0  0  0  0  0  0  0  0  0  0  0  0
   -3.1347    1.3365   -0.0161 C   0  0  0  0  0  0  0  0  0  0  0  0
   -3.6071    2.5719    0.4515 O   0  0  0  0  0  0  0  0  0  0  0  0
   -3.9203    0.5509   -0.8541 C   0  0  0  0  0  0  0  0  0  0  0  0
   -5.1739    1.1157   -1.2943 C   0  0  0  0  0  0  0  0  0  0  0  0
   -5.3080    2.4075   -1.2869 O   0  0  0  0  0  0  0  0  0  0  0  0
   -6.3434    0.4084   -1.7715 C   0  0  0  0  0  0  0  0  0  0  0  0
   -6.9889    0.9945   -2.8670 C   0  0  0  0  0  0  0  0  0  0  0  0
   -6.5068    2.1588   -3.4479 O   0  0  0  0  0  0  0  0  0  0  0  0
   -8.1134    0.4380   -3.3970 C   0  0  0  0  0  0  0  0  0  0  0  0
   -8.6168   -0.7208   -2.8399 C   0  0  0  0  0  0  0  0  0  0  0  0
   -7.9883   -1.2843   -1.7737 C   0  0  0  0  0  0  0  0  0  0  0  0
   -6.8232   -0.7399   -1.1900 C   0  0  0  0  0  0  0  0  0  0  0  0
   -6.3568   -1.3099    0.0615 C   0  0  0  0  0  0  0  0  0  0  0  0
   -6.8239   -2.4312    0.4111 O   0  0  0  0  0  0  0  0  0  0  0  0
   -5.4548   -0.7380    0.9142 O   0  0  0  0  0  0  0  0  0  0  0  0
   -3.4251   -0.6639   -1.3008 C   0  0  0  0  0  0  0  0  0  0  0  0
   -4.1750   -1.4513   -2.1305 O   0  0  0  0  0  0  0  0  0  0  0  0
   -2.1527   -1.0484   -0.8854 C   0  0  0  0  0  0  0  0  0  0  0  0
    3.1549    0.4348    1.0637 C   0  0  2  0  0  0  0  0  0  0  0  0
    3.6957    0.0439   -0.1983 N   0  0  0  0  0  0  0  0  0  0  0  0
    3.8189    0.9230   -1.3043 C   0  0  0  0  0  0  0  0  0  0  0  0
    3.4178    2.1019   -1.1221 O   0  0  0  0  0  0  0  0  0  0  0  0
    4.3671    0.5523   -2.6028 C   0  0  0  0  0  0  0  0  0  0  0  0
    4.8204   -0.7152   -2.8910 C   0  0  0  0  0  0  0  0  0  0  0  0
    5.3390   -1.0124   -4.1572 C   0  0  0  0  0  0  0  0  0  0  0  0
    5.4174   -0.0637   -5.1556 C   0  0  0  0  0  0  0  0  0  0  0  0
    5.9340   -0.3623   -6.4147 O   0  0  0  0  0  0  0  0  0  0  0  0
    4.9609    1.2015   -4.8558 C   0  0  0  0  0  0  0  0  0  0  0  0
    4.4511    1.4902   -3.6081 C   0  0  0  0  0  0  0  0  0  0  0  0
    3.1030   -0.1643    5.4282 H   0  0  0  0  0  0  0  0  0  0  0  0
    4.1052    1.3385    5.1145 H   0  0  0  0  0  0  0  0  0  0  0  0
    4.6914   -0.2598    4.5754 H   0  0  0  0  0  0  0  0  0  0  0  0
    1.5367    1.8870    2.6328 H   0  0  0  0  0  0  0  0  0  0  0  0
    3.1517    2.6713    2.7872 H   0  0  0  0  0  0  0  0  0  0  0  0
    2.2168    2.2677    4.2362 H   0  0  0  0  0  0  0  0  0  0  0  0
    4.9642    0.9280    2.2145 H   0  0  0  0  0  0  0  0  0  0  0  0
    4.4194   -1.7401    1.5050 H   0  0  0  0  0  0  0  0  0  0  0  0
    5.3347   -1.3875    3.0045 H   0  0  0  0  0  0  0  0  0  0  0  0
    3.4165   -1.8886    4.2779 H   0  0  0  0  0  0  0  0  0  0  0  0
    2.8328   -2.6938    2.7916 H   0  0  0  0  0  0  0  0  0  0  0  0
    1.1457   -0.1058    4.7967 H   0  0  0  0  0  0  0  0  0  0  0  0
    0.6878   -1.7056    4.1698 H   0  0  0  0  0  0  0  0  0  0  0  0
    0.1371   -0.1673    3.3370 H   0  0  0  0  0  0  0  0  0  0  0  0
    2.1748   -1.4351    1.0540 H   0  0  0  0  0  0  0  0  0  0  0  0
   -1.2531    1.5463    1.0394 H   0  0  0  0  0  0  0  0  0  0  0  0
   -4.4607    2.5059    1.0183 H   0  0  0  0  0  0  0  0  0  0  0  0
   -6.2793    2.2462   -4.4334 H   0  0  0  0  0  0  0  0  0  0  0  0
   -8.6353    0.8620   -4.2389 H   0  0  0  0  0  0  0  0  0  0  0  0
   -9.5091   -1.1779   -3.2517 H   0  0  0  0  0  0  0  0  0  0  0  0
   -8.3784   -2.1858   -1.3400 H   0  0  0  0  0  0  0  0  0  0  0  0
   -5.0192   -1.1446    1.7107 H   0  0  0  0  0  0  0  0  0  0  0  0
   -4.3760   -2.4284   -1.9188 H   0  0  0  0  0  0  0  0  0  0  0  0
   -1.8042   -2.0140   -1.2611 H   0  0  0  0  0  0  0  0  0  0  0  0
    2.8318    1.4956    1.0983 H   0  0  0  0  0  0  0  0  0  0  0  0
    4.0191   -0.9376   -0.3224 H   0  0  0  0  0  0  0  0  0  0  0  0
    4.7710   -1.4841   -2.1236 H   0  0  0  0  0  0  0  0  0  0  0  0
    5.6876   -2.0137   -4.3571 H   0  0  0  0  0  0  0  0  0  0  0  0
    6.9324   -0.1751   -6.5762 H   0  0  0  0  0  0  0  0  0  0  0  0
    5.0190    1.9670   -5.6465 H   0  0  0  0  0  0  0  0  0  0  0  0
    4.0889    2.5017   -3.3764 H   0  0  0  0  0  0  0  0  0  0  0  0
  1  2  1  0
  2  3  1  0
  2  4  1  0
  4  5  1  0
  5  6  1  0
  6  7  1  0
  7  8  1  0
  7  9  1  0
  9 10  1  0
 10 11  1  0
 11 12  2  0
 11 13  1  0
 13 14  2  0
 14 15  1  0
 15 16  1  0
 15 17  2  0
 17 18  1  0
 18 19  2  0
 18 20  1  0
 20 21  2  0
 21 22  1  0
 21 23  1  0
 23 24  2  0
 24 25  1  0
 25 26  2  0
 26 27  1  0
 27 28  2  0
 27 29  1  0
 17 30  1  0
 30 31  1  0
 30 32  2  0
  9 33  1  0
 33 34  1  0
 34 35  1  0
 35 36  2  0
 35 37  1  0
 37 38  2  0
 38 39  1  0
 39 40  2  0
 40 41  1  0
 40 42  1  0
 42 43  2  0
  7  2  1  0
 32 13  1  0
 43 37  1  0
 33  4  1  0
 26 20  1  0
  1 44  1  0
  1 45  1  0
  1 46  1  0
  3 47  1  0
  3 48  1  0
  3 49  1  0
  4 50  1  0
  5 51  1  0
  5 52  1  0
  6 53  1  0
  6 54  1  0
  8 55  1  0
  8 56  1  0
  8 57  1  0
  9 58  1  6
 14 59  1  0
 16 60  1  0
 22 61  1  0
 23 62  1  0
 24 63  1  0
 25 64  1  0
 29 65  1  0
 31 66  1  0
 32 67  1  0
 33 68  1  6
 34 69  1  0
 38 70  1  0
 39 71  1  0
 41 72  1  0
 42 73  1  0
 43 74  1  0
M  END
$$$$
