@<TRIPOS>MOLECULE
*****
 45 48 0 0 0
SMALL
GASTEIGER

@<TRIPOS>ATOM
      1 C           5.2427   -1.9719   -2.7027 C.3     1  UNL1        0.0833
      2 O           5.0030   -1.0000   -1.7158 O.3     1  UNL1       -0.4534
      3 C           4.0974   -1.3102   -0.6961 C.2     1  UNL1        0.4054
      4 O           3.4938   -2.3945   -0.6140 O.2     1  UNL1       -0.2261
      5 N           3.8679   -0.3291    0.2837 N.am    1  UNL1       -0.2342
      6 C           2.9818   -0.4833    1.3832 C.ar    1  UNL1        0.1495
      7 C           3.3592   -0.9932    2.6039 C.ar    1  UNL1        0.0702
      8 N           2.2409   -0.9687    3.3561 N.ar    1  UNL1       -0.2327
      9 C           1.2204   -0.4668    2.6326 C.ar    1  UNL1        0.1562
     10 C          -0.1049   -0.2361    2.9332 C.ar    1  UNL1       -0.0153
     11 C          -0.9364    0.2988    1.9741 C.ar    1  UNL1       -0.0290
     12 C          -0.4456    0.6024    0.7191 C.ar    1  UNL1        0.1103
     13 C          -1.3463    1.1600   -0.2520 C.ar    1  UNL1        0.0968
     14 C          -2.4809    0.5873   -0.7662 C.ar    1  UNL1        0.0982
     15 C          -3.0312   -0.7155   -0.4374 C.ar    1  UNL1        0.0027
     16 C          -2.3464   -1.8826   -0.6619 C.ar    1  UNL1       -0.0498
     17 C          -2.8940   -3.1192   -0.3389 C.ar    1  UNL1       -0.0258
     18 C          -4.1717   -3.1648    0.2267 C.ar    1  UNL1        0.1234
     19 F          -4.6957   -4.3875    0.5389 F       1  UNL1       -0.2055
     20 C          -4.8543   -1.9962    0.4500 C.ar    1  UNL1       -0.0258
     21 C          -4.2860   -0.7926    0.1203 C.ar    1  UNL1       -0.0498
     22 N          -3.0262    1.4431   -1.6466 N.ar    1  UNL1       -0.2351
     23 C          -2.2558    2.5192   -1.6822 C.ar    1  UNL1        0.0973
     24 N          -1.2095    2.3595   -0.8230 N.ar    1  UNL1       -0.3229
     25 C          -0.2155    3.3528   -0.6490 C.3     1  UNL1        0.0852
     26 C          -0.4691    4.3648    0.4119 C.3     1  UNL1        0.2569
     27 F          -1.5905    5.1076    0.2577 F       1  UNL1       -0.2073
     28 F           0.6052    5.2477    0.4004 F       1  UNL1       -0.2073
     29 N           0.8486    0.3550    0.4910 N.ar    1  UNL1       -0.1618
     30 N           1.6517   -0.1555    1.3994 N.ar    1  UNL1       -0.1982
     31 H           4.3821   -2.6341   -2.8607 H       1  UNL1        0.0661
     32 H           5.4319   -1.4176   -3.6552 H       1  UNL1        0.0661
     33 H           6.1598   -2.5151   -2.4508 H       1  UNL1        0.0661
     34 H           4.3703    0.6075    0.2388 H       1  UNL1        0.1596
     35 H           4.3273   -1.3478    2.9340 H       1  UNL1        0.0865
     36 H          -0.4611   -0.4873    3.9344 H       1  UNL1        0.0655
     37 H          -1.9869    0.4786    2.2209 H       1  UNL1        0.0641
     38 H          -1.3558   -1.7976   -1.1035 H       1  UNL1        0.0625
     39 H          -2.3423   -4.0273   -0.5216 H       1  UNL1        0.0646
     40 H          -5.8268   -2.0298    0.8802 H       1  UNL1        0.0646
     41 H          -4.8303    0.1365    0.2986 H       1  UNL1        0.0625
     42 H          -2.4517    3.3921   -2.3152 H       1  UNL1        0.1029
     43 H           0.7886    2.8872   -0.4167 H       1  UNL1        0.0548
     44 H          -0.0510    3.8817   -1.6103 H       1  UNL1        0.0548
     45 H          -0.4067    3.8426    1.3973 H       1  UNL1        0.1037
@<TRIPOS>BOND
     1     1     2    1
     2     2     3    1
     3     3     4    2
     4     3     5   am
     5     5     6    1
     6     6     7   ar
     7     7     8   ar
     8     8     9   ar
     9     9    10   ar
    10    10    11   ar
    11    11    12   ar
    12    12    13    1
    13    13    14   ar
    14    14    15    1
    15    15    16   ar
    16    16    17   ar
    17    17    18   ar
    18    18    19    1
    19    18    20   ar
    20    20    21   ar
    21    14    22   ar
    22    22    23   ar
    23    23    24   ar
    24    24    25    1
    25    25    26    1
    26    26    27    1
    27    26    28    1
    28    12    29   ar
    29    29    30   ar
    30    30     6   ar
    31    30     9   ar
    32    24    13   ar
    33    21    15   ar
    34     1    31    1
    35     1    32    1
    36     1    33    1
    37     5    34    1
    38     7    35    1
    39    10    36    1
    40    11    37    1
    41    16    38    1
    42    17    39    1
    43    20    40    1
    44    21    41    1
    45    23    42    1
    46    25    43    1
    47    25    44    1
    48    26    45    1
