
     RDKit          3D

 45 48  0  0  0  0  0  0  0  0999 V2000
    5.2427   -1.9719   -2.7027 C   0  0  0  0  0  0  0  0  0  0  0  0
    5.0030   -1.0000   -1.7158 O   0  0  0  0  0  0  0  0  0  0  0  0
    4.0974   -1.3102   -0.6961 C   0  0  0  0  0  0  0  0  0  0  0  0
    3.4938   -2.3945   -0.6140 O   0  0  0  0  0  0  0  0  0  0  0  0
    3.8679   -0.3291    0.2837 N   0  0  0  0  0  0  0  0  0  0  0  0
    2.9818   -0.4833    1.3832 C   0  0  0  0  0  0  0  0  0  0  0  0
    3.3592   -0.9932    2.6039 C   0  0  0  0  0  0  0  0  0  0  0  0
    2.2409   -0.9687    3.3561 N   0  0  0  0  0  0  0  0  0  0  0  0
    1.2204   -0.4668    2.6326 C   0  0  0  0  0  0  0  0  0  0  0  0
   -0.1049   -0.2361    2.9332 C   0  0  0  0  0  0  0  0  0  0  0  0
   -0.9364    0.2988    1.9741 C   0  0  0  0  0  0  0  0  0  0  0  0
   -0.4456    0.6024    0.7191 C   0  0  0  0  0  0  0  0  0  0  0  0
   -1.3463    1.1600   -0.2520 C   0  0  0  0  0  0  0  0  0  0  0  0
   -2.4809    0.5873   -0.7662 C   0  0  0  0  0  0  0  0  0  0  0  0
   -3.0312   -0.7155   -0.4374 C   0  0  0  0  0  0  0  0  0  0  0  0
   -2.3464   -1.8826   -0.6619 C   0  0  0  0  0  0  0  0  0  0  0  0
   -2.8940   -3.1192   -0.3389 C   0  0  0  0  0  0  0  0  0  0  0  0
   -4.1717   -3.1648    0.2267 C   0  0  0  0  0  0  0  0  0  0  0  0
   -4.6957   -4.3875    0.5389 F   0  0  0  0  0  0  0  0  0  0  0  0
   -4.8543   -1.9962    0.4500 C   0  0  0  0  0  0  0  0  0  0  0  0
   -4.2860   -0.7926    0.1203 C   0  0  0  0  0  0  0  0  0  0  0  0
   -3.0262    1.4431   -1.6466 N   0  0  0  0  0  0  0  0  0  0  0  0
   -2.2558    2.5192   -1.6822 C   0  0  0  0  0  0  0  0  0  0  0  0
   -1.2095    2.3595   -0.8230 N   0  0  0  0  0  0  0  0  0  0  0  0
   -0.2155    3.3528   -0.6490 C   0  0  0  0  0  0  0  0  0  0  0  0
   -0.4691    4.3648    0.4119 C   0  0  0  0  0  0  0  0  0  0  0  0
   -1.5905    5.1076    0.2577 F   0  0  0  0  0  0  0  0  0  0  0  0
    0.6052    5.2477    0.4004 F   0  0  0  0  0  0  0  0  0  0  0  0
    0.8486    0.3550    0.4910 N   0  0  0  0  0  0  0  0  0  0  0  0
    1.6517   -0.1555    1.3994 N   0  0  0  0  0  0  0  0  0  0  0  0
    4.3821   -2.6341   -2.8607 H   0  0  0  0  0  0  0  0  0  0  0  0
    5.4319   -1.4176   -3.6552 H   0  0  0  0  0  0  0  0  0  0  0  0
    6.1598   -2.5151   -2.4508 H   0  0  0  0  0  0  0  0  0  0  0  0
    4.3703    0.6075    0.2388 H   0  0  0  0  0  0  0  0  0  0  0  0
    4.3273   -1.3478    2.9340 H   0  0  0  0  0  0  0  0  0  0  0  0
   -0.4611   -0.4873    3.9344 H   0  0  0  0  0  0  0  0  0  0  0  0
   -1.9869    0.4786    2.2209 H   0  0  0  0  0  0  0  0  0  0  0  0
   -1.3558   -1.7976   -1.1035 H   0  0  0  0  0  0  0  0  0  0  0  0
   -2.3423   -4.0273   -0.5216 H   0  0  0  0  0  0  0  0  0  0  0  0
   -5.8268   -2.0298    0.8802 H   0  0  0  0  0  0  0  0  0  0  0  0
   -4.8303    0.1365    0.2986 H   0  0  0  0  0  0  0  0  0  0  0  0
   -2.4517    3.3921   -2.3152 H   0  0  0  0  0  0  0  0  0  0  0  0
    0.7886    2.8872   -0.4167 H   0  0  0  0  0  0  0  0  0  0  0  0
   -0.0510    3.8817   -1.6103 H   0  0  0  0  0  0  0  0  0  0  0  0
   -0.4067    3.8426    1.3973 H   0  0  0  0  0  0  0  0  0  0  0  0
  1  2  1  0
  2  3  1  0
  3  4  2  0
  3  5  1  0
  5  6  1  0
  6  7  2  0
  7  8  1  0
  8  9  2  0
  9 10  1  0
 10 11  2  0
 11 12  1  0
 12 13  1  0
 13 14  2  0
 14 15  1  0
 15 16  2  0
 16 17  1  0
 17 18  2  0
 18 19  1  0
 18 20  1  0
 20 21  2  0
 14 22  1  0
 22 23  2  0
 23 24  1  0
 24 25  1  0
 25 26  1  0
 26 27  1  0
 26 28  1  0
 12 29  2  0
 29 30  1  0
 30  6  1  0
 30  9  1  0
 24 13  1  0
 21 15  1  0
  1 31  1  0
  1 32  1  0
  1 33  1  0
  5 34  1  0
  7 35  1  0
 10 36  1  0
 11 37  1  0
 16 38  1  0
 17 39  1  0
 20 40  1  0
 21 41  1  0
 23 42  1  0
 25 43  1  0
 25 44  1  0
 26 45  1  0
M  END
$$$$
