@<TRIPOS>MOLECULE
*****
 54 57 0 0 0
SMALL
GASTEIGER

@<TRIPOS>ATOM
      1 C          -8.5953    0.0146   -1.8371 C.3     1  UNL1       -0.0397
      2 C          -7.1498    0.1511   -1.4605 C.ar    1  UNL1       -0.0504
      3 C          -6.2968    0.9782   -2.1685 C.ar    1  UNL1       -0.0581
      4 C          -4.9729    1.0623   -1.7717 C.ar    1  UNL1       -0.0493
      5 C          -4.4567    0.3620   -0.7026 C.ar    1  UNL1        0.0382
      6 C          -3.0626    0.4796   -0.3130 C.2     1  UNL1        0.2601
      7 O          -2.3275    1.2966   -0.9802 O.2     1  UNL1       -0.2687
      8 N          -2.4878   -0.2566    0.7540 N.am    1  UNL1       -0.2303
      9 N          -1.1459   -0.0888    1.0696 N.am    1  UNL1       -0.2327
     10 C          -0.7267    0.8646    2.0262 C.2     1  UNL1        0.2490
     11 O          -1.5448    1.5991    2.6293 O.2     1  UNL1       -0.2723
     12 C           0.7267    0.9885    2.3171 C.3     1  UNL1        0.1044
     13 N           1.5074    0.0863    1.4976 N.ar    1  UNL1       -0.2963
     14 C           2.0047    0.5124    0.2954 C.ar    1  UNL1        0.2739
     15 O           1.7632    1.6849   -0.0236 O.2     1  UNL1       -0.2657
     16 C           2.7369   -0.3188   -0.5206 C.ar    1  UNL1        0.1105
     17 C           3.3087    0.1408   -1.8319 C.3     1  UNL1        0.0201
     18 C           4.5430    0.9339   -1.6344 C.ar    1  UNL1       -0.0414
     19 C           5.7806    0.2837   -1.5295 C.ar    1  UNL1       -0.0582
     20 C           6.9584    0.9629   -1.3471 C.ar    1  UNL1       -0.0615
     21 C           6.9094    2.3462   -1.2653 C.ar    1  UNL1       -0.0617
     22 C           5.7149    3.0261   -1.3629 C.ar    1  UNL1       -0.0615
     23 C           4.5547    2.2987   -1.5465 C.ar    1  UNL1       -0.0582
     24 N           2.9839   -1.5871   -0.1510 N.ar    1  UNL1       -0.2444
     25 C           2.5156   -2.0484    1.0209 C.ar    1  UNL1        0.0879
     26 C           2.7841   -3.3599    1.3792 C.ar    1  UNL1       -0.0343
     27 C           2.3159   -3.8544    2.5717 C.ar    1  UNL1       -0.0596
     28 C           1.5872   -3.0011    3.3671 C.ar    1  UNL1       -0.0597
     29 C           1.3182   -1.6944    3.0125 C.ar    1  UNL1       -0.0360
     30 C           1.7789   -1.1876    1.8266 C.ar    1  UNL1        0.0708
     31 C          -5.3302   -0.4503   -0.0205 C.ar    1  UNL1       -0.0493
     32 C          -6.6585   -0.5582   -0.3895 C.ar    1  UNL1       -0.0581
     33 H          -8.9783   -0.9771   -1.4662 H       1  UNL1        0.0278
     34 H          -8.6998    0.0909   -2.9390 H       1  UNL1        0.0278
     35 H          -9.1652    0.8081   -1.3424 H       1  UNL1        0.0278
     36 H          -6.7089    1.5209   -3.0038 H       1  UNL1        0.0620
     37 H          -4.3369    1.7176   -2.3481 H       1  UNL1        0.0625
     38 H          -3.1061   -0.9317    1.2976 H       1  UNL1        0.1731
     39 H          -0.4313   -0.6701    0.5967 H       1  UNL1        0.1729
     40 H           0.9226    0.9230    3.3959 H       1  UNL1        0.0589
     41 H           1.0480    2.0409    2.0427 H       1  UNL1        0.0589
     42 H           3.4885   -0.7503   -2.4620 H       1  UNL1        0.0378
     43 H           2.5650    0.7665   -2.3766 H       1  UNL1        0.0378
     44 H           5.8113   -0.8022   -1.5947 H       1  UNL1        0.0620
     45 H           7.9226    0.4458   -1.2652 H       1  UNL1        0.0618
     46 H           7.8566    2.8833   -1.1190 H       1  UNL1        0.0618
     47 H           5.6792    4.1061   -1.2969 H       1  UNL1        0.0618
     48 H           3.6295    2.8439   -1.6249 H       1  UNL1        0.0620
     49 H           3.3563   -4.0189    0.7460 H       1  UNL1        0.0639
     50 H           2.5208   -4.8920    2.8688 H       1  UNL1        0.0618
     51 H           1.2149   -3.3826    4.3097 H       1  UNL1        0.0618
     52 H           0.7345   -1.0382    3.6597 H       1  UNL1        0.0639
     53 H          -5.0355   -1.0428    0.8302 H       1  UNL1        0.0625
     54 H          -7.3248   -1.2169    0.1809 H       1  UNL1        0.0620
@<TRIPOS>BOND
     1     1     2    1
     2     2     3   ar
     3     3     4   ar
     4     4     5   ar
     5     5     6    1
     6     6     7    2
     7     6     8   am
     8     8     9    1
     9     9    10   am
    10    10    11    2
    11    10    12    1
    12    12    13    1
    13    13    14   ar
    14    14    15    2
    15    14    16   ar
    16    16    17    1
    17    17    18    1
    18    18    19   ar
    19    19    20   ar
    20    20    21   ar
    21    21    22   ar
    22    22    23   ar
    23    16    24   ar
    24    24    25   ar
    25    25    26   ar
    26    26    27   ar
    27    27    28   ar
    28    28    29   ar
    29    29    30   ar
    30     5    31   ar
    31    31    32   ar
    32    32     2   ar
    33    30    13   ar
    34    23    18   ar
    35    30    25   ar
    36     1    33    1
    37     1    34    1
    38     1    35    1
    39     3    36    1
    40     4    37    1
    41     8    38    1
    42     9    39    1
    43    12    40    1
    44    12    41    1
    45    17    42    1
    46    17    43    1
    47    19    44    1
    48    20    45    1
    49    21    46    1
    50    22    47    1
    51    23    48    1
    52    26    49    1
    53    27    50    1
    54    28    51    1
    55    29    52    1
    56    31    53    1
    57    32    54    1
