
     RDKit          3D

 54 57  0  0  0  0  0  0  0  0999 V2000
   -8.5953    0.0146   -1.8371 C   0  0  0  0  0  0  0  0  0  0  0  0
   -7.1498    0.1511   -1.4605 C   0  0  0  0  0  0  0  0  0  0  0  0
   -6.2968    0.9782   -2.1685 C   0  0  0  0  0  0  0  0  0  0  0  0
   -4.9729    1.0623   -1.7717 C   0  0  0  0  0  0  0  0  0  0  0  0
   -4.4567    0.3620   -0.7026 C   0  0  0  0  0  0  0  0  0  0  0  0
   -3.0626    0.4796   -0.3130 C   0  0  0  0  0  0  0  0  0  0  0  0
   -2.3275    1.2966   -0.9802 O   0  0  0  0  0  0  0  0  0  0  0  0
   -2.4878   -0.2566    0.7540 N   0  0  0  0  0  0  0  0  0  0  0  0
   -1.1459   -0.0888    1.0696 N   0  0  0  0  0  0  0  0  0  0  0  0
   -0.7267    0.8646    2.0262 C   0  0  0  0  0  0  0  0  0  0  0  0
   -1.5448    1.5991    2.6293 O   0  0  0  0  0  0  0  0  0  0  0  0
    0.7267    0.9885    2.3171 C   0  0  0  0  0  0  0  0  0  0  0  0
    1.5074    0.0863    1.4976 N   0  0  0  0  0  0  0  0  0  0  0  0
    2.0047    0.5124    0.2954 C   0  0  0  0  0  0  0  0  0  0  0  0
    1.7632    1.6849   -0.0236 O   0  0  0  0  0  0  0  0  0  0  0  0
    2.7369   -0.3188   -0.5206 C   0  0  0  0  0  0  0  0  0  0  0  0
    3.3087    0.1408   -1.8319 C   0  0  0  0  0  0  0  0  0  0  0  0
    4.5430    0.9339   -1.6344 C   0  0  0  0  0  0  0  0  0  0  0  0
    5.7806    0.2837   -1.5295 C   0  0  0  0  0  0  0  0  0  0  0  0
    6.9584    0.9629   -1.3471 C   0  0  0  0  0  0  0  0  0  0  0  0
    6.9094    2.3462   -1.2653 C   0  0  0  0  0  0  0  0  0  0  0  0
    5.7149    3.0261   -1.3629 C   0  0  0  0  0  0  0  0  0  0  0  0
    4.5547    2.2987   -1.5465 C   0  0  0  0  0  0  0  0  0  0  0  0
    2.9839   -1.5871   -0.1510 N   0  0  0  0  0  0  0  0  0  0  0  0
    2.5156   -2.0484    1.0209 C   0  0  0  0  0  0  0  0  0  0  0  0
    2.7841   -3.3599    1.3792 C   0  0  0  0  0  0  0  0  0  0  0  0
    2.3159   -3.8544    2.5717 C   0  0  0  0  0  0  0  0  0  0  0  0
    1.5872   -3.0011    3.3671 C   0  0  0  0  0  0  0  0  0  0  0  0
    1.3182   -1.6944    3.0125 C   0  0  0  0  0  0  0  0  0  0  0  0
    1.7789   -1.1876    1.8266 C   0  0  0  0  0  0  0  0  0  0  0  0
   -5.3302   -0.4503   -0.0205 C   0  0  0  0  0  0  0  0  0  0  0  0
   -6.6585   -0.5582   -0.3895 C   0  0  0  0  0  0  0  0  0  0  0  0
   -8.9783   -0.9771   -1.4662 H   0  0  0  0  0  0  0  0  0  0  0  0
   -8.6998    0.0909   -2.9390 H   0  0  0  0  0  0  0  0  0  0  0  0
   -9.1652    0.8081   -1.3424 H   0  0  0  0  0  0  0  0  0  0  0  0
   -6.7089    1.5209   -3.0038 H   0  0  0  0  0  0  0  0  0  0  0  0
   -4.3369    1.7176   -2.3481 H   0  0  0  0  0  0  0  0  0  0  0  0
   -3.1061   -0.9317    1.2976 H   0  0  0  0  0  0  0  0  0  0  0  0
   -0.4313   -0.6701    0.5967 H   0  0  0  0  0  0  0  0  0  0  0  0
    0.9226    0.9230    3.3959 H   0  0  0  0  0  0  0  0  0  0  0  0
    1.0480    2.0409    2.0427 H   0  0  0  0  0  0  0  0  0  0  0  0
    3.4885   -0.7503   -2.4620 H   0  0  0  0  0  0  0  0  0  0  0  0
    2.5650    0.7665   -2.3766 H   0  0  0  0  0  0  0  0  0  0  0  0
    5.8113   -0.8022   -1.5947 H   0  0  0  0  0  0  0  0  0  0  0  0
    7.9226    0.4458   -1.2652 H   0  0  0  0  0  0  0  0  0  0  0  0
    7.8566    2.8833   -1.1190 H   0  0  0  0  0  0  0  0  0  0  0  0
    5.6792    4.1061   -1.2969 H   0  0  0  0  0  0  0  0  0  0  0  0
    3.6295    2.8439   -1.6249 H   0  0  0  0  0  0  0  0  0  0  0  0
    3.3563   -4.0189    0.7460 H   0  0  0  0  0  0  0  0  0  0  0  0
    2.5208   -4.8920    2.8688 H   0  0  0  0  0  0  0  0  0  0  0  0
    1.2149   -3.3826    4.3097 H   0  0  0  0  0  0  0  0  0  0  0  0
    0.7345   -1.0382    3.6597 H   0  0  0  0  0  0  0  0  0  0  0  0
   -5.0355   -1.0428    0.8302 H   0  0  0  0  0  0  0  0  0  0  0  0
   -7.3248   -1.2169    0.1809 H   0  0  0  0  0  0  0  0  0  0  0  0
  1  2  1  0
  2  3  2  0
  3  4  1  0
  4  5  2  0
  5  6  1  0
  6  7  2  0
  6  8  1  0
  8  9  1  0
  9 10  1  0
 10 11  2  0
 10 12  1  0
 12 13  1  0
 13 14  1  0
 14 15  2  0
 14 16  1  0
 16 17  1  0
 17 18  1  0
 18 19  2  0
 19 20  1  0
 20 21  2  0
 21 22  1  0
 22 23  2  0
 16 24  2  0
 24 25  1  0
 25 26  2  0
 26 27  1  0
 27 28  2  0
 28 29  1  0
 29 30  2  0
  5 31  1  0
 31 32  2  0
 32  2  1  0
 30 13  1  0
 23 18  1  0
 30 25  1  0
  1 33  1  0
  1 34  1  0
  1 35  1  0
  3 36  1  0
  4 37  1  0
  8 38  1  0
  9 39  1  0
 12 40  1  0
 12 41  1  0
 17 42  1  0
 17 43  1  0
 19 44  1  0
 20 45  1  0
 21 46  1  0
 22 47  1  0
 23 48  1  0
 26 49  1  0
 27 50  1  0
 28 51  1  0
 29 52  1  0
 31 53  1  0
 32 54  1  0
M  END
$$$$
