@<TRIPOS>MOLECULE
*****
 72 76 0 0 0
SMALL
GASTEIGER

@<TRIPOS>ATOM
      1 O           5.8274   -0.4862   -0.9026 O.2     1  UNL1       -0.2702
      2 C           6.6555   -0.0683   -0.0226 C.2     1  UNL1        0.2445
      3 N           6.1062    0.2747    1.2183 N.am    1  UNL1       -0.3027
      4 C           4.7074    0.1947    1.5661 C.3     1  UNL1        0.0886
      5 C           3.9400    1.0829    0.6585 C.2     1  UNL1        0.2328
      6 O           4.6153    1.7248   -0.2145 O.2     1  UNL1       -0.2739
      7 N           2.5389    1.2125    0.7533 N.am    1  UNL1       -0.2987
      8 C           1.6789    2.0239   -0.0492 C.3     1  UNL1        0.0162
      9 C           0.5664    1.0006   -0.3882 C.3     1  UNL1       -0.0202
     10 C           0.5668    0.0534    0.7830 C.3     1  UNL1        0.0250
     11 N          -0.6390   -0.1117    1.4809 N.3     1  UNL1       -0.3090
     12 C          -1.5958   -0.9232    0.8333 C.3     1  UNL1        0.0081
     13 C          -2.8930   -1.0031    1.6767 C.3     1  UNL1       -0.0346
     14 C          -3.6200   -2.2357    1.1991 C.3     1  UNL1       -0.0170
     15 C          -4.0212   -2.0853   -0.2644 C.3     1  UNL1        0.1077
     16 O          -4.3558   -3.4011   -0.6716 O.3     1  UNL1       -0.3824
     17 C          -5.2457   -1.2599   -0.4287 C.ar    1  UNL1        0.0727
     18 C          -6.4797   -1.8615   -0.4153 C.ar    1  UNL1       -0.0369
     19 C          -7.6584   -1.1207   -0.5685 C.ar    1  UNL1       -0.0478
     20 C          -7.5692    0.2367   -0.7349 C.ar    1  UNL1        0.0372
     21 C          -8.7884    1.0323   -0.8976 C.ar    1  UNL1        0.1611
     22 N          -8.7261    2.3654   -1.0624 N.ar    1  UNL1       -0.2356
     23 C          -9.8289    3.1313   -1.2158 C.ar    1  UNL1        0.0314
     24 C         -11.0871    2.5484   -1.2072 C.ar    1  UNL1       -0.0254
     25 C         -11.1415    1.1806   -1.0376 C.ar    1  UNL1        0.0314
     26 N         -10.0091    0.4701   -0.8897 N.ar    1  UNL1       -0.2356
     27 C          -6.3252    0.8233   -0.7459 C.ar    1  UNL1        0.0387
     28 N          -5.2018    0.0740   -0.5946 N.ar    1  UNL1       -0.2563
     29 C          -2.8843   -1.6636   -1.1194 C.3     1  UNL1       -0.0170
     30 C          -2.0110   -0.5663   -0.5468 C.3     1  UNL1       -0.0346
     31 C           1.7113    0.5328    1.7004 C.3     1  UNL1        0.0302
     32 C           8.0478    0.0027   -0.4008 C.ar    1  UNL1        0.0372
     33 C           8.4433   -0.3718   -1.6594 C.ar    1  UNL1       -0.0496
     34 C           9.7855   -0.3127   -2.0514 C.ar    1  UNL1       -0.0605
     35 C          10.7348    0.1299   -1.1601 C.ar    1  UNL1       -0.0501
     36 C          10.3535    0.5083    0.1035 C.ar    1  UNL1        0.0555
     37 C          11.3676    0.9824    1.0589 C.3     1  UNL1        0.4174
     38 F          11.7371   -0.1194    1.8342 F       1  UNL1       -0.1659
     39 F          12.4575    1.4280    0.3595 F       1  UNL1       -0.1659
     40 F          10.8679    1.9963    1.8781 F       1  UNL1       -0.1659
     41 C           9.0046    0.4427    0.4801 C.ar    1  UNL1       -0.0380
     42 H           6.7494    0.6181    1.9632 H       1  UNL1        0.1495
     43 H           4.5209    0.4191    2.6306 H       1  UNL1        0.0558
     44 H           4.3215   -0.8446    1.3504 H       1  UNL1        0.0558
     45 H           1.1601    2.8233    0.5203 H       1  UNL1        0.0465
     46 H           2.1440    2.3977   -0.9689 H       1  UNL1        0.0465
     47 H          -0.3830    1.5361   -0.5477 H       1  UNL1        0.0296
     48 H           0.9658    0.5087   -1.3114 H       1  UNL1        0.0296
     49 H           0.9718   -0.9476    0.4074 H       1  UNL1        0.0476
     50 H          -1.0106    0.7759    1.8742 H       1  UNL1        0.1225
     51 H          -1.2710   -2.0155    0.8070 H       1  UNL1        0.0460
     52 H          -3.5017   -0.1248    1.4038 H       1  UNL1        0.0281
     53 H          -2.6604   -1.0990    2.7348 H       1  UNL1        0.0281
     54 H          -4.5349   -2.4377    1.7729 H       1  UNL1        0.0297
     55 H          -2.9062   -3.0958    1.2294 H       1  UNL1        0.0297
     56 H          -3.5598   -3.9461   -0.7965 H       1  UNL1        0.2107
     57 H          -6.6305   -2.9240   -0.2889 H       1  UNL1        0.0637
     58 H          -8.6360   -1.5890   -0.5589 H       1  UNL1        0.0626
     59 H          -9.7893    4.2080   -1.3496 H       1  UNL1        0.0831
     60 H         -11.9788    3.1468   -1.3286 H       1  UNL1        0.0648
     61 H         -12.1179    0.7197   -1.0299 H       1  UNL1        0.0831
     62 H          -6.2462    1.8943   -0.8771 H       1  UNL1        0.0837
     63 H          -3.2747   -1.3136   -2.0894 H       1  UNL1        0.0297
     64 H          -2.2051   -2.5443   -1.2996 H       1  UNL1        0.0297
     65 H          -1.0783   -0.6093   -1.1902 H       1  UNL1        0.0281
     66 H          -2.4868    0.4232   -0.6205 H       1  UNL1        0.0281
     67 H           2.2128   -0.3309    2.1837 H       1  UNL1        0.0480
     68 H           1.2878    1.2310    2.4696 H       1  UNL1        0.0480
     69 H           7.7124   -0.7223   -2.3736 H       1  UNL1        0.0625
     70 H          10.1066   -0.6059   -3.0413 H       1  UNL1        0.0618
     71 H          11.7864    0.1701   -1.4852 H       1  UNL1        0.0623
     72 H           8.6995    0.7397    1.4750 H       1  UNL1        0.0631
@<TRIPOS>BOND
     1     1     2    2
     2     2     3   am
     3     3     4    1
     4     4     5    1
     5     5     6    2
     6     5     7   am
     7     7     8    1
     8     8     9    1
     9     9    10    1
    10    10    11    1
    11    11    12    1
    12    12    13    1
    13    13    14    1
    14    14    15    1
    15    15    16    1
    16    15    17    1
    17    17    18   ar
    18    18    19   ar
    19    19    20   ar
    20    20    21    1
    21    21    22   ar
    22    22    23   ar
    23    23    24   ar
    24    24    25   ar
    25    25    26   ar
    26    20    27   ar
    27    27    28   ar
    28    15    29    1
    29    29    30    1
    30    10    31    1
    31     2    32    1
    32    32    33   ar
    33    33    34   ar
    34    34    35   ar
    35    35    36   ar
    36    36    37    1
    37    37    38    1
    38    37    39    1
    39    37    40    1
    40    36    41   ar
    41    31     7    1
    42    41    32   ar
    43    30    12    1
    44    28    17   ar
    45    26    21   ar
    46     3    42    1
    47     4    43    1
    48     4    44    1
    49     8    45    1
    50     8    46    1
    51     9    47    1
    52     9    48    1
    53    10    49    1
    54    11    50    1
    55    12    51    1
    56    13    52    1
    57    13    53    1
    58    14    54    1
    59    14    55    1
    60    16    56    1
    61    18    57    1
    62    19    58    1
    63    23    59    1
    64    24    60    1
    65    25    61    1
    66    27    62    1
    67    29    63    1
    68    29    64    1
    69    30    65    1
    70    30    66    1
    71    31    67    1
    72    31    68    1
    73    33    69    1
    74    34    70    1
    75    35    71    1
    76    41    72    1
