
     RDKit          3D

 72 76  0  0  0  0  0  0  0  0999 V2000
    5.8274   -0.4862   -0.9026 O   0  0  0  0  0  0  0  0  0  0  0  0
    6.6555   -0.0683   -0.0226 C   0  0  0  0  0  0  0  0  0  0  0  0
    6.1062    0.2747    1.2183 N   0  0  0  0  0  0  0  0  0  0  0  0
    4.7074    0.1947    1.5661 C   0  0  0  0  0  0  0  0  0  0  0  0
    3.9400    1.0829    0.6585 C   0  0  0  0  0  0  0  0  0  0  0  0
    4.6153    1.7248   -0.2145 O   0  0  0  0  0  0  0  0  0  0  0  0
    2.5389    1.2125    0.7533 N   0  0  0  0  0  0  0  0  0  0  0  0
    1.6789    2.0239   -0.0492 C   0  0  0  0  0  0  0  0  0  0  0  0
    0.5664    1.0006   -0.3882 C   0  0  0  0  0  0  0  0  0  0  0  0
    0.5668    0.0534    0.7830 C   0  0  2  0  0  0  0  0  0  0  0  0
   -0.6390   -0.1117    1.4809 N   0  0  0  0  0  0  0  0  0  0  0  0
   -1.5958   -0.9232    0.8333 C   0  0  1  0  0  0  0  0  0  0  0  0
   -2.8930   -1.0031    1.6767 C   0  0  0  0  0  0  0  0  0  0  0  0
   -3.6200   -2.2357    1.1991 C   0  0  0  0  0  0  0  0  0  0  0  0
   -4.0212   -2.0853   -0.2644 C   0  0  1  0  0  0  0  0  0  0  0  0
   -4.3558   -3.4011   -0.6716 O   0  0  0  0  0  0  0  0  0  0  0  0
   -5.2457   -1.2599   -0.4287 C   0  0  0  0  0  0  0  0  0  0  0  0
   -6.4797   -1.8615   -0.4153 C   0  0  0  0  0  0  0  0  0  0  0  0
   -7.6584   -1.1207   -0.5685 C   0  0  0  0  0  0  0  0  0  0  0  0
   -7.5692    0.2367   -0.7349 C   0  0  0  0  0  0  0  0  0  0  0  0
   -8.7884    1.0323   -0.8976 C   0  0  0  0  0  0  0  0  0  0  0  0
   -8.7261    2.3654   -1.0624 N   0  0  0  0  0  0  0  0  0  0  0  0
   -9.8289    3.1313   -1.2158 C   0  0  0  0  0  0  0  0  0  0  0  0
  -11.0871    2.5484   -1.2072 C   0  0  0  0  0  0  0  0  0  0  0  0
  -11.1415    1.1806   -1.0376 C   0  0  0  0  0  0  0  0  0  0  0  0
  -10.0091    0.4701   -0.8897 N   0  0  0  0  0  0  0  0  0  0  0  0
   -6.3252    0.8233   -0.7459 C   0  0  0  0  0  0  0  0  0  0  0  0
   -5.2018    0.0740   -0.5946 N   0  0  0  0  0  0  0  0  0  0  0  0
   -2.8843   -1.6636   -1.1194 C   0  0  0  0  0  0  0  0  0  0  0  0
   -2.0110   -0.5663   -0.5468 C   0  0  0  0  0  0  0  0  0  0  0  0
    1.7113    0.5328    1.7004 C   0  0  0  0  0  0  0  0  0  0  0  0
    8.0478    0.0027   -0.4008 C   0  0  0  0  0  0  0  0  0  0  0  0
    8.4433   -0.3718   -1.6594 C   0  0  0  0  0  0  0  0  0  0  0  0
    9.7855   -0.3127   -2.0514 C   0  0  0  0  0  0  0  0  0  0  0  0
   10.7348    0.1299   -1.1601 C   0  0  0  0  0  0  0  0  0  0  0  0
   10.3535    0.5083    0.1035 C   0  0  0  0  0  0  0  0  0  0  0  0
   11.3676    0.9824    1.0589 C   0  0  0  0  0  0  0  0  0  0  0  0
   11.7371   -0.1194    1.8342 F   0  0  0  0  0  0  0  0  0  0  0  0
   12.4575    1.4280    0.3595 F   0  0  0  0  0  0  0  0  0  0  0  0
   10.8679    1.9963    1.8781 F   0  0  0  0  0  0  0  0  0  0  0  0
    9.0046    0.4427    0.4801 C   0  0  0  0  0  0  0  0  0  0  0  0
    6.7494    0.6181    1.9632 H   0  0  0  0  0  0  0  0  0  0  0  0
    4.5209    0.4191    2.6306 H   0  0  0  0  0  0  0  0  0  0  0  0
    4.3215   -0.8446    1.3504 H   0  0  0  0  0  0  0  0  0  0  0  0
    1.1601    2.8233    0.5203 H   0  0  0  0  0  0  0  0  0  0  0  0
    2.1440    2.3977   -0.9689 H   0  0  0  0  0  0  0  0  0  0  0  0
   -0.3830    1.5361   -0.5477 H   0  0  0  0  0  0  0  0  0  0  0  0
    0.9658    0.5087   -1.3114 H   0  0  0  0  0  0  0  0  0  0  0  0
    0.9718   -0.9476    0.4074 H   0  0  0  0  0  0  0  0  0  0  0  0
   -1.0106    0.7759    1.8742 H   0  0  0  0  0  0  0  0  0  0  0  0
   -1.2710   -2.0155    0.8070 H   0  0  0  0  0  0  0  0  0  0  0  0
   -3.5017   -0.1248    1.4038 H   0  0  0  0  0  0  0  0  0  0  0  0
   -2.6604   -1.0990    2.7348 H   0  0  0  0  0  0  0  0  0  0  0  0
   -4.5349   -2.4377    1.7729 H   0  0  0  0  0  0  0  0  0  0  0  0
   -2.9062   -3.0958    1.2294 H   0  0  0  0  0  0  0  0  0  0  0  0
   -3.5598   -3.9461   -0.7965 H   0  0  0  0  0  0  0  0  0  0  0  0
   -6.6305   -2.9240   -0.2889 H   0  0  0  0  0  0  0  0  0  0  0  0
   -8.6360   -1.5890   -0.5589 H   0  0  0  0  0  0  0  0  0  0  0  0
   -9.7893    4.2080   -1.3496 H   0  0  0  0  0  0  0  0  0  0  0  0
  -11.9788    3.1468   -1.3286 H   0  0  0  0  0  0  0  0  0  0  0  0
  -12.1179    0.7197   -1.0299 H   0  0  0  0  0  0  0  0  0  0  0  0
   -6.2462    1.8943   -0.8771 H   0  0  0  0  0  0  0  0  0  0  0  0
   -3.2747   -1.3136   -2.0894 H   0  0  0  0  0  0  0  0  0  0  0  0
   -2.2051   -2.5443   -1.2996 H   0  0  0  0  0  0  0  0  0  0  0  0
   -1.0783   -0.6093   -1.1902 H   0  0  0  0  0  0  0  0  0  0  0  0
   -2.4868    0.4232   -0.6205 H   0  0  0  0  0  0  0  0  0  0  0  0
    2.2128   -0.3309    2.1837 H   0  0  0  0  0  0  0  0  0  0  0  0
    1.2878    1.2310    2.4696 H   0  0  0  0  0  0  0  0  0  0  0  0
    7.7124   -0.7223   -2.3736 H   0  0  0  0  0  0  0  0  0  0  0  0
   10.1066   -0.6059   -3.0413 H   0  0  0  0  0  0  0  0  0  0  0  0
   11.7864    0.1701   -1.4852 H   0  0  0  0  0  0  0  0  0  0  0  0
    8.6995    0.7397    1.4750 H   0  0  0  0  0  0  0  0  0  0  0  0
  1  2  2  0
  2  3  1  0
  3  4  1  0
  4  5  1  0
  5  6  2  0
  5  7  1  0
  7  8  1  0
  8  9  1  0
  9 10  1  0
 10 11  1  0
 11 12  1  0
 12 13  1  0
 13 14  1  0
 14 15  1  0
 15 16  1  6
 15 17  1  0
 17 18  2  0
 18 19  1  0
 19 20  2  0
 20 21  1  0
 21 22  2  0
 22 23  1  0
 23 24  2  0
 24 25  1  0
 25 26  2  0
 20 27  1  0
 27 28  2  0
 15 29  1  0
 29 30  1  0
 10 31  1  0
  2 32  1  0
 32 33  2  0
 33 34  1  0
 34 35  2  0
 35 36  1  0
 36 37  1  0
 37 38  1  0
 37 39  1  0
 37 40  1  0
 36 41  2  0
 31  7  1  0
 41 32  1  0
 30 12  1  0
 28 17  1  0
 26 21  1  0
  3 42  1  0
  4 43  1  0
  4 44  1  0
  8 45  1  0
  8 46  1  0
  9 47  1  0
  9 48  1  0
 10 49  1  6
 11 50  1  0
 12 51  1  6
 13 52  1  0
 13 53  1  0
 14 54  1  0
 14 55  1  0
 16 56  1  0
 18 57  1  0
 19 58  1  0
 23 59  1  0
 24 60  1  0
 25 61  1  0
 27 62  1  0
 29 63  1  0
 29 64  1  0
 30 65  1  0
 30 66  1  0
 31 67  1  0
 31 68  1  0
 33 69  1  0
 34 70  1  0
 35 71  1  0
 41 72  1  0
M  END
$$$$
