@<TRIPOS>MOLECULE
*****
 47 48 0 0 0
SMALL
GASTEIGER

@<TRIPOS>ATOM
      1 C           5.5629   -1.7093    0.1366 C.3     1  UNL1        0.0788
      2 O           4.7859   -1.3294   -0.9720 O.3     1  UNL1       -0.4951
      3 C           3.5022   -0.8709   -0.7947 C.ar    1  UNL1        0.1201
      4 C           2.9104   -0.7560    0.4325 C.ar    1  UNL1       -0.0197
      5 C           1.6133   -0.2918    0.6020 C.ar    1  UNL1       -0.0547
      6 C           0.8764    0.0732   -0.5086 C.ar    1  UNL1       -0.0401
      7 C          -0.5186    0.5675   -0.4101 C.3     1  UNL1        0.0257
      8 C          -0.6487    1.6211    0.6341 C.3     1  UNL1        0.0078
      9 N           0.1893    2.7591    0.3556 N.3     1  UNL1       -0.3077
     10 C          -0.2038    3.5207   -0.7876 C.3     1  UNL1       -0.0130
     11 C           0.5245    3.5332    1.5125 C.3     1  UNL1       -0.0130
     12 C          -1.5268   -0.5438   -0.2752 C.3     1  UNL1        0.0740
     13 O          -1.3962   -1.3426   -1.4241 O.3     1  UNL1       -0.3879
     14 C          -2.9467    0.0045   -0.3089 C.3     1  UNL1       -0.0234
     15 C          -3.8501   -1.1687   -0.6620 C.3     1  UNL1       -0.0504
     16 C          -3.7609   -2.1266    0.5095 C.3     1  UNL1       -0.0529
     17 C          -2.3603   -2.5730    0.7728 C.3     1  UNL1       -0.0504
     18 C          -1.3803   -1.4014    0.9289 C.3     1  UNL1       -0.0234
     19 C           1.4775   -0.0443   -1.7437 C.ar    1  UNL1       -0.0547
     20 C           2.7674   -0.5066   -1.9016 C.ar    1  UNL1       -0.0197
     21 H           6.6420   -1.7432   -0.1357 H       1  UNL1        0.0660
     22 H           5.4552   -1.0489    0.9996 H       1  UNL1        0.0660
     23 H           5.2227   -2.7264    0.4338 H       1  UNL1        0.0660
     24 H           3.4482   -1.0300    1.3182 H       1  UNL1        0.0654
     25 H           1.1642   -0.2024    1.5832 H       1  UNL1        0.0622
     26 H          -0.7577    1.0348   -1.4135 H       1  UNL1        0.0389
     27 H          -0.3041    1.2111    1.6254 H       1  UNL1        0.0433
     28 H          -1.6808    1.9702    0.7910 H       1  UNL1        0.0433
     29 H           0.5496    3.4388   -1.5994 H       1  UNL1        0.0391
     30 H          -1.1622    3.1240   -1.2176 H       1  UNL1        0.0391
     31 H          -0.3056    4.6094   -0.5743 H       1  UNL1        0.0391
     32 H           0.9685    4.4939    1.2007 H       1  UNL1        0.0391
     33 H          -0.3203    3.7161    2.2034 H       1  UNL1        0.0391
     34 H           1.3433    2.9828    2.0444 H       1  UNL1        0.0391
     35 H          -0.4318   -1.6420   -1.4192 H       1  UNL1        0.2102
     36 H          -3.2199    0.3077    0.7262 H       1  UNL1        0.0293
     37 H          -3.0465    0.8287   -1.0296 H       1  UNL1        0.0293
     38 H          -4.8885   -0.8723   -0.7984 H       1  UNL1        0.0266
     39 H          -3.3851   -1.6597   -1.5521 H       1  UNL1        0.0266
     40 H          -4.3433   -3.0247    0.2252 H       1  UNL1        0.0265
     41 H          -4.2586   -1.6589    1.3621 H       1  UNL1        0.0265
     42 H          -2.3621   -3.0825    1.7777 H       1  UNL1        0.0266
     43 H          -2.0194   -3.3083    0.0391 H       1  UNL1        0.0266
     44 H          -0.3791   -1.8827    0.9504 H       1  UNL1        0.0293
     45 H          -1.6564   -0.9058    1.8686 H       1  UNL1        0.0293
     46 H           0.9185    0.2350   -2.6172 H       1  UNL1        0.0622
     47 H           3.1919   -0.5796   -2.8880 H       1  UNL1        0.0654
@<TRIPOS>BOND
     1     1     2    1
     2     2     3    1
     3     3     4   ar
     4     4     5   ar
     5     5     6   ar
     6     6     7    1
     7     7     8    1
     8     8     9    1
     9     9    10    1
    10     9    11    1
    11     7    12    1
    12    12    13    1
    13    12    14    1
    14    14    15    1
    15    15    16    1
    16    16    17    1
    17    17    18    1
    18     6    19   ar
    19    19    20   ar
    20    20     3   ar
    21    18    12    1
    22     1    21    1
    23     1    22    1
    24     1    23    1
    25     4    24    1
    26     5    25    1
    27     7    26    1
    28     8    27    1
    29     8    28    1
    30    10    29    1
    31    10    30    1
    32    10    31    1
    33    11    32    1
    34    11    33    1
    35    11    34    1
    36    13    35    1
    37    14    36    1
    38    14    37    1
    39    15    38    1
    40    15    39    1
    41    16    40    1
    42    16    41    1
    43    17    42    1
    44    17    43    1
    45    18    44    1
    46    18    45    1
    47    19    46    1
    48    20    47    1
