@<TRIPOS>MOLECULE
*****
 46 49 0 0 0
SMALL
GASTEIGER

@<TRIPOS>ATOM
      1 C           1.6442    0.5317    0.1924 C.3     1  UNL1       -0.0251
      2 C           2.7606    1.0582   -0.6106 C.3     1  UNL1       -0.0424
      3 C           3.9224    1.0441    0.3663 C.3     1  UNL1        0.0067
      4 C           3.3947    0.3920    1.6133 C.2     1  UNL1        0.1395
      5 O           3.8643    0.6687    2.7146 O.2     1  UNL1       -0.2968
      6 C           2.3347   -0.4989    1.0661 C.3     1  UNL1        0.0293
      7 C           2.8834   -1.6469    0.2631 C.3     1  UNL1       -0.0526
      8 C           1.3752   -1.0041    2.0668 C.3     1  UNL1       -0.0404
      9 C           0.1055   -1.4797    1.3912 C.3     1  UNL1       -0.0480
     10 C          -0.5070   -0.3770    0.6025 C.3     1  UNL1       -0.0247
     11 C           0.4707   -0.0040   -0.5274 C.3     1  UNL1       -0.0294
     12 C          -0.0658    1.0035   -1.4723 C.3     1  UNL1       -0.0245
     13 C          -1.4814    1.3877   -1.2608 C.2     1  UNL1       -0.0500
     14 C          -1.8698    2.3797   -2.0451 C.2     1  UNL1       -0.0952
     15 C          -2.3858    0.7748   -0.2950 C.2     1  UNL1       -0.0312
     16 C          -3.4691    1.4020    0.1068 C.2     1  UNL1       -0.0107
     17 C          -4.2555    0.6506    1.0745 C.2     1  UNL1        0.1790
     18 O          -5.3184    1.1952    1.5079 O.2     1  UNL1       -0.2879
     19 C          -3.8164   -0.6499    1.4983 C.2     1  UNL1       -0.0180
     20 C          -2.7211   -1.2629    1.0763 C.2     1  UNL1       -0.0699
     21 C          -1.8772   -0.5862    0.0997 C.3     1  UNL1        0.0147
     22 C          -1.9227   -1.4339   -1.1647 C.3     1  UNL1       -0.0518
     23 H           1.2926    1.3216    0.8873 H       1  UNL1        0.0313
     24 H           2.5079    2.1020   -0.9176 H       1  UNL1        0.0272
     25 H           2.9948    0.5034   -1.5334 H       1  UNL1        0.0272
     26 H           4.7961    0.5014   -0.0433 H       1  UNL1        0.0342
     27 H           4.2304    2.0769    0.5439 H       1  UNL1        0.0342
     28 H           2.8185   -1.4972   -0.8255 H       1  UNL1        0.0239
     29 H           2.3237   -2.5974    0.4743 H       1  UNL1        0.0239
     30 H           3.9177   -1.8421    0.6185 H       1  UNL1        0.0239
     31 H           1.1147   -0.2994    2.8717 H       1  UNL1        0.0275
     32 H           1.8155   -1.8956    2.5697 H       1  UNL1        0.0275
     33 H           0.2732   -2.3558    0.7628 H       1  UNL1        0.0269
     34 H          -0.5754   -1.7754    2.2268 H       1  UNL1        0.0269
     35 H          -0.5307    0.5240    1.2721 H       1  UNL1        0.0315
     36 H           0.7268   -0.9628   -1.0726 H       1  UNL1        0.0310
     37 H           0.1165    0.6507   -2.5114 H       1  UNL1        0.0316
     38 H           0.5120    1.9606   -1.3471 H       1  UNL1        0.0316
     39 H          -2.8420    2.8369   -2.0836 H       1  UNL1        0.0538
     40 H          -2.1045    3.1850   -2.7147 H       1  UNL1        0.0538
     41 H          -3.6822    2.3767   -0.2908 H       1  UNL1        0.0659
     42 H          -4.4074   -1.2149    2.2295 H       1  UNL1        0.0653
     43 H          -2.3758   -2.2382    1.3866 H       1  UNL1        0.0582
     44 H          -1.7145   -0.8305   -2.0499 H       1  UNL1        0.0241
     45 H          -3.0013   -1.7512   -1.2642 H       1  UNL1        0.0241
     46 H          -1.2720   -2.3232   -1.0298 H       1  UNL1        0.0241
@<TRIPOS>BOND
     1     1     2    1
     2     2     3    1
     3     3     4    1
     4     4     5    2
     5     4     6    1
     6     6     7    1
     7     6     8    1
     8     8     9    1
     9     9    10    1
    10    10    11    1
    11    11    12    1
    12    12    13    1
    13    13    14    2
    14    13    15    1
    15    15    16    2
    16    16    17    1
    17    17    18    2
    18    17    19    1
    19    19    20    2
    20    20    21    1
    21    21    22    1
    22     6     1    1
    23    21    10    1
    24    11     1    1
    25    21    15    1
    26     1    23    1
    27     2    24    1
    28     2    25    1
    29     3    26    1
    30     3    27    1
    31     7    28    1
    32     7    29    1
    33     7    30    1
    34     8    31    1
    35     8    32    1
    36     9    33    1
    37     9    34    1
    38    10    35    1
    39    11    36    1
    40    12    37    1
    41    12    38    1
    42    14    39    1
    43    14    40    1
    44    16    41    1
    45    19    42    1
    46    20    43    1
    47    22    44    1
    48    22    45    1
    49    22    46    1
