
     RDKit          3D

 36 37  0  0  0  0  0  0  0  0999 V2000
   -2.9136   -3.5144   -0.6330 C   0  0  0  0  0  0  0  0  0  0  0  0
   -3.2770   -1.7807   -0.4327 S   0  0  0  0  0  0  0  0  0  0  0  0
   -1.7810   -0.8582   -0.1811 C   0  0  0  0  0  0  0  0  0  0  0  0
   -0.5306   -1.4358   -0.1508 N   0  0  0  0  0  0  0  0  0  0  0  0
    0.3404   -0.4587    0.0525 C   0  0  0  0  0  0  0  0  0  0  0  0
    1.7923   -0.5095    0.1696 C   0  0  0  0  0  0  0  0  0  0  0  0
    2.5525   -0.9490   -0.8873 C   0  0  0  0  0  0  0  0  0  0  0  0
    3.9482   -1.0016   -0.7847 C   0  0  0  0  0  0  0  0  0  0  0  0
    4.5705   -0.6064    0.3943 C   0  0  0  0  0  0  0  0  0  0  0  0
    5.9306   -0.6597    0.4887 O   0  0  0  0  0  0  0  0  0  0  0  0
    6.8010    0.3970    0.1424 C   0  0  0  0  0  0  0  0  0  0  0  0
    6.5580    1.5323    0.8930 F   0  0  0  0  0  0  0  0  0  0  0  0
    8.1147    0.0665    0.2602 F   0  0  0  0  0  0  0  0  0  0  0  0
    6.5051    0.7292   -1.1864 F   0  0  0  0  0  0  0  0  0  0  0  0
    3.8034   -0.1674    1.4484 C   0  0  0  0  0  0  0  0  0  0  0  0
    2.4110   -0.1213    1.3291 C   0  0  0  0  0  0  0  0  0  0  0  0
   -0.3532    0.6553    0.1406 N   0  0  0  0  0  0  0  0  0  0  0  0
   -1.6931    0.4499   -0.0008 N   0  0  0  0  0  0  0  0  0  0  0  0
   -2.5587    1.5481    0.0690 C   0  0  0  0  0  0  0  0  0  0  0  0
   -1.9325    2.7210    0.2706 O   0  0  0  0  0  0  0  0  0  0  0  0
   -3.9181    1.7426   -0.0175 N   0  0  0  0  0  0  0  0  0  0  0  0
   -4.4024    3.1538    0.1209 C   0  0  0  0  0  0  0  0  0  0  0  0
   -4.9361    0.7814   -0.2204 C   0  0  0  0  0  0  0  0  0  0  0  0
   -3.2302   -3.9241   -1.6164 H   0  0  0  0  0  0  0  0  0  0  0  0
   -1.8023   -3.6995   -0.5883 H   0  0  0  0  0  0  0  0  0  0  0  0
   -3.3493   -4.1591    0.1433 H   0  0  0  0  0  0  0  0  0  0  0  0
    2.1333   -1.2675   -1.8231 H   0  0  0  0  0  0  0  0  0  0  0  0
    4.5168   -1.3470   -1.6202 H   0  0  0  0  0  0  0  0  0  0  0  0
    4.2975    0.1332    2.3491 H   0  0  0  0  0  0  0  0  0  0  0  0
    1.8643    0.2313    2.1880 H   0  0  0  0  0  0  0  0  0  0  0  0
   -3.6876    3.7291    0.7432 H   0  0  0  0  0  0  0  0  0  0  0  0
   -5.3750    3.1781    0.6109 H   0  0  0  0  0  0  0  0  0  0  0  0
   -4.4727    3.6275   -0.8646 H   0  0  0  0  0  0  0  0  0  0  0  0
   -5.9470    1.3620   -0.1765 H   0  0  0  0  0  0  0  0  0  0  0  0
   -5.0551    0.0920    0.6139 H   0  0  0  0  0  0  0  0  0  0  0  0
   -4.9242    0.3296   -1.2439 H   0  0  0  0  0  0  0  0  0  0  0  0
  1  2  1  0
  2  3  1  0
  3  4  2  0
  4  5  1  0
  5  6  1  0
  6  7  2  0
  7  8  1  0
  8  9  2  0
  9 10  1  0
 10 11  1  0
 11 12  1  0
 11 13  1  0
 11 14  1  0
  9 15  1  0
 15 16  2  0
  5 17  2  0
 17 18  1  0
 18 19  1  0
 19 20  2  0
 19 21  1  0
 21 22  1  0
 21 23  1  0
 18  3  1  0
 16  6  1  0
  1 24  1  0
  1 25  1  0
  1 26  1  0
  7 27  1  0
  8 28  1  0
 15 29  1  0
 16 30  1  0
 22 31  1  0
 22 32  1  0
 22 33  1  0
 23 34  1  0
 23 35  1  0
 23 36  1  0
M  END
$$$$
