@<TRIPOS>MOLECULE
*****
 36 37 0 0 0
SMALL
GASTEIGER

@<TRIPOS>ATOM
      1 C          -2.9136   -3.5144   -0.6330 C.3     1  UNL1       -0.0106
      2 S          -3.2770   -1.7807   -0.4327 S.3     1  UNL1       -0.0892
      3 C          -1.7810   -0.8582   -0.1811 C.ar    1  UNL1        0.1960
      4 N          -0.5306   -1.4358   -0.1508 N.ar    1  UNL1       -0.2003
      5 C           0.3404   -0.4587    0.0525 C.ar    1  UNL1        0.1829
      6 C           1.7923   -0.5095    0.1696 C.ar    1  UNL1        0.0211
      7 C           2.5525   -0.9490   -0.8873 C.ar    1  UNL1       -0.0475
      8 C           3.9482   -1.0016   -0.7847 C.ar    1  UNL1       -0.0190
      9 C           4.5705   -0.6064    0.3943 C.ar    1  UNL1        0.1300
     10 O           5.9306   -0.6597    0.4887 O.3     1  UNL1       -0.4057
     11 C           6.8010    0.3970    0.1424 C.3     1  UNL1        0.5752
     12 F           6.5580    1.5323    0.8930 F       1  UNL1       -0.1328
     13 F           8.1147    0.0665    0.2602 F       1  UNL1       -0.1328
     14 F           6.5051    0.7292   -1.1864 F       1  UNL1       -0.1328
     15 C           3.8034   -0.1674    1.4484 C.ar    1  UNL1       -0.0190
     16 C           2.4110   -0.1213    1.3291 C.ar    1  UNL1       -0.0475
     17 N          -0.3532    0.6553    0.1406 N.ar    1  UNL1       -0.1403
     18 N          -1.6931    0.4499   -0.0008 N.ar    1  UNL1       -0.1574
     19 C          -2.5587    1.5481    0.0690 C.2     1  UNL1        0.3392
     20 O          -1.9325    2.7210    0.2706 O.2     1  UNL1       -0.2474
     21 N          -3.9181    1.7426   -0.0175 N.am    1  UNL1       -0.2880
     22 C          -4.4024    3.1538    0.1209 C.3     1  UNL1        0.0046
     23 C          -4.9361    0.7814   -0.2204 C.3     1  UNL1        0.0046
     24 H          -3.2302   -3.9241   -1.6164 H       1  UNL1        0.0345
     25 H          -1.8023   -3.6995   -0.5883 H       1  UNL1        0.0345
     26 H          -3.3493   -4.1591    0.1433 H       1  UNL1        0.0345
     27 H           2.1333   -1.2675   -1.8231 H       1  UNL1        0.0626
     28 H           4.5168   -1.3470   -1.6202 H       1  UNL1        0.0654
     29 H           4.2975    0.1332    2.3491 H       1  UNL1        0.0654
     30 H           1.8643    0.2313    2.1880 H       1  UNL1        0.0626
     31 H          -3.6876    3.7291    0.7432 H       1  UNL1        0.0429
     32 H          -5.3750    3.1781    0.6109 H       1  UNL1        0.0429
     33 H          -4.4727    3.6275   -0.8646 H       1  UNL1        0.0429
     34 H          -5.9470    1.3620   -0.1765 H       1  UNL1        0.0429
     35 H          -5.0551    0.0920    0.6139 H       1  UNL1        0.0429
     36 H          -4.9242    0.3296   -1.2439 H       1  UNL1        0.0429
@<TRIPOS>BOND
     1     1     2    1
     2     2     3    1
     3     3     4   ar
     4     4     5   ar
     5     5     6    1
     6     6     7   ar
     7     7     8   ar
     8     8     9   ar
     9     9    10    1
    10    10    11    1
    11    11    12    1
    12    11    13    1
    13    11    14    1
    14     9    15   ar
    15    15    16   ar
    16     5    17   ar
    17    17    18   ar
    18    18    19   am
    19    19    20    2
    20    19    21   am
    21    21    22    1
    22    21    23    1
    23    18     3   ar
    24    16     6   ar
    25     1    24    1
    26     1    25    1
    27     1    26    1
    28     7    27    1
    29     8    28    1
    30    15    29    1
    31    16    30    1
    32    22    31    1
    33    22    32    1
    34    22    33    1
    35    23    34    1
    36    23    35    1
    37    23    36    1
