
     RDKit          3D

 53 55  0  0  0  0  0  0  0  0999 V2000
    8.3416    2.6894   -0.1887 C   0  0  0  0  0  0  0  0  0  0  0  0
    7.6516    1.6944    0.6148 N   0  0  0  0  0  0  0  0  0  0  0  0
    6.3544    1.2576    0.2503 C   0  0  0  0  0  0  0  0  0  0  0  0
    5.7766    1.7774   -0.8463 N   0  0  0  0  0  0  0  0  0  0  0  0
    4.5474    1.3494   -1.1732 C   0  0  0  0  0  0  0  0  0  0  0  0
    3.8553    0.3885   -0.4159 C   0  0  0  0  0  0  0  0  0  0  0  0
    2.5423   -0.0010   -0.8537 C   0  0  0  0  0  0  0  0  0  0  0  0
    2.0295    0.5200   -1.9050 O   0  0  0  0  0  0  0  0  0  0  0  0
    1.7547   -0.9437   -0.1893 N   0  0  0  0  0  0  0  0  0  0  0  0
    0.4460   -1.2639   -0.7146 C   0  0  0  0  0  0  0  0  0  0  0  0
   -0.6599   -0.5539   -0.3065 C   0  0  0  0  0  0  0  0  0  0  0  0
   -1.9270   -0.8458   -0.7993 C   0  0  0  0  0  0  0  0  0  0  0  0
   -3.0571   -0.0612   -0.3310 C   0  0  0  0  0  0  0  0  0  0  0  0
   -2.9176    0.8763    0.5099 O   0  0  0  0  0  0  0  0  0  0  0  0
   -4.3855   -0.2881   -0.7790 N   0  0  0  0  0  0  0  0  0  0  0  0
   -5.4755    0.5169   -0.2854 C   0  0  0  0  0  0  0  0  0  0  0  0
   -5.8680    1.6845   -0.9036 C   0  0  0  0  0  0  0  0  0  0  0  0
   -6.9089    2.4598   -0.4381 C   0  0  0  0  0  0  0  0  0  0  0  0
   -7.5882    2.0449    0.7009 C   0  0  0  0  0  0  0  0  0  0  0  0
   -7.2262    0.8824    1.3488 C   0  0  0  0  0  0  0  0  0  0  0  0
   -7.9405    0.4160    2.5739 C   0  0  0  0  0  0  0  0  0  0  0  0
   -7.7796   -0.9317    2.7644 F   0  0  0  0  0  0  0  0  0  0  0  0
   -7.4253    1.1284    3.6401 F   0  0  0  0  0  0  0  0  0  0  0  0
   -9.2623    0.7759    2.4201 F   0  0  0  0  0  0  0  0  0  0  0  0
   -6.1644    0.1274    0.8414 C   0  0  0  0  0  0  0  0  0  0  0  0
   -2.0050   -1.8732   -1.7068 C   0  0  0  0  0  0  0  0  0  0  0  0
   -0.9128   -2.6055   -2.1368 C   0  0  0  0  0  0  0  0  0  0  0  0
    0.3524   -2.2882   -1.6223 C   0  0  0  0  0  0  0  0  0  0  0  0
    1.5494   -3.0522   -2.0601 C   0  0  0  0  0  0  0  0  0  0  0  0
    4.4638   -0.1205    0.6887 C   0  0  0  0  0  0  0  0  0  0  0  0
    3.8818   -1.0657    1.5047 O   0  0  0  0  0  0  0  0  0  0  0  0
    4.5554   -1.5578    2.6342 C   0  0  0  0  0  0  0  0  0  0  0  0
    5.7212    0.3403    0.9930 N   0  0  0  0  0  0  0  0  0  0  0  0
    9.2875    2.2454   -0.5830 H   0  0  0  0  0  0  0  0  0  0  0  0
    8.6307    3.5578    0.4541 H   0  0  0  0  0  0  0  0  0  0  0  0
    7.7497    3.0393   -1.0322 H   0  0  0  0  0  0  0  0  0  0  0  0
    8.1025    1.3007    1.4551 H   0  0  0  0  0  0  0  0  0  0  0  0
    4.0385    1.7346   -2.0440 H   0  0  0  0  0  0  0  0  0  0  0  0
    2.0125   -1.4572    0.6682 H   0  0  0  0  0  0  0  0  0  0  0  0
   -0.5835    0.2521    0.4082 H   0  0  0  0  0  0  0  0  0  0  0  0
   -4.5600   -1.0496   -1.4736 H   0  0  0  0  0  0  0  0  0  0  0  0
   -5.3306    1.9938   -1.7876 H   0  0  0  0  0  0  0  0  0  0  0  0
   -7.2184    3.3826   -0.9275 H   0  0  0  0  0  0  0  0  0  0  0  0
   -8.3894    2.6543    1.0478 H   0  0  0  0  0  0  0  0  0  0  0  0
   -5.9070   -0.7831    1.3782 H   0  0  0  0  0  0  0  0  0  0  0  0
   -2.9677   -2.1377   -2.1183 H   0  0  0  0  0  0  0  0  0  0  0  0
   -1.0001   -3.4108   -2.8530 H   0  0  0  0  0  0  0  0  0  0  0  0
    1.2216   -4.0404   -2.4397 H   0  0  0  0  0  0  0  0  0  0  0  0
    2.0780   -2.4743   -2.8423 H   0  0  0  0  0  0  0  0  0  0  0  0
    2.2338   -3.2375   -1.2001 H   0  0  0  0  0  0  0  0  0  0  0  0
    5.0791   -0.7116    3.1262 H   0  0  0  0  0  0  0  0  0  0  0  0
    3.8492   -2.0297    3.3492 H   0  0  0  0  0  0  0  0  0  0  0  0
    5.3541   -2.3057    2.3632 H   0  0  0  0  0  0  0  0  0  0  0  0
  1  2  1  0
  2  3  1  0
  3  4  2  0
  4  5  1  0
  5  6  2  0
  6  7  1  0
  7  8  2  0
  7  9  1  0
  9 10  1  0
 10 11  2  0
 11 12  1  0
 12 13  1  0
 13 14  2  0
 13 15  1  0
 15 16  1  0
 16 17  2  0
 17 18  1  0
 18 19  2  0
 19 20  1  0
 20 21  1  0
 21 22  1  0
 21 23  1  0
 21 24  1  0
 20 25  2  0
 12 26  2  0
 26 27  1  0
 27 28  2  0
 28 29  1  0
  6 30  1  0
 30 31  1  0
 31 32  1  0
 30 33  2  0
 33  3  1  0
 28 10  1  0
 25 16  1  0
  1 34  1  0
  1 35  1  0
  1 36  1  0
  2 37  1  0
  5 38  1  0
  9 39  1  0
 11 40  1  0
 15 41  1  0
 17 42  1  0
 18 43  1  0
 19 44  1  0
 25 45  1  0
 26 46  1  0
 27 47  1  0
 29 48  1  0
 29 49  1  0
 29 50  1  0
 32 51  1  0
 32 52  1  0
 32 53  1  0
M  END
$$$$
