@<TRIPOS>MOLECULE
*****
 53 55 0 0 0
SMALL
GASTEIGER

@<TRIPOS>ATOM
      1 C           8.3416    2.6894   -0.1887 C.3     1  UNL1        0.0003
      2 N           7.6516    1.6944    0.6148 N.pl3   1  UNL1       -0.3165
      3 C           6.3544    1.2576    0.2503 C.ar    1  UNL1        0.2180
      4 N           5.7766    1.7774   -0.8463 N.ar    1  UNL1       -0.2220
      5 C           4.5474    1.3494   -1.1732 C.ar    1  UNL1        0.0485
      6 C           3.8553    0.3885   -0.4159 C.ar    1  UNL1        0.1165
      7 C           2.5423   -0.0010   -0.8537 C.2     1  UNL1        0.2549
      8 O           2.0295    0.5200   -1.9050 O.2     1  UNL1       -0.2696
      9 N           1.7547   -0.9437   -0.1893 N.am    1  UNL1       -0.2811
     10 C           0.4460   -1.2639   -0.7146 C.ar    1  UNL1        0.0373
     11 C          -0.6599   -0.5539   -0.3065 C.ar    1  UNL1       -0.0281
     12 C          -1.9270   -0.8458   -0.7993 C.ar    1  UNL1        0.0388
     13 C          -3.0571   -0.0612   -0.3310 C.2     1  UNL1        0.2483
     14 O          -2.9176    0.8763    0.5099 O.2     1  UNL1       -0.2699
     15 N          -4.3855   -0.2881   -0.7790 N.am    1  UNL1       -0.2815
     16 C          -5.4755    0.5169   -0.2854 C.ar    1  UNL1        0.0342
     17 C          -5.8680    1.6845   -0.9036 C.ar    1  UNL1       -0.0404
     18 C          -6.9089    2.4598   -0.4381 C.ar    1  UNL1       -0.0595
     19 C          -7.5882    2.0449    0.7009 C.ar    1  UNL1       -0.0500
     20 C          -7.2262    0.8824    1.3488 C.ar    1  UNL1        0.0566
     21 C          -7.9405    0.4160    2.5739 C.3     1  UNL1        0.4175
     22 F          -7.7796   -0.9317    2.7644 F       1  UNL1       -0.1659
     23 F          -7.4253    1.1284    3.6401 F       1  UNL1       -0.1659
     24 F          -9.2623    0.7759    2.4201 F       1  UNL1       -0.1659
     25 C          -6.1644    0.1274    0.8414 C.ar    1  UNL1       -0.0288
     26 C          -2.0050   -1.8732   -1.7068 C.ar    1  UNL1       -0.0493
     27 C          -0.9128   -2.6055   -2.1368 C.ar    1  UNL1       -0.0564
     28 C           0.3524   -2.2882   -1.6223 C.ar    1  UNL1       -0.0292
     29 C           1.5494   -3.0522   -2.0601 C.3     1  UNL1       -0.0380
     30 C           4.4638   -0.1205    0.6887 C.ar    1  UNL1        0.2313
     31 O           3.8818   -1.0657    1.5047 O.3     1  UNL1       -0.4790
     32 C           4.5554   -1.5578    2.6342 C.3     1  UNL1        0.0804
     33 N           5.7212    0.3403    0.9930 N.ar    1  UNL1       -0.1788
     34 H           9.2875    2.2454   -0.5830 H       1  UNL1        0.0426
     35 H           8.6307    3.5578    0.4541 H       1  UNL1        0.0426
     36 H           7.7497    3.0393   -1.0322 H       1  UNL1        0.0426
     37 H           8.1025    1.3007    1.4551 H       1  UNL1        0.1486
     38 H           4.0385    1.7346   -2.0440 H       1  UNL1        0.0840
     39 H           2.0125   -1.4572    0.6682 H       1  UNL1        0.1551
     40 H          -0.5835    0.2521    0.4082 H       1  UNL1        0.0644
     41 H          -4.5600   -1.0496   -1.4736 H       1  UNL1        0.1551
     42 H          -5.3306    1.9938   -1.7876 H       1  UNL1        0.0636
     43 H          -7.2184    3.3826   -0.9275 H       1  UNL1        0.0618
     44 H          -8.3894    2.6543    1.0478 H       1  UNL1        0.0623
     45 H          -5.9070   -0.7831    1.3782 H       1  UNL1        0.0642
     46 H          -2.9677   -2.1377   -2.1183 H       1  UNL1        0.0625
     47 H          -1.0001   -3.4108   -2.8530 H       1  UNL1        0.0621
     48 H           1.2216   -4.0404   -2.4397 H       1  UNL1        0.0278
     49 H           2.0780   -2.4743   -2.8423 H       1  UNL1        0.0278
     50 H           2.2338   -3.2375   -1.2001 H       1  UNL1        0.0278
     51 H           5.0791   -0.7116    3.1262 H       1  UNL1        0.0660
     52 H           3.8492   -2.0297    3.3492 H       1  UNL1        0.0660
     53 H           5.3541   -2.3057    2.3632 H       1  UNL1        0.0660
@<TRIPOS>BOND
     1     1     2    1
     2     2     3    1
     3     3     4   ar
     4     4     5   ar
     5     5     6   ar
     6     6     7    1
     7     7     8    2
     8     7     9   am
     9     9    10    1
    10    10    11   ar
    11    11    12   ar
    12    12    13    1
    13    13    14    2
    14    13    15   am
    15    15    16    1
    16    16    17   ar
    17    17    18   ar
    18    18    19   ar
    19    19    20   ar
    20    20    21    1
    21    21    22    1
    22    21    23    1
    23    21    24    1
    24    20    25   ar
    25    12    26   ar
    26    26    27   ar
    27    27    28   ar
    28    28    29    1
    29     6    30   ar
    30    30    31    1
    31    31    32    1
    32    30    33   ar
    33    33     3   ar
    34    28    10   ar
    35    25    16   ar
    36     1    34    1
    37     1    35    1
    38     1    36    1
    39     2    37    1
    40     5    38    1
    41     9    39    1
    42    11    40    1
    43    15    41    1
    44    17    42    1
    45    18    43    1
    46    19    44    1
    47    25    45    1
    48    26    46    1
    49    27    47    1
    50    29    48    1
    51    29    49    1
    52    29    50    1
    53    32    51    1
    54    32    52    1
    55    32    53    1
