@<TRIPOS>MOLECULE
*****
 31 33 0 0 0
SMALL
GASTEIGER

@<TRIPOS>ATOM
      1 O          -2.1132   -2.7762    0.1224 O.2     1  UNL1       -0.2830
      2 C          -1.5306   -1.6723    0.0574 C.ar    1  UNL1        0.2379
      3 C          -0.1284   -1.5528    0.0143 C.ar    1  UNL1        0.2082
      4 O           0.5395   -2.7561    0.0501 O.3     1  UNL1       -0.5007
      5 C           0.5047   -0.3439   -0.0567 C.ar    1  UNL1        0.1806
      6 C           1.9386   -0.1798   -0.1027 C.ar    1  UNL1        0.0213
      7 C           2.8589   -1.1743   -0.0831 C.ar    1  UNL1       -0.0475
      8 C           4.2348   -0.9321   -0.1309 C.ar    1  UNL1       -0.0195
      9 C           4.6782    0.3678   -0.2009 C.ar    1  UNL1        0.1169
     10 O           6.0401    0.5875   -0.2474 O.3     1  UNL1       -0.5068
     11 C           3.7695    1.4010   -0.2226 C.ar    1  UNL1       -0.0195
     12 C           2.4427    1.1264   -0.1746 C.ar    1  UNL1       -0.0475
     13 O          -0.2865    0.7317   -0.0835 O.2     1  UNL1       -0.4507
     14 C          -1.5906    0.6726   -0.0457 C.ar    1  UNL1        0.1465
     15 C          -2.3750    1.8194   -0.0758 C.ar    1  UNL1        0.0231
     16 C          -3.7521    1.7878   -0.0373 C.ar    1  UNL1        0.1239
     17 O          -4.5018    2.9832   -0.0705 O.3     1  UNL1       -0.5065
     18 C          -4.3876    0.5679    0.0343 C.ar    1  UNL1        0.0223
     19 C          -3.6479   -0.6083    0.0669 C.ar    1  UNL1        0.1348
     20 O          -4.3116   -1.8400    0.1398 O.3     1  UNL1       -0.5058
     21 C          -2.2762   -0.5224    0.0261 C.ar    1  UNL1        0.1092
     22 H           0.6097   -3.2235    0.9472 H       1  UNL1        0.2924
     23 H           2.5638   -2.1890   -0.0298 H       1  UNL1        0.0626
     24 H           4.9284   -1.7615   -0.1126 H       1  UNL1        0.0654
     25 H           6.6171   -0.0542   -0.7561 H       1  UNL1        0.2921
     26 H           4.1784    2.3990   -0.2782 H       1  UNL1        0.0654
     27 H           1.7547    1.9798   -0.1942 H       1  UNL1        0.0626
     28 H          -1.8687    2.7739   -0.1321 H       1  UNL1        0.0691
     29 H          -4.1503    3.7391    0.4968 H       1  UNL1        0.2921
     30 H          -5.4617    0.5080    0.0659 H       1  UNL1        0.0691
     31 H          -5.2768   -1.8587    0.3823 H       1  UNL1        0.2922
@<TRIPOS>BOND
     1     1     2    2
     2     2     3   ar
     3     3     4    1
     4     3     5   ar
     5     5     6    1
     6     6     7   ar
     7     7     8   ar
     8     8     9   ar
     9     9    10    1
    10     9    11   ar
    11    11    12   ar
    12     5    13   ar
    13    13    14   ar
    14    14    15   ar
    15    15    16   ar
    16    16    17    1
    17    16    18   ar
    18    18    19   ar
    19    19    20    1
    20    19    21   ar
    21    21     2   ar
    22    12     6   ar
    23    21    14   ar
    24     4    22    1
    25     7    23    1
    26     8    24    1
    27    10    25    1
    28    11    26    1
    29    12    27    1
    30    15    28    1
    31    17    29    1
    32    18    30    1
    33    20    31    1
