@<TRIPOS>MOLECULE
*****
 50 54 0 0 0
SMALL
GASTEIGER

@<TRIPOS>ATOM
      1 C          -3.6382    0.2842   -1.9703 C.3     1  UNL1       -0.0275
      2 C          -2.5725   -0.3083   -1.0942 C.3     1  UNL1        0.1021
      3 O          -1.8953    0.7069   -0.4261 O.3     1  UNL1       -0.4880
      4 C          -0.5351    0.8777   -0.3184 C.ar    1  UNL1        0.1322
      5 C           0.4242    0.0811   -0.8563 C.ar    1  UNL1       -0.0100
      6 C           1.7840    0.3186   -0.6960 C.ar    1  UNL1        0.0059
      7 C           2.7621   -0.6026   -1.3132 C.ar    1  UNL1        0.0734
      8 C           2.8426   -1.0819   -2.5883 C.ar    1  UNL1        0.0543
      9 N           3.8738   -1.9318   -2.7309 N.ar    1  UNL1       -0.2355
     10 C           4.4584   -1.9849   -1.4975 C.ar    1  UNL1        0.1381
     11 C           5.5438   -2.6862   -1.0514 C.ar    1  UNL1       -0.0176
     12 C           6.0026   -2.6107    0.2744 C.ar    1  UNL1       -0.0395
     13 C           5.2846   -1.7840    1.0929 C.ar    1  UNL1        0.0684
     14 C           5.6958   -1.6490    2.4671 C.1     1  UNL1        0.1006
     15 N           6.0187   -1.5539    3.5945 N.1     1  UNL1       -0.1908
     16 C           4.1855   -1.0696    0.6554 C.ar    1  UNL1        0.0291
     17 N           3.7888   -1.1865   -0.6519 N.ar    1  UNL1       -0.2981
     18 C           2.1640    1.4176    0.0427 C.ar    1  UNL1       -0.0246
     19 C           1.2208    2.2490    0.6024 C.ar    1  UNL1        0.0968
     20 N           1.2755    3.3747    1.3589 N.ar    1  UNL1       -0.1713
     21 N           0.0662    3.7905    1.6397 N.ar    1  UNL1       -0.2732
     22 C          -0.3446    4.9616    2.4204 C.3     1  UNL1        0.0302
     23 C          -0.8401    2.9671    1.0885 C.ar    1  UNL1        0.0364
     24 C          -0.1267    1.9879    0.4289 C.ar    1  UNL1        0.0614
     25 C          -3.1769   -1.1942   -0.0078 C.3     1  UNL1        0.0195
     26 C          -4.1017   -0.3504    0.8458 C.3     1  UNL1        0.0182
     27 N          -5.4278   -0.8237    0.4980 N.am    1  UNL1       -0.3149
     28 C          -5.3808   -2.0091   -0.2632 C.2     1  UNL1        0.2135
     29 O          -6.3715   -2.6781   -0.6597 O.2     1  UNL1       -0.2758
     30 C          -3.9483   -2.3516   -0.5298 C.3     1  UNL1        0.0315
     31 H          -3.2430    0.3122   -3.0193 H       1  UNL1        0.0265
     32 H          -3.9054    1.3022   -1.6864 H       1  UNL1        0.0265
     33 H          -4.5144   -0.4124   -2.0104 H       1  UNL1        0.0265
     34 H          -1.9087   -0.9709   -1.6858 H       1  UNL1        0.0733
     35 H           0.0913   -0.7855   -1.4451 H       1  UNL1        0.0661
     36 H           2.1745   -0.8259   -3.4045 H       1  UNL1        0.0852
     37 H           6.0846   -3.3372   -1.7166 H       1  UNL1        0.0654
     38 H           6.8656   -3.1858    0.5759 H       1  UNL1        0.0632
     39 H           3.6397   -0.4322    1.3045 H       1  UNL1        0.0826
     40 H           3.2315    1.6406    0.1898 H       1  UNL1        0.0646
     41 H          -0.6765    5.7096    1.6596 H       1  UNL1        0.0473
     42 H          -1.2676    4.7240    2.9929 H       1  UNL1        0.0473
     43 H           0.4239    5.3253    3.1037 H       1  UNL1        0.0473
     44 H          -1.9353    3.0651    1.1571 H       1  UNL1        0.0833
     45 H          -2.3503   -1.5138    0.6545 H       1  UNL1        0.0356
     46 H          -3.9208   -0.4612    1.9162 H       1  UNL1        0.0466
     47 H          -3.9811    0.7457    0.6241 H       1  UNL1        0.0466
     48 H          -6.2934   -0.2900    0.8160 H       1  UNL1        0.1487
     49 H          -3.8366   -2.5095   -1.6226 H       1  UNL1        0.0363
     50 H          -3.7099   -3.2608    0.0690 H       1  UNL1        0.0363
@<TRIPOS>BOND
     1     1     2    1
     2     2     3    1
     3     3     4    1
     4     4     5   ar
     5     5     6   ar
     6     6     7    1
     7     7     8   ar
     8     8     9   ar
     9     9    10   ar
    10    10    11   ar
    11    11    12   ar
    12    12    13   ar
    13    13    14    1
    14    14    15    3
    15    13    16   ar
    16    16    17   ar
    17     6    18   ar
    18    18    19   ar
    19    19    20   ar
    20    20    21   ar
    21    21    22    1
    22    21    23   ar
    23    23    24   ar
    24     2    25    1
    25    25    26    1
    26    26    27    1
    27    27    28   am
    28    28    29    2
    29    28    30    1
    30    24     4   ar
    31    30    25    1
    32    17     7   ar
    33    24    19   ar
    34    17    10   ar
    35     1    31    1
    36     1    32    1
    37     1    33    1
    38     2    34    1
    39     5    35    1
    40     8    36    1
    41    11    37    1
    42    12    38    1
    43    16    39    1
    44    18    40    1
    45    22    41    1
    46    22    42    1
    47    22    43    1
    48    23    44    1
    49    25    45    1
    50    26    46    1
    51    26    47    1
    52    27    48    1
    53    30    49    1
    54    30    50    1
