
     RDKit          3D

 58 62  0  0  0  0  0  0  0  0999 V2000
   -7.6906   -1.6461   -0.7748 C   0  0  0  0  0  0  0  0  0  0  0  0
   -7.0278   -0.4121   -1.1673 C   0  0  0  0  0  0  0  0  0  0  0  0
   -7.2297   -0.0066   -2.3949 O   0  0  0  0  0  0  0  0  0  0  0  0
   -6.2096    0.3597   -0.3741 N   0  0  0  0  0  0  0  0  0  0  0  0
   -5.9890   -0.0418    1.0286 C   0  0  0  0  0  0  0  0  0  0  0  0
   -4.5562    0.0880    1.4405 C   0  0  0  0  0  0  0  0  0  0  0  0
   -3.7534    0.1597    0.1199 C   0  0  0  0  0  0  0  0  0  0  0  0
   -2.3979   -0.2417    0.3574 N   0  0  0  0  0  0  0  0  0  0  0  0
   -2.0609   -1.5571    0.3031 N   0  0  0  0  0  0  0  0  0  0  0  0
   -0.7504   -1.6443    0.5875 C   0  0  0  0  0  0  0  0  0  0  0  0
   -0.0113   -2.9542    0.6545 C   0  0  0  0  0  0  0  0  0  0  0  0
   -0.2519   -0.4036    0.8282 C   0  0  0  0  0  0  0  0  0  0  0  0
    1.1038   -0.1490    1.1589 N   0  0  0  0  0  0  0  0  0  0  0  0
    2.0457    0.3562    0.2381 C   0  0  0  0  0  0  0  0  0  0  0  0
    1.6698    0.8033   -0.9780 N   0  0  0  0  0  0  0  0  0  0  0  0
    2.5243    1.3390   -1.8741 C   0  0  0  0  0  0  0  0  0  0  0  0
    3.8628    1.4250   -1.4994 C   0  0  0  0  0  0  0  0  0  0  0  0
    5.0458    2.0978   -2.5865 Cl  0  0  0  0  0  0  0  0  0  0  0  0
    4.2704    0.9646   -0.2475 C   0  0  0  0  0  0  0  0  0  0  0  0
    5.6719    1.0122    0.0718 C   0  0  0  0  0  0  0  0  0  0  0  0
    6.3580    2.1483    0.5122 C   0  0  0  0  0  0  0  0  0  0  0  0
    7.5942    1.7885    0.7940 N   0  0  0  0  0  0  0  0  0  0  0  0
    7.7948    0.5059    0.5767 N   0  0  0  0  0  0  0  0  0  0  0  0
    8.8463   -0.3225    0.6663 C   0  0  0  0  0  0  0  0  0  0  0  0
    8.7657   -1.6582    0.3162 C   0  0  0  0  0  0  0  0  0  0  0  0
    7.5859   -2.1762   -0.1386 C   0  0  0  0  0  0  0  0  0  0  0  0
    6.4829   -1.3275   -0.2357 C   0  0  0  0  0  0  0  0  0  0  0  0
    6.6275   -0.0063    0.1288 C   0  0  0  0  0  0  0  0  0  0  0  0
    3.3560    0.4544    0.5614 N   0  0  0  0  0  0  0  0  0  0  0  0
   -1.3261    0.4623    0.6739 C   0  0  0  0  0  0  0  0  0  0  0  0
   -1.2649    1.9359    0.8435 C   0  0  0  0  0  0  0  0  0  0  0  0
   -3.9962    1.4753   -0.4997 C   0  0  0  0  0  0  0  0  0  0  0  0
   -5.5075    1.5758   -0.7604 C   0  0  0  0  0  0  0  0  0  0  0  0
   -6.9781   -2.4660   -0.4858 H   0  0  0  0  0  0  0  0  0  0  0  0
   -8.2599   -1.4627    0.1782 H   0  0  0  0  0  0  0  0  0  0  0  0
   -8.3915   -2.0256   -1.5472 H   0  0  0  0  0  0  0  0  0  0  0  0
   -6.6700    0.6007    1.6064 H   0  0  0  0  0  0  0  0  0  0  0  0
   -6.3621   -1.0826    1.1609 H   0  0  0  0  0  0  0  0  0  0  0  0
   -4.3271    0.9536    2.0782 H   0  0  0  0  0  0  0  0  0  0  0  0
   -4.2333   -0.8800    1.9234 H   0  0  0  0  0  0  0  0  0  0  0  0
   -4.2696   -0.6196   -0.5249 H   0  0  0  0  0  0  0  0  0  0  0  0
   -0.1063   -3.4550   -0.3062 H   0  0  0  0  0  0  0  0  0  0  0  0
    1.0547   -2.7661    0.9025 H   0  0  0  0  0  0  0  0  0  0  0  0
   -0.4840   -3.5819    1.4538 H   0  0  0  0  0  0  0  0  0  0  0  0
    1.4303   -0.3498    2.1499 H   0  0  0  0  0  0  0  0  0  0  0  0
    2.1589    1.6665   -2.8291 H   0  0  0  0  0  0  0  0  0  0  0  0
    5.9135    3.1266    0.5957 H   0  0  0  0  0  0  0  0  0  0  0  0
    9.8091    0.0641    1.0310 H   0  0  0  0  0  0  0  0  0  0  0  0
    9.6265   -2.2973    0.3976 H   0  0  0  0  0  0  0  0  0  0  0  0
    7.4401   -3.2095   -0.4386 H   0  0  0  0  0  0  0  0  0  0  0  0
    5.5284   -1.7048   -0.5985 H   0  0  0  0  0  0  0  0  0  0  0  0
   -1.3819    2.4888   -0.1088 H   0  0  0  0  0  0  0  0  0  0  0  0
   -0.2302    2.2072    1.2094 H   0  0  0  0  0  0  0  0  0  0  0  0
   -1.9301    2.2919    1.6615 H   0  0  0  0  0  0  0  0  0  0  0  0
   -3.7572    2.3367    0.1199 H   0  0  0  0  0  0  0  0  0  0  0  0
   -3.4966    1.5105   -1.4992 H   0  0  0  0  0  0  0  0  0  0  0  0
   -5.7029    1.8496   -1.8075 H   0  0  0  0  0  0  0  0  0  0  0  0
   -5.9628    2.4003   -0.1550 H   0  0  0  0  0  0  0  0  0  0  0  0
  1  2  1  0
  2  3  2  0
  2  4  1  0
  4  5  1  0
  5  6  1  0
  6  7  1  0
  7  8  1  0
  8  9  1  0
  9 10  2  0
 10 11  1  0
 10 12  1  0
 12 13  1  0
 13 14  1  0
 14 15  2  0
 15 16  1  0
 16 17  2  0
 17 18  1  0
 17 19  1  0
 19 20  1  0
 20 21  1  0
 21 22  2  0
 22 23  1  0
 23 24  1  0
 24 25  2  0
 25 26  1  0
 26 27  2  0
 27 28  1  0
 19 29  2  0
 12 30  2  0
 30 31  1  0
  7 32  1  0
 32 33  1  0
 33  4  1  0
 30  8  1  0
 29 14  1  0
 28 20  2  0
 28 23  1  0
  1 34  1  0
  1 35  1  0
  1 36  1  0
  5 37  1  0
  5 38  1  0
  6 39  1  0
  6 40  1  0
  7 41  1  0
 11 42  1  0
 11 43  1  0
 11 44  1  0
 13 45  1  0
 16 46  1  0
 21 47  1  0
 24 48  1  0
 25 49  1  0
 26 50  1  0
 27 51  1  0
 31 52  1  0
 31 53  1  0
 31 54  1  0
 32 55  1  0
 32 56  1  0
 33 57  1  0
 33 58  1  0
M  END
$$$$
