@<TRIPOS>MOLECULE
*****
 58 62 0 0 0
SMALL
GASTEIGER

@<TRIPOS>ATOM
      1 C          -7.6906   -1.6461   -0.7748 C.3     1  UNL1        0.0124
      2 C          -7.0278   -0.4121   -1.1673 C.2     1  UNL1        0.2125
      3 O          -7.2297   -0.0066   -2.3949 O.2     1  UNL1       -0.2759
      4 N          -6.2096    0.3597   -0.3741 N.am    1  UNL1       -0.3016
      5 C          -5.9890   -0.0418    1.0286 C.3     1  UNL1        0.0166
      6 C          -4.5562    0.0880    1.4405 C.3     1  UNL1       -0.0146
      7 C          -3.7534    0.1597    0.1199 C.3     1  UNL1        0.0559
      8 N          -2.3979   -0.2417    0.3574 N.ar    1  UNL1       -0.2634
      9 N          -2.0609   -1.5571    0.3031 N.ar    1  UNL1       -0.1741
     10 C          -0.7504   -1.6443    0.5875 C.ar    1  UNL1        0.0814
     11 C          -0.0113   -2.9542    0.6545 C.3     1  UNL1       -0.0188
     12 C          -0.2519   -0.4036    0.8282 C.ar    1  UNL1        0.0774
     13 N           1.1038   -0.1490    1.1589 N.pl3   1  UNL1       -0.2807
     14 C           2.0457    0.3562    0.2381 C.ar    1  UNL1        0.2202
     15 N           1.6698    0.8033   -0.9780 N.ar    1  UNL1       -0.2212
     16 C           2.5243    1.3390   -1.8741 C.ar    1  UNL1        0.0516
     17 C           3.8628    1.4250   -1.4994 C.ar    1  UNL1        0.0852
     18 CL          5.0458    2.0978   -2.5865 Cl      1  UNL1       -0.0797
     19 C           4.2704    0.9646   -0.2475 C.ar    1  UNL1        0.0979
     20 C           5.6719    1.0122    0.0718 C.ar    1  UNL1        0.0470
     21 C           6.3580    2.1483    0.5122 C.ar    1  UNL1        0.0596
     22 N           7.5942    1.7885    0.7940 N.ar    1  UNL1       -0.1741
     23 N           7.7948    0.5059    0.5767 N.ar    1  UNL1       -0.2392
     24 C           8.8463   -0.3225    0.6663 C.ar    1  UNL1        0.0298
     25 C           8.7657   -1.6582    0.3162 C.ar    1  UNL1       -0.0435
     26 C           7.5859   -2.1762   -0.1386 C.ar    1  UNL1       -0.0583
     27 C           6.4829   -1.3275   -0.2357 C.ar    1  UNL1       -0.0355
     28 C           6.6275   -0.0063    0.1288 C.ar    1  UNL1        0.0760
     29 N           3.3560    0.4544    0.5614 N.ar    1  UNL1       -0.2126
     30 C          -1.3261    0.4623    0.6739 C.ar    1  UNL1        0.0579
     31 C          -1.2649    1.9359    0.8435 C.3     1  UNL1       -0.0208
     32 C          -3.9962    1.4753   -0.4997 C.3     1  UNL1       -0.0146
     33 C          -5.5075    1.5758   -0.7604 C.3     1  UNL1        0.0166
     34 H          -6.9781   -2.4660   -0.4858 H       1  UNL1        0.0323
     35 H          -8.2599   -1.4627    0.1782 H       1  UNL1        0.0323
     36 H          -8.3915   -2.0256   -1.5472 H       1  UNL1        0.0323
     37 H          -6.6700    0.6007    1.6064 H       1  UNL1        0.0465
     38 H          -6.3621   -1.0826    1.1609 H       1  UNL1        0.0465
     39 H          -4.3271    0.9536    2.0782 H       1  UNL1        0.0301
     40 H          -4.2333   -0.8800    1.9234 H       1  UNL1        0.0301
     41 H          -4.2696   -0.6196   -0.5249 H       1  UNL1        0.0546
     42 H          -0.1063   -3.4550   -0.3062 H       1  UNL1        0.0294
     43 H           1.0547   -2.7661    0.9025 H       1  UNL1        0.0294
     44 H          -0.4840   -3.5819    1.4538 H       1  UNL1        0.0294
     45 H           1.4303   -0.3498    2.1499 H       1  UNL1        0.1551
     46 H           2.1589    1.6665   -2.8291 H       1  UNL1        0.0846
     47 H           5.9135    3.1266    0.5957 H       1  UNL1        0.0855
     48 H           9.8091    0.0641    1.0310 H       1  UNL1        0.0830
     49 H           9.6265   -2.2973    0.3976 H       1  UNL1        0.0633
     50 H           7.4401   -3.2095   -0.4386 H       1  UNL1        0.0619
     51 H           5.5284   -1.7048   -0.5985 H       1  UNL1        0.0639
     52 H          -1.3819    2.4888   -0.1088 H       1  UNL1        0.0293
     53 H          -0.2302    2.2072    1.2094 H       1  UNL1        0.0293
     54 H          -1.9301    2.2919    1.6615 H       1  UNL1        0.0293
     55 H          -3.7572    2.3367    0.1199 H       1  UNL1        0.0301
     56 H          -3.4966    1.5105   -1.4992 H       1  UNL1        0.0301
     57 H          -5.7029    1.8496   -1.8075 H       1  UNL1        0.0465
     58 H          -5.9628    2.4003   -0.1550 H       1  UNL1        0.0465
@<TRIPOS>BOND
     1     1     2    1
     2     2     3    2
     3     2     4   am
     4     4     5    1
     5     5     6    1
     6     6     7    1
     7     7     8    1
     8     8     9   ar
     9     9    10   ar
    10    10    11    1
    11    10    12   ar
    12    12    13    1
    13    13    14    1
    14    14    15   ar
    15    15    16   ar
    16    16    17   ar
    17    17    18    1
    18    17    19   ar
    19    19    20    1
    20    20    21   ar
    21    21    22   ar
    22    22    23   ar
    23    23    24   ar
    24    24    25   ar
    25    25    26   ar
    26    26    27   ar
    27    27    28   ar
    28    19    29   ar
    29    12    30   ar
    30    30    31    1
    31     7    32    1
    32    32    33    1
    33    33     4    1
    34    30     8   ar
    35    29    14   ar
    36    28    20   ar
    37    28    23   ar
    38     1    34    1
    39     1    35    1
    40     1    36    1
    41     5    37    1
    42     5    38    1
    43     6    39    1
    44     6    40    1
    45     7    41    1
    46    11    42    1
    47    11    43    1
    48    11    44    1
    49    13    45    1
    50    16    46    1
    51    21    47    1
    52    24    48    1
    53    25    49    1
    54    26    50    1
    55    27    51    1
    56    31    52    1
    57    31    53    1
    58    31    54    1
    59    32    55    1
    60    32    56    1
    61    33    57    1
    62    33    58    1
