@<TRIPOS>MOLECULE
*****
 53 58 0 0 0
SMALL
GASTEIGER

@<TRIPOS>ATOM
      1 F          -4.4200   -1.0446   -1.7857 F       1  UNL1       -0.2035
      2 C          -3.5508   -0.5719   -0.8341 C.ar    1  UNL1        0.1449
      3 C          -2.1960   -0.7068   -1.0224 C.ar    1  UNL1       -0.0168
      4 C          -1.3184   -0.2376   -0.0772 C.ar    1  UNL1       -0.0122
      5 C           0.1187   -0.3773   -0.2687 C.ar    1  UNL1        0.0185
      6 C           0.9659   -0.5274    0.7840 C.ar    1  UNL1        0.0391
      7 N           2.2967   -0.6547    0.5537 N.ar    1  UNL1       -0.2350
      8 C           2.8112   -0.6376   -0.6862 C.ar    1  UNL1        0.1632
      9 C           4.1006   -0.7477   -1.1462 C.ar    1  UNL1        0.0467
     10 C           5.3334   -0.9222   -0.3999 C.ar    1  UNL1       -0.0022
     11 C           5.8195   -2.1768   -0.0984 C.ar    1  UNL1       -0.0351
     12 C           6.9886   -2.3232    0.6091 C.ar    1  UNL1        0.0288
     13 N           7.6912   -1.2575    1.0272 N.ar    1  UNL1       -0.2549
     14 C           7.2521   -0.0243    0.7544 C.ar    1  UNL1        0.0715
     15 C           7.9446    1.0873    1.1657 C.ar    1  UNL1       -0.0357
     16 C           7.4765    2.3656    0.8747 C.ar    1  UNL1       -0.0597
     17 C           6.3094    2.5640    0.1680 C.ar    1  UNL1       -0.0611
     18 C           5.6236    1.4188   -0.2392 C.ar    1  UNL1       -0.0520
     19 C           6.0851    0.1558    0.0479 C.ar    1  UNL1        0.0082
     20 C           4.0210   -0.6605   -2.5159 C.ar    1  UNL1        0.0597
     21 N           2.7025   -0.5023   -2.8399 N.ar    1  UNL1       -0.1727
     22 N           1.9656   -0.4875   -1.7415 N.ar    1  UNL1       -0.2206
     23 C           0.6347   -0.3578   -1.5520 C.ar    1  UNL1        0.0406
     24 C          -1.8293    0.3624    1.0464 C.ar    1  UNL1       -0.0520
     25 C          -3.2014    0.4896    1.2187 C.ar    1  UNL1       -0.0373
     26 C          -4.0956    0.0243    0.2805 C.ar    1  UNL1        0.0655
     27 N          -5.5026    0.1258    0.4048 N.pl3   1  UNL1       -0.3253
     28 C          -6.3789   -1.0174    0.4321 C.3     1  UNL1        0.0248
     29 C          -7.5239   -0.8938   -0.5221 C.3     1  UNL1        0.0117
     30 N          -7.9546    0.4514   -0.7404 N.3     1  UNL1       -0.3130
     31 C          -7.5891    1.3673    0.3092 C.3     1  UNL1        0.0117
     32 C          -6.0898    1.4424    0.5090 C.3     1  UNL1        0.0248
     33 H          -1.8343   -1.1927   -1.9350 H       1  UNL1        0.0653
     34 H           0.5505   -0.5407    1.7811 H       1  UNL1        0.0837
     35 H           5.2704   -3.0429   -0.4250 H       1  UNL1        0.0639
     36 H           7.3615   -3.3277    0.8404 H       1  UNL1        0.0830
     37 H           8.8677    1.0086    1.7242 H       1  UNL1        0.0639
     38 H           8.0201    3.2201    1.1979 H       1  UNL1        0.0618
     39 H           5.9212    3.5553   -0.0729 H       1  UNL1        0.0618
     40 H           4.7026    1.5090   -0.7962 H       1  UNL1        0.0624
     41 H           4.8676   -0.7116   -3.1856 H       1  UNL1        0.0855
     42 H          -0.0194   -0.2390   -2.4134 H       1  UNL1        0.0837
     43 H          -1.2044    0.7575    1.8359 H       1  UNL1        0.0624
     44 H          -3.6279    0.9608    2.0996 H       1  UNL1        0.0637
     45 H          -6.7006   -1.1772    1.4875 H       1  UNL1        0.0476
     46 H          -5.7991   -1.9429    0.1510 H       1  UNL1        0.0476
     47 H          -8.3425   -1.5424   -0.1537 H       1  UNL1        0.0439
     48 H          -7.2156   -1.3131   -1.5244 H       1  UNL1        0.0439
     49 H          -7.7715    0.8203   -1.6916 H       1  UNL1        0.1220
     50 H          -7.9210    2.3782   -0.0114 H       1  UNL1        0.0439
     51 H          -8.1169    1.1060    1.2447 H       1  UNL1        0.0439
     52 H          -5.6161    2.1245   -0.2311 H       1  UNL1        0.0476
     53 H          -5.8829    1.8642    1.5263 H       1  UNL1        0.0476
@<TRIPOS>BOND
     1     1     2    1
     2     2     3   ar
     3     3     4   ar
     4     4     5    1
     5     5     6   ar
     6     6     7   ar
     7     7     8   ar
     8     8     9   ar
     9     9    10    1
    10    10    11   ar
    11    11    12   ar
    12    12    13   ar
    13    13    14   ar
    14    14    15   ar
    15    15    16   ar
    16    16    17   ar
    17    17    18   ar
    18    18    19   ar
    19     9    20   ar
    20    20    21   ar
    21    21    22   ar
    22    22    23   ar
    23     4    24   ar
    24    24    25   ar
    25    25    26   ar
    26    26    27    1
    27    27    28    1
    28    28    29    1
    29    29    30    1
    30    30    31    1
    31    31    32    1
    32    26     2   ar
    33    32    27    1
    34    23     5   ar
    35    22     8   ar
    36    19    10   ar
    37    19    14   ar
    38     3    33    1
    39     6    34    1
    40    11    35    1
    41    12    36    1
    42    15    37    1
    43    16    38    1
    44    17    39    1
    45    18    40    1
    46    20    41    1
    47    23    42    1
    48    24    43    1
    49    25    44    1
    50    28    45    1
    51    28    46    1
    52    29    47    1
    53    29    48    1
    54    30    49    1
    55    31    50    1
    56    31    51    1
    57    32    52    1
    58    32    53    1
