
     RDKit          3D

 53 58  0  0  0  0  0  0  0  0999 V2000
   -4.4200   -1.0446   -1.7857 F   0  0  0  0  0  0  0  0  0  0  0  0
   -3.5508   -0.5719   -0.8341 C   0  0  0  0  0  0  0  0  0  0  0  0
   -2.1960   -0.7068   -1.0224 C   0  0  0  0  0  0  0  0  0  0  0  0
   -1.3184   -0.2376   -0.0772 C   0  0  0  0  0  0  0  0  0  0  0  0
    0.1187   -0.3773   -0.2687 C   0  0  0  0  0  0  0  0  0  0  0  0
    0.9659   -0.5274    0.7840 C   0  0  0  0  0  0  0  0  0  0  0  0
    2.2967   -0.6547    0.5537 N   0  0  0  0  0  0  0  0  0  0  0  0
    2.8112   -0.6376   -0.6862 C   0  0  0  0  0  0  0  0  0  0  0  0
    4.1006   -0.7477   -1.1462 C   0  0  0  0  0  0  0  0  0  0  0  0
    5.3334   -0.9222   -0.3999 C   0  0  0  0  0  0  0  0  0  0  0  0
    5.8195   -2.1768   -0.0984 C   0  0  0  0  0  0  0  0  0  0  0  0
    6.9886   -2.3232    0.6091 C   0  0  0  0  0  0  0  0  0  0  0  0
    7.6912   -1.2575    1.0272 N   0  0  0  0  0  0  0  0  0  0  0  0
    7.2521   -0.0243    0.7544 C   0  0  0  0  0  0  0  0  0  0  0  0
    7.9446    1.0873    1.1657 C   0  0  0  0  0  0  0  0  0  0  0  0
    7.4765    2.3656    0.8747 C   0  0  0  0  0  0  0  0  0  0  0  0
    6.3094    2.5640    0.1680 C   0  0  0  0  0  0  0  0  0  0  0  0
    5.6236    1.4188   -0.2392 C   0  0  0  0  0  0  0  0  0  0  0  0
    6.0851    0.1558    0.0479 C   0  0  0  0  0  0  0  0  0  0  0  0
    4.0210   -0.6605   -2.5159 C   0  0  0  0  0  0  0  0  0  0  0  0
    2.7025   -0.5023   -2.8399 N   0  0  0  0  0  0  0  0  0  0  0  0
    1.9656   -0.4875   -1.7415 N   0  0  0  0  0  0  0  0  0  0  0  0
    0.6347   -0.3578   -1.5520 C   0  0  0  0  0  0  0  0  0  0  0  0
   -1.8293    0.3624    1.0464 C   0  0  0  0  0  0  0  0  0  0  0  0
   -3.2014    0.4896    1.2187 C   0  0  0  0  0  0  0  0  0  0  0  0
   -4.0956    0.0243    0.2805 C   0  0  0  0  0  0  0  0  0  0  0  0
   -5.5026    0.1258    0.4048 N   0  0  0  0  0  0  0  0  0  0  0  0
   -6.3789   -1.0174    0.4321 C   0  0  0  0  0  0  0  0  0  0  0  0
   -7.5239   -0.8938   -0.5221 C   0  0  0  0  0  0  0  0  0  0  0  0
   -7.9546    0.4514   -0.7404 N   0  0  0  0  0  0  0  0  0  0  0  0
   -7.5891    1.3673    0.3092 C   0  0  0  0  0  0  0  0  0  0  0  0
   -6.0898    1.4424    0.5090 C   0  0  0  0  0  0  0  0  0  0  0  0
   -1.8343   -1.1927   -1.9350 H   0  0  0  0  0  0  0  0  0  0  0  0
    0.5505   -0.5407    1.7811 H   0  0  0  0  0  0  0  0  0  0  0  0
    5.2704   -3.0429   -0.4250 H   0  0  0  0  0  0  0  0  0  0  0  0
    7.3615   -3.3277    0.8404 H   0  0  0  0  0  0  0  0  0  0  0  0
    8.8677    1.0086    1.7242 H   0  0  0  0  0  0  0  0  0  0  0  0
    8.0201    3.2201    1.1979 H   0  0  0  0  0  0  0  0  0  0  0  0
    5.9212    3.5553   -0.0729 H   0  0  0  0  0  0  0  0  0  0  0  0
    4.7026    1.5090   -0.7962 H   0  0  0  0  0  0  0  0  0  0  0  0
    4.8676   -0.7116   -3.1856 H   0  0  0  0  0  0  0  0  0  0  0  0
   -0.0194   -0.2390   -2.4134 H   0  0  0  0  0  0  0  0  0  0  0  0
   -1.2044    0.7575    1.8359 H   0  0  0  0  0  0  0  0  0  0  0  0
   -3.6279    0.9608    2.0996 H   0  0  0  0  0  0  0  0  0  0  0  0
   -6.7006   -1.1772    1.4875 H   0  0  0  0  0  0  0  0  0  0  0  0
   -5.7991   -1.9429    0.1510 H   0  0  0  0  0  0  0  0  0  0  0  0
   -8.3425   -1.5424   -0.1537 H   0  0  0  0  0  0  0  0  0  0  0  0
   -7.2156   -1.3131   -1.5244 H   0  0  0  0  0  0  0  0  0  0  0  0
   -7.7715    0.8203   -1.6916 H   0  0  0  0  0  0  0  0  0  0  0  0
   -7.9210    2.3782   -0.0114 H   0  0  0  0  0  0  0  0  0  0  0  0
   -8.1169    1.1060    1.2447 H   0  0  0  0  0  0  0  0  0  0  0  0
   -5.6161    2.1245   -0.2311 H   0  0  0  0  0  0  0  0  0  0  0  0
   -5.8829    1.8642    1.5263 H   0  0  0  0  0  0  0  0  0  0  0  0
  1  2  1  0
  2  3  2  0
  3  4  1  0
  4  5  1  0
  5  6  1  0
  6  7  2  0
  7  8  1  0
  8  9  2  0
  9 10  1  0
 10 11  2  0
 11 12  1  0
 12 13  2  0
 13 14  1  0
 14 15  2  0
 15 16  1  0
 16 17  2  0
 17 18  1  0
 18 19  2  0
  9 20  1  0
 20 21  2  0
 21 22  1  0
 22 23  1  0
  4 24  2  0
 24 25  1  0
 25 26  2  0
 26 27  1  0
 27 28  1  0
 28 29  1  0
 29 30  1  0
 30 31  1  0
 31 32  1  0
 26  2  1  0
 32 27  1  0
 23  5  2  0
 22  8  1  0
 19 10  1  0
 19 14  1  0
  3 33  1  0
  6 34  1  0
 11 35  1  0
 12 36  1  0
 15 37  1  0
 16 38  1  0
 17 39  1  0
 18 40  1  0
 20 41  1  0
 23 42  1  0
 24 43  1  0
 25 44  1  0
 28 45  1  0
 28 46  1  0
 29 47  1  0
 29 48  1  0
 30 49  1  0
 31 50  1  0
 31 51  1  0
 32 52  1  0
 32 53  1  0
M  END
$$$$
