@<TRIPOS>MOLECULE
*****
 65 68 0 0 0
SMALL
GASTEIGER

@<TRIPOS>ATOM
      1 C          -7.8036    1.2255   -2.3875 C.2     1  UNL1       -0.1026
      2 C          -7.5127    0.6769   -1.2296 C.2     1  UNL1       -0.0911
      3 C          -7.4087    1.5131   -0.0197 C.3     1  UNL1       -0.0350
      4 C          -6.0162    1.3857    0.5915 C.3     1  UNL1       -0.0485
      5 C          -5.7296   -0.0375    0.9903 C.3     1  UNL1       -0.0399
      6 C          -4.3873   -0.2663    1.5899 C.3     1  UNL1       -0.0009
      7 N          -3.2585    0.0557    0.7805 N.3     1  UNL1       -0.2976
      8 C          -1.9989   -0.2764    1.4032 C.3     1  UNL1        0.0225
      9 C          -1.5271   -1.6492    1.0164 C.3     1  UNL1        0.0609
     10 O          -1.6944   -1.9926   -0.2773 O.3     1  UNL1       -0.3707
     11 C          -2.2662   -1.1441   -1.1526 C.3     1  UNL1        0.1052
     12 C          -1.4181   -0.4933   -2.2022 C.3     1  UNL1        0.1170
     13 O          -0.3243    0.1464   -1.6928 O.3     1  UNL1       -0.4856
     14 C           0.8174   -0.2568   -1.1054 C.ar    1  UNL1        0.1641
     15 C           1.2136   -1.5579   -0.9436 C.ar    1  UNL1        0.0098
     16 C           2.4176   -1.8995   -0.3087 C.ar    1  UNL1        0.0797
     17 N           2.7680   -3.1875   -0.1611 N.ar    1  UNL1       -0.2352
     18 C           3.9101   -3.5257    0.4508 C.ar    1  UNL1        0.1187
     19 N           4.7609   -2.6176    0.9465 N.ar    1  UNL1       -0.2200
     20 C           4.4383   -1.3028    0.8152 C.ar    1  UNL1        0.1340
     21 N           5.2892   -0.3309    1.3711 N.pl3   1  UNL1       -0.2988
     22 C           6.5263   -0.0089    0.7755 C.ar    1  UNL1        0.0339
     23 C           6.8969   -0.6455   -0.3840 C.ar    1  UNL1       -0.0390
     24 C           8.1230   -0.3360   -0.9523 C.ar    1  UNL1       -0.0402
     25 C           8.9522    0.5942   -0.3626 C.ar    1  UNL1        0.0594
     26 CL         10.5120    0.9825   -1.0833 Cl      1  UNL1       -0.0820
     27 C           8.5862    1.2354    0.7982 C.ar    1  UNL1        0.0610
     28 CL          9.6190    2.4245    1.5695 Cl      1  UNL1       -0.0820
     29 C           7.3757    0.9272    1.3560 C.ar    1  UNL1       -0.0207
     30 C           3.2562   -0.9261    0.1804 C.ar    1  UNL1        0.0441
     31 C           2.8724    0.3864    0.0230 C.ar    1  UNL1       -0.0038
     32 C           1.6889    0.7189   -0.6003 C.ar    1  UNL1        0.1623
     33 O           1.3286    2.0567   -0.7438 O.3     1  UNL1       -0.4914
     34 C           2.1829    3.0762   -0.2397 C.3     1  UNL1        0.0790
     35 C          -3.3268   -0.2160   -0.5952 C.3     1  UNL1        0.0285
     36 H          -7.9057    0.7181   -3.3389 H       1  UNL1        0.0532
     37 H          -7.9689    2.3088   -2.4389 H       1  UNL1        0.0532
     38 H          -7.3518   -0.3823   -1.1668 H       1  UNL1        0.0566
     39 H          -7.6356    2.5734   -0.2718 H       1  UNL1        0.0307
     40 H          -8.1900    1.2322    0.7349 H       1  UNL1        0.0307
     41 H          -5.9847    2.0388    1.4666 H       1  UNL1        0.0269
     42 H          -5.2742    1.6413   -0.2037 H       1  UNL1        0.0269
     43 H          -6.5141   -0.2691    1.7813 H       1  UNL1        0.0278
     44 H          -5.9279   -0.7892    0.2083 H       1  UNL1        0.0278
     45 H          -4.3217   -1.3321    1.8904 H       1  UNL1        0.0427
     46 H          -4.3114    0.2907    2.5792 H       1  UNL1        0.0427
     47 H          -1.2883    0.5391    1.1828 H       1  UNL1        0.0449
     48 H          -2.1613   -0.2744    2.4991 H       1  UNL1        0.0449
     49 H          -2.0965   -2.4073    1.6351 H       1  UNL1        0.0573
     50 H          -0.4811   -1.7803    1.3416 H       1  UNL1        0.0573
     51 H          -2.9199   -1.8748   -1.8097 H       1  UNL1        0.0643
     52 H          -2.0837    0.3071   -2.6662 H       1  UNL1        0.0723
     53 H          -1.2092   -1.1667   -3.0675 H       1  UNL1        0.0723
     54 H           0.6100   -2.3754   -1.3374 H       1  UNL1        0.0677
     55 H           4.0989   -4.5973    0.5183 H       1  UNL1        0.1048
     56 H           4.9988    0.1573    2.2389 H       1  UNL1        0.1536
     57 H           6.2838   -1.3779   -0.8844 H       1  UNL1        0.0636
     58 H           8.4460   -0.8179   -1.8602 H       1  UNL1        0.0633
     59 H           7.0320    1.3920    2.2584 H       1  UNL1        0.0651
     60 H           3.5458    1.1460    0.4128 H       1  UNL1        0.0663
     61 H           1.8148    4.0437   -0.6140 H       1  UNL1        0.0660
     62 H           3.2066    2.9417   -0.6624 H       1  UNL1        0.0660
     63 H           2.2061    3.1171    0.8507 H       1  UNL1        0.0660
     64 H          -4.3317   -0.5134   -0.9671 H       1  UNL1        0.0453
     65 H          -3.1480    0.7764   -1.1259 H       1  UNL1        0.0453
@<TRIPOS>BOND
     1     1     2    2
     2     2     3    1
     3     3     4    1
     4     4     5    1
     5     5     6    1
     6     6     7    1
     7     7     8    1
     8     8     9    1
     9     9    10    1
    10    10    11    1
    11    11    12    1
    12    12    13    1
    13    13    14    1
    14    14    15   ar
    15    15    16   ar
    16    16    17   ar
    17    17    18   ar
    18    18    19   ar
    19    19    20   ar
    20    20    21    1
    21    21    22    1
    22    22    23   ar
    23    23    24   ar
    24    24    25   ar
    25    25    26    1
    26    25    27   ar
    27    27    28    1
    28    27    29   ar
    29    20    30   ar
    30    30    31   ar
    31    31    32   ar
    32    32    33    1
    33    33    34    1
    34    11    35    1
    35    35     7    1
    36    32    14   ar
    37    30    16   ar
    38    29    22   ar
    39     1    36    1
    40     1    37    1
    41     2    38    1
    42     3    39    1
    43     3    40    1
    44     4    41    1
    45     4    42    1
    46     5    43    1
    47     5    44    1
    48     6    45    1
    49     6    46    1
    50     8    47    1
    51     8    48    1
    52     9    49    1
    53     9    50    1
    54    11    51    1
    55    12    52    1
    56    12    53    1
    57    15    54    1
    58    18    55    1
    59    21    56    1
    60    23    57    1
    61    24    58    1
    62    29    59    1
    63    31    60    1
    64    34    61    1
    65    34    62    1
    66    34    63    1
    67    35    64    1
    68    35    65    1
