
     RDKit          3D

 65 68  0  0  0  0  0  0  0  0999 V2000
   -7.8036    1.2255   -2.3875 C   0  0  0  0  0  0  0  0  0  0  0  0
   -7.5127    0.6769   -1.2296 C   0  0  0  0  0  0  0  0  0  0  0  0
   -7.4087    1.5131   -0.0197 C   0  0  0  0  0  0  0  0  0  0  0  0
   -6.0162    1.3857    0.5915 C   0  0  0  0  0  0  0  0  0  0  0  0
   -5.7296   -0.0375    0.9903 C   0  0  0  0  0  0  0  0  0  0  0  0
   -4.3873   -0.2663    1.5899 C   0  0  0  0  0  0  0  0  0  0  0  0
   -3.2585    0.0557    0.7805 N   0  0  0  0  0  0  0  0  0  0  0  0
   -1.9989   -0.2764    1.4032 C   0  0  0  0  0  0  0  0  0  0  0  0
   -1.5271   -1.6492    1.0164 C   0  0  0  0  0  0  0  0  0  0  0  0
   -1.6944   -1.9926   -0.2773 O   0  0  0  0  0  0  0  0  0  0  0  0
   -2.2662   -1.1441   -1.1526 C   0  0  0  0  0  0  0  0  0  0  0  0
   -1.4181   -0.4933   -2.2022 C   0  0  0  0  0  0  0  0  0  0  0  0
   -0.3243    0.1464   -1.6928 O   0  0  0  0  0  0  0  0  0  0  0  0
    0.8174   -0.2568   -1.1054 C   0  0  0  0  0  0  0  0  0  0  0  0
    1.2136   -1.5579   -0.9436 C   0  0  0  0  0  0  0  0  0  0  0  0
    2.4176   -1.8995   -0.3087 C   0  0  0  0  0  0  0  0  0  0  0  0
    2.7680   -3.1875   -0.1611 N   0  0  0  0  0  0  0  0  0  0  0  0
    3.9101   -3.5257    0.4508 C   0  0  0  0  0  0  0  0  0  0  0  0
    4.7609   -2.6176    0.9465 N   0  0  0  0  0  0  0  0  0  0  0  0
    4.4383   -1.3028    0.8152 C   0  0  0  0  0  0  0  0  0  0  0  0
    5.2892   -0.3309    1.3711 N   0  0  0  0  0  0  0  0  0  0  0  0
    6.5263   -0.0089    0.7755 C   0  0  0  0  0  0  0  0  0  0  0  0
    6.8969   -0.6455   -0.3840 C   0  0  0  0  0  0  0  0  0  0  0  0
    8.1230   -0.3360   -0.9523 C   0  0  0  0  0  0  0  0  0  0  0  0
    8.9522    0.5942   -0.3626 C   0  0  0  0  0  0  0  0  0  0  0  0
   10.5120    0.9825   -1.0833 Cl  0  0  0  0  0  0  0  0  0  0  0  0
    8.5862    1.2354    0.7982 C   0  0  0  0  0  0  0  0  0  0  0  0
    9.6190    2.4245    1.5695 Cl  0  0  0  0  0  0  0  0  0  0  0  0
    7.3757    0.9272    1.3560 C   0  0  0  0  0  0  0  0  0  0  0  0
    3.2562   -0.9261    0.1804 C   0  0  0  0  0  0  0  0  0  0  0  0
    2.8724    0.3864    0.0230 C   0  0  0  0  0  0  0  0  0  0  0  0
    1.6889    0.7189   -0.6003 C   0  0  0  0  0  0  0  0  0  0  0  0
    1.3286    2.0567   -0.7438 O   0  0  0  0  0  0  0  0  0  0  0  0
    2.1829    3.0762   -0.2397 C   0  0  0  0  0  0  0  0  0  0  0  0
   -3.3268   -0.2160   -0.5952 C   0  0  0  0  0  0  0  0  0  0  0  0
   -7.9057    0.7181   -3.3389 H   0  0  0  0  0  0  0  0  0  0  0  0
   -7.9689    2.3088   -2.4389 H   0  0  0  0  0  0  0  0  0  0  0  0
   -7.3518   -0.3823   -1.1668 H   0  0  0  0  0  0  0  0  0  0  0  0
   -7.6356    2.5734   -0.2718 H   0  0  0  0  0  0  0  0  0  0  0  0
   -8.1900    1.2322    0.7349 H   0  0  0  0  0  0  0  0  0  0  0  0
   -5.9847    2.0388    1.4666 H   0  0  0  0  0  0  0  0  0  0  0  0
   -5.2742    1.6413   -0.2037 H   0  0  0  0  0  0  0  0  0  0  0  0
   -6.5141   -0.2691    1.7813 H   0  0  0  0  0  0  0  0  0  0  0  0
   -5.9279   -0.7892    0.2083 H   0  0  0  0  0  0  0  0  0  0  0  0
   -4.3217   -1.3321    1.8904 H   0  0  0  0  0  0  0  0  0  0  0  0
   -4.3114    0.2907    2.5792 H   0  0  0  0  0  0  0  0  0  0  0  0
   -1.2883    0.5391    1.1828 H   0  0  0  0  0  0  0  0  0  0  0  0
   -2.1613   -0.2744    2.4991 H   0  0  0  0  0  0  0  0  0  0  0  0
   -2.0965   -2.4073    1.6351 H   0  0  0  0  0  0  0  0  0  0  0  0
   -0.4811   -1.7803    1.3416 H   0  0  0  0  0  0  0  0  0  0  0  0
   -2.9199   -1.8748   -1.8097 H   0  0  0  0  0  0  0  0  0  0  0  0
   -2.0837    0.3071   -2.6662 H   0  0  0  0  0  0  0  0  0  0  0  0
   -1.2092   -1.1667   -3.0675 H   0  0  0  0  0  0  0  0  0  0  0  0
    0.6100   -2.3754   -1.3374 H   0  0  0  0  0  0  0  0  0  0  0  0
    4.0989   -4.5973    0.5183 H   0  0  0  0  0  0  0  0  0  0  0  0
    4.9988    0.1573    2.2389 H   0  0  0  0  0  0  0  0  0  0  0  0
    6.2838   -1.3779   -0.8844 H   0  0  0  0  0  0  0  0  0  0  0  0
    8.4460   -0.8179   -1.8602 H   0  0  0  0  0  0  0  0  0  0  0  0
    7.0320    1.3920    2.2584 H   0  0  0  0  0  0  0  0  0  0  0  0
    3.5458    1.1460    0.4128 H   0  0  0  0  0  0  0  0  0  0  0  0
    1.8148    4.0437   -0.6140 H   0  0  0  0  0  0  0  0  0  0  0  0
    3.2066    2.9417   -0.6624 H   0  0  0  0  0  0  0  0  0  0  0  0
    2.2061    3.1171    0.8507 H   0  0  0  0  0  0  0  0  0  0  0  0
   -4.3317   -0.5134   -0.9671 H   0  0  0  0  0  0  0  0  0  0  0  0
   -3.1480    0.7764   -1.1259 H   0  0  0  0  0  0  0  0  0  0  0  0
  1  2  2  3
  2  3  1  0
  3  4  1  0
  4  5  1  0
  5  6  1  0
  6  7  1  0
  7  8  1  0
  8  9  1  0
  9 10  1  0
 10 11  1  0
 11 12  1  0
 12 13  1  0
 13 14  1  0
 14 15  2  0
 15 16  1  0
 16 17  2  0
 17 18  1  0
 18 19  2  0
 19 20  1  0
 20 21  1  0
 21 22  1  0
 22 23  2  0
 23 24  1  0
 24 25  2  0
 25 26  1  0
 25 27  1  0
 27 28  1  0
 27 29  2  0
 20 30  2  0
 30 31  1  0
 31 32  2  0
 32 33  1  0
 33 34  1  0
 11 35  1  0
 35  7  1  0
 32 14  1  0
 30 16  1  0
 29 22  1  0
  1 36  1  0
  1 37  1  0
  2 38  1  0
  3 39  1  0
  3 40  1  0
  4 41  1  0
  4 42  1  0
  5 43  1  0
  5 44  1  0
  6 45  1  0
  6 46  1  0
  8 47  1  0
  8 48  1  0
  9 49  1  0
  9 50  1  0
 11 51  1  0
 12 52  1  0
 12 53  1  0
 15 54  1  0
 18 55  1  0
 21 56  1  0
 23 57  1  0
 24 58  1  0
 29 59  1  0
 31 60  1  0
 34 61  1  0
 34 62  1  0
 34 63  1  0
 35 64  1  0
 35 65  1  0
M  END
$$$$
