@<TRIPOS>MOLECULE
*****
 74 79 0 0 0
SMALL
GASTEIGER

@<TRIPOS>ATOM
      1 C          -0.6640    6.9784   -2.9257 C.3     1  UNL1       -0.0151
      2 N          -1.1908    7.0561   -1.6050 N.3     1  UNL1       -0.3089
      3 C          -2.4528    6.4650   -1.3678 C.3     1  UNL1        0.0820
      4 C          -3.5219    6.9224   -2.3654 C.3     1  UNL1       -0.0411
      5 C          -2.5602    5.1158   -0.9414 C.2     1  UNL1        0.2350
      6 O          -3.7721    4.4879   -0.9860 O.2     1  UNL1       -0.2737
      7 N          -1.5959    4.2626   -0.4383 N.am    1  UNL1       -0.2691
      8 C          -1.8552    2.9109    0.0156 C.ar    1  UNL1        0.1263
      9 C          -3.0306    2.5084    0.5540 C.ar    1  UNL1       -0.0208
     10 C          -3.1701    1.1259    0.7667 C.ar    1  UNL1       -0.0466
     11 C          -2.1800    0.2033    0.4378 C.ar    1  UNL1        0.0349
     12 C          -2.4417   -1.2544    0.4112 C.ar    1  UNL1        0.0837
     13 C          -2.4259   -2.1738    1.3900 C.ar    1  UNL1        0.1006
     14 C          -1.7672   -2.1535    2.6701 C.ar    1  UNL1        0.0387
     15 C          -0.3297   -2.2161    2.5928 C.ar    1  UNL1        0.0403
     16 N           0.3567   -2.2805    3.6569 N.ar    1  UNL1       -0.2399
     17 C          -0.1398   -2.2990    4.9435 C.ar    1  UNL1        0.1259
     18 C           0.7903   -2.2940    6.0680 C.3     1  UNL1       -0.0046
     19 N          -1.4770   -2.2472    5.0283 N.ar    1  UNL1       -0.2399
     20 C          -2.2867   -2.1706    3.9060 C.ar    1  UNL1        0.0403
     21 N          -2.9238   -3.3778    0.8896 N.ar    1  UNL1       -0.2271
     22 C          -3.2192   -3.2010   -0.3877 C.ar    1  UNL1        0.1390
     23 C          -3.6156   -4.0183   -1.4236 C.ar    1  UNL1       -0.0158
     24 C          -3.7287   -3.6310   -2.7135 C.ar    1  UNL1       -0.0456
     25 C          -3.9909   -4.5203   -3.8358 C.3     1  UNL1       -0.0395
     26 C          -3.4277   -2.2690   -3.0159 C.ar    1  UNL1       -0.0421
     27 C          -3.0335   -1.4880   -1.9619 C.ar    1  UNL1        0.0120
     28 N          -2.9166   -1.8731   -0.6828 N.ar    1  UNL1       -0.2986
     29 C          -1.0701    0.6257   -0.0551 C.ar    1  UNL1        0.1250
     30 C           0.1961   -0.0152   -0.2463 C.1     1  UNL1       -0.0404
     31 C           1.3316   -0.6022   -0.4061 C.1     1  UNL1       -0.0595
     32 C           2.5988   -1.2407   -0.5759 C.ar    1  UNL1        0.0260
     33 C           3.4337   -0.9013   -1.5763 C.ar    1  UNL1       -0.0443
     34 C           4.7992   -1.2512   -1.4725 C.ar    1  UNL1       -0.0364
     35 C           5.3491   -1.8839   -0.4788 C.ar    1  UNL1        0.0518
     36 C           4.3749   -2.2892    0.7150 C.ar    1  UNL1       -0.0001
     37 C           4.9934   -2.8734    1.6999 C.ar    1  UNL1       -0.0475
     38 C           6.3086   -3.1927    1.9241 C.ar    1  UNL1        0.0036
     39 C           7.2001   -2.7755    0.7587 C.ar    1  UNL1        0.2515
     40 O           8.3694   -3.0225    0.8521 O.2     1  UNL1       -0.2677
     41 N           6.5240   -2.2224   -0.1488 N.ar    1  UNL1       -0.3112
     42 C           7.4881   -1.2290   -0.9907 C.3     1  UNL1        0.0153
     43 C           3.1340   -1.9184    0.4952 C.ar    1  UNL1       -0.0372
     44 N          -0.8693    2.0298   -0.2877 N.ar    1  UNL1       -0.2229
     45 H           0.4540    7.2366   -2.8477 H       1  UNL1        0.0388
     46 H          -0.6635    5.9633   -3.3958 H       1  UNL1        0.0388
     47 H          -1.0750    7.7680   -3.5510 H       1  UNL1        0.0388
     48 H          -0.4933    6.8695   -0.8394 H       1  UNL1        0.1223
     49 H          -2.8254    7.1314   -0.4064 H       1  UNL1        0.0554
     50 H          -4.3722    6.2203   -2.2655 H       1  UNL1        0.0249
     51 H          -3.1255    6.8120   -3.3996 H       1  UNL1        0.0249
     52 H          -3.8222    7.9700   -2.1438 H       1  UNL1        0.0249
     53 H          -0.5899    4.6260   -0.3695 H       1  UNL1        0.1563
     54 H          -3.8463    3.1418    0.7933 H       1  UNL1        0.0652
     55 H          -4.0927    0.7184    1.2201 H       1  UNL1        0.0626
     56 H           0.0611   -2.2261    1.5722 H       1  UNL1        0.0837
     57 H           1.7785   -1.8010    5.5958 H       1  UNL1        0.0308
     58 H           0.6480   -1.6933    6.9264 H       1  UNL1        0.0308
     59 H           1.1659   -3.3534    6.2218 H       1  UNL1        0.0308
     60 H          -3.3748   -2.0667    3.9932 H       1  UNL1        0.0837
     61 H          -3.9128   -5.0316   -1.1209 H       1  UNL1        0.0657
     62 H          -4.2867   -3.9113   -4.7520 H       1  UNL1        0.0278
     63 H          -3.0635   -5.1008   -4.0840 H       1  UNL1        0.0278
     64 H          -4.7890   -5.2570   -3.5618 H       1  UNL1        0.0278
     65 H          -3.5324   -1.9449   -4.0094 H       1  UNL1        0.0635
     66 H          -2.7825   -0.4438   -2.1954 H       1  UNL1        0.0813
     67 H           3.1240   -0.3507   -2.4718 H       1  UNL1        0.0630
     68 H           5.3792   -0.9330   -2.3463 H       1  UNL1        0.0639
     69 H           4.2845   -3.2708    2.5481 H       1  UNL1        0.0626
     70 H           6.8215   -3.6431    2.7038 H       1  UNL1        0.0672
     71 H           7.2505   -1.2566   -1.9846 H       1  UNL1        0.0457
     72 H           8.4670   -1.5111   -0.6525 H       1  UNL1        0.0457
     73 H           7.2254   -0.2506   -0.4299 H       1  UNL1        0.0457
     74 H           2.3973   -2.2180    1.2725 H       1  UNL1        0.0636
@<TRIPOS>BOND
     1     1     2    1
     2     2     3    1
     3     3     4    1
     4     3     5    1
     5     5     6    2
     6     5     7   am
     7     7     8    1
     8     8     9   ar
     9     9    10   ar
    10    10    11   ar
    11    11    12    1
    12    12    13   ar
    13    13    14    1
    14    14    15   ar
    15    15    16   ar
    16    16    17   ar
    17    17    18    1
    18    17    19   ar
    19    19    20   ar
    20    13    21   ar
    21    21    22   ar
    22    22    23   ar
    23    23    24   ar
    24    24    25    1
    25    24    26   ar
    26    26    27   ar
    27    27    28   ar
    28    11    29   ar
    29    29    30    1
    30    30    31    3
    31    31    32    1
    32    32    33   ar
    33    33    34   ar
    34    34    35   ar
    35    35    36   ar
    36    36    37   ar
    37    37    38   ar
    38    38    39   ar
    39    39    40    2
    40    39    41   ar
    41    41    42    1
    42    36    43   ar
    43    29    44   ar
    44    44     8   ar
    45    28    12   ar
    46    43    32   ar
    47    20    14   ar
    48    28    22   ar
    49    41    35   ar
    50     1    45    1
    51     1    46    1
    52     1    47    1
    53     2    48    1
    54     3    49    1
    55     4    50    1
    56     4    51    1
    57     4    52    1
    58     7    53    1
    59     9    54    1
    60    10    55    1
    61    15    56    1
    62    18    57    1
    63    18    58    1
    64    18    59    1
    65    20    60    1
    66    23    61    1
    67    25    62    1
    68    25    63    1
    69    25    64    1
    70    26    65    1
    71    27    66    1
    72    33    67    1
    73    34    68    1
    74    37    69    1
    75    38    70    1
    76    42    71    1
    77    42    72    1
    78    42    73    1
    79    43    74    1
