
     RDKit          3D

 74 79  0  0  0  0  0  0  0  0999 V2000
   -0.6640    6.9784   -2.9257 C   0  0  0  0  0  0  0  0  0  0  0  0
   -1.1908    7.0561   -1.6050 N   0  0  0  0  0  0  0  0  0  0  0  0
   -2.4528    6.4650   -1.3678 C   0  0  1  0  0  0  0  0  0  0  0  0
   -3.5219    6.9224   -2.3654 C   0  0  0  0  0  0  0  0  0  0  0  0
   -2.5602    5.1158   -0.9414 C   0  0  0  0  0  0  0  0  0  0  0  0
   -3.7721    4.4879   -0.9860 O   0  0  0  0  0  0  0  0  0  0  0  0
   -1.5959    4.2626   -0.4383 N   0  0  0  0  0  0  0  0  0  0  0  0
   -1.8552    2.9109    0.0156 C   0  0  0  0  0  0  0  0  0  0  0  0
   -3.0306    2.5084    0.5540 C   0  0  0  0  0  0  0  0  0  0  0  0
   -3.1701    1.1259    0.7667 C   0  0  0  0  0  0  0  0  0  0  0  0
   -2.1800    0.2033    0.4378 C   0  0  0  0  0  0  0  0  0  0  0  0
   -2.4417   -1.2544    0.4112 C   0  0  0  0  0  0  0  0  0  0  0  0
   -2.4259   -2.1738    1.3900 C   0  0  0  0  0  0  0  0  0  0  0  0
   -1.7672   -2.1535    2.6701 C   0  0  0  0  0  0  0  0  0  0  0  0
   -0.3297   -2.2161    2.5928 C   0  0  0  0  0  0  0  0  0  0  0  0
    0.3567   -2.2805    3.6569 N   0  0  0  0  0  0  0  0  0  0  0  0
   -0.1398   -2.2990    4.9435 C   0  0  0  0  0  0  0  0  0  0  0  0
    0.7903   -2.2940    6.0680 C   0  0  0  0  0  0  0  0  0  0  0  0
   -1.4770   -2.2472    5.0283 N   0  0  0  0  0  0  0  0  0  0  0  0
   -2.2867   -2.1706    3.9060 C   0  0  0  0  0  0  0  0  0  0  0  0
   -2.9238   -3.3778    0.8896 N   0  0  0  0  0  0  0  0  0  0  0  0
   -3.2192   -3.2010   -0.3877 C   0  0  0  0  0  0  0  0  0  0  0  0
   -3.6156   -4.0183   -1.4236 C   0  0  0  0  0  0  0  0  0  0  0  0
   -3.7287   -3.6310   -2.7135 C   0  0  0  0  0  0  0  0  0  0  0  0
   -3.9909   -4.5203   -3.8358 C   0  0  0  0  0  0  0  0  0  0  0  0
   -3.4277   -2.2690   -3.0159 C   0  0  0  0  0  0  0  0  0  0  0  0
   -3.0335   -1.4880   -1.9619 C   0  0  0  0  0  0  0  0  0  0  0  0
   -2.9166   -1.8731   -0.6828 N   0  0  0  0  0  0  0  0  0  0  0  0
   -1.0701    0.6257   -0.0551 C   0  0  0  0  0  0  0  0  0  0  0  0
    0.1961   -0.0152   -0.2463 C   0  0  0  0  0  0  0  0  0  0  0  0
    1.3316   -0.6022   -0.4061 C   0  0  0  0  0  0  0  0  0  0  0  0
    2.5988   -1.2407   -0.5759 C   0  0  0  0  0  0  0  0  0  0  0  0
    3.4337   -0.9013   -1.5763 C   0  0  0  0  0  0  0  0  0  0  0  0
    4.7992   -1.2512   -1.4725 C   0  0  0  0  0  0  0  0  0  0  0  0
    5.3491   -1.8839   -0.4788 C   0  0  0  0  0  0  0  0  0  0  0  0
    4.3749   -2.2892    0.7150 C   0  0  0  0  0  0  0  0  0  0  0  0
    4.9934   -2.8734    1.6999 C   0  0  0  0  0  0  0  0  0  0  0  0
    6.3086   -3.1927    1.9241 C   0  0  0  0  0  0  0  0  0  0  0  0
    7.2001   -2.7755    0.7587 C   0  0  0  0  0  0  0  0  0  0  0  0
    8.3694   -3.0225    0.8521 O   0  0  0  0  0  0  0  0  0  0  0  0
    6.5240   -2.2224   -0.1488 N   0  0  0  0  0  0  0  0  0  0  0  0
    7.4881   -1.2290   -0.9907 C   0  0  0  0  0  0  0  0  0  0  0  0
    3.1340   -1.9184    0.4952 C   0  0  0  0  0  0  0  0  0  0  0  0
   -0.8693    2.0298   -0.2877 N   0  0  0  0  0  0  0  0  0  0  0  0
    0.4540    7.2366   -2.8477 H   0  0  0  0  0  0  0  0  0  0  0  0
   -0.6635    5.9633   -3.3958 H   0  0  0  0  0  0  0  0  0  0  0  0
   -1.0750    7.7680   -3.5510 H   0  0  0  0  0  0  0  0  0  0  0  0
   -0.4933    6.8695   -0.8394 H   0  0  0  0  0  0  0  0  0  0  0  0
   -2.8254    7.1314   -0.4064 H   0  0  0  0  0  0  0  0  0  0  0  0
   -4.3722    6.2203   -2.2655 H   0  0  0  0  0  0  0  0  0  0  0  0
   -3.1255    6.8120   -3.3996 H   0  0  0  0  0  0  0  0  0  0  0  0
   -3.8222    7.9700   -2.1438 H   0  0  0  0  0  0  0  0  0  0  0  0
   -0.5899    4.6260   -0.3695 H   0  0  0  0  0  0  0  0  0  0  0  0
   -3.8463    3.1418    0.7933 H   0  0  0  0  0  0  0  0  0  0  0  0
   -4.0927    0.7184    1.2201 H   0  0  0  0  0  0  0  0  0  0  0  0
    0.0611   -2.2261    1.5722 H   0  0  0  0  0  0  0  0  0  0  0  0
    1.7785   -1.8010    5.5958 H   0  0  0  0  0  0  0  0  0  0  0  0
    0.6480   -1.6933    6.9264 H   0  0  0  0  0  0  0  0  0  0  0  0
    1.1659   -3.3534    6.2218 H   0  0  0  0  0  0  0  0  0  0  0  0
   -3.3748   -2.0667    3.9932 H   0  0  0  0  0  0  0  0  0  0  0  0
   -3.9128   -5.0316   -1.1209 H   0  0  0  0  0  0  0  0  0  0  0  0
   -4.2867   -3.9113   -4.7520 H   0  0  0  0  0  0  0  0  0  0  0  0
   -3.0635   -5.1008   -4.0840 H   0  0  0  0  0  0  0  0  0  0  0  0
   -4.7890   -5.2570   -3.5618 H   0  0  0  0  0  0  0  0  0  0  0  0
   -3.5324   -1.9449   -4.0094 H   0  0  0  0  0  0  0  0  0  0  0  0
   -2.7825   -0.4438   -2.1954 H   0  0  0  0  0  0  0  0  0  0  0  0
    3.1240   -0.3507   -2.4718 H   0  0  0  0  0  0  0  0  0  0  0  0
    5.3792   -0.9330   -2.3463 H   0  0  0  0  0  0  0  0  0  0  0  0
    4.2845   -3.2708    2.5481 H   0  0  0  0  0  0  0  0  0  0  0  0
    6.8215   -3.6431    2.7038 H   0  0  0  0  0  0  0  0  0  0  0  0
    7.2505   -1.2566   -1.9846 H   0  0  0  0  0  0  0  0  0  0  0  0
    8.4670   -1.5111   -0.6525 H   0  0  0  0  0  0  0  0  0  0  0  0
    7.2254   -0.2506   -0.4299 H   0  0  0  0  0  0  0  0  0  0  0  0
    2.3973   -2.2180    1.2725 H   0  0  0  0  0  0  0  0  0  0  0  0
  1  2  1  0
  2  3  1  0
  3  4  1  0
  3  5  1  0
  5  6  2  0
  5  7  1  0
  7  8  1  0
  8  9  2  0
  9 10  1  0
 10 11  2  0
 11 12  1  0
 12 13  2  0
 13 14  1  0
 14 15  2  0
 15 16  1  0
 16 17  2  0
 17 18  1  0
 17 19  1  0
 19 20  2  0
 13 21  1  0
 21 22  2  0
 22 23  1  0
 23 24  2  0
 24 25  1  0
 24 26  1  0
 26 27  2  0
 27 28  1  0
 11 29  1  0
 29 30  1  0
 30 31  3  0
 31 32  1  0
 32 33  2  0
 33 34  1  0
 34 35  2  0
 35 36  1  0
 36 37  1  0
 37 38  2  0
 38 39  1  0
 39 40  2  0
 39 41  1  0
 41 42  1  0
 36 43  2  0
 29 44  2  0
 44  8  1  0
 28 12  1  0
 43 32  1  0
 20 14  1  0
 28 22  1  0
 41 35  1  0
  1 45  1  0
  1 46  1  0
  1 47  1  0
  2 48  1  0
  3 49  1  1
  4 50  1  0
  4 51  1  0
  4 52  1  0
  7 53  1  0
  9 54  1  0
 10 55  1  0
 15 56  1  0
 18 57  1  0
 18 58  1  0
 18 59  1  0
 20 60  1  0
 23 61  1  0
 25 62  1  0
 25 63  1  0
 25 64  1  0
 26 65  1  0
 27 66  1  0
 33 67  1  0
 34 68  1  0
 37 69  1  0
 38 70  1  0
 42 71  1  0
 42 72  1  0
 42 73  1  0
 43 74  1  0
M  END
$$$$
