@<TRIPOS>MOLECULE
*****
 37 39 0 0 0
SMALL
GASTEIGER

@<TRIPOS>ATOM
      1 N          -6.5673   -0.7719    0.6088 N.3     1  UNL1       -0.2035
      2 S          -5.4586   -1.2328   -0.5908 S.O2    1  UNL1        0.0565
      3 O          -5.4280   -2.7468   -0.6226 O.2     1  UNL1       -0.1532
      4 O          -5.9261   -0.8292   -1.9797 O.2     1  UNL1       -0.1532
      5 C          -3.8482   -0.6610   -0.3845 C.ar    1  UNL1        0.1167
      6 C          -2.7936   -1.5478   -0.2240 C.ar    1  UNL1       -0.0341
      7 C          -1.4846   -1.1916   -0.0488 C.ar    1  UNL1       -0.0492
      8 C          -1.1366    0.1444   -0.0232 C.ar    1  UNL1        0.0179
      9 C          -2.1303    1.0548   -0.1758 C.ar    1  UNL1       -0.0375
     10 C          -3.4634    0.6650   -0.3532 C.ar    1  UNL1        0.0817
     11 C          -4.5215    1.6969   -0.5192 C.3     1  UNL1        0.4192
     12 F          -5.4726    1.6024    0.4827 F       1  UNL1       -0.1658
     13 F          -3.9427    2.9470   -0.3630 F       1  UNL1       -0.1658
     14 F          -5.0995    1.6734   -1.7720 F       1  UNL1       -0.1658
     15 C           0.2699    0.4770    0.1693 C.ar    1  UNL1        0.1357
     16 C           0.8884    1.7049    0.2154 C.ar    1  UNL1       -0.0153
     17 C           2.2302    1.4770    0.4181 C.ar    1  UNL1       -0.0158
     18 C           2.3935    0.1124    0.4902 C.ar    1  UNL1        0.1298
     19 O           1.2040   -0.4137    0.3361 O.2     1  UNL1       -0.4554
     20 C           3.5211   -0.7884    0.6856 C.2     1  UNL1       -0.0005
     21 C           4.7209   -0.6035    0.1610 C.2     1  UNL1        0.0808
     22 S           5.3412    0.7296   -0.9025 S.3     1  UNL1       -0.0494
     23 C           7.0759    0.5108   -0.4131 C.2     1  UNL1        0.1579
     24 N           8.0713    1.3220   -0.4143 N.2     1  UNL1       -0.2793
     25 N           7.1008   -0.8500    0.0062 N.am    1  UNL1       -0.2607
     26 C           5.8861   -1.4691    0.3158 C.2     1  UNL1        0.2565
     27 O           5.7961   -2.6807    0.6997 O.2     1  UNL1       -0.2692
     28 H          -7.0297   -1.6005    1.0892 H       1  UNL1        0.1442
     29 H          -7.3841   -0.2812    0.1421 H       1  UNL1        0.1442
     30 H          -3.0402   -2.6132   -0.2403 H       1  UNL1        0.0637
     31 H          -0.7431   -1.9983    0.0667 H       1  UNL1        0.0625
     32 H          -1.8898    2.1129   -0.1599 H       1  UNL1        0.0631
     33 H           0.4241    2.6633    0.1148 H       1  UNL1        0.0656
     34 H           3.0713    2.1391    0.5168 H       1  UNL1        0.0655
     35 H           3.4173   -1.6916    1.3047 H       1  UNL1        0.0667
     36 H           7.9063    2.2905   -0.7463 H       1  UNL1        0.1886
     37 H           8.0414   -1.3519    0.0696 H       1  UNL1        0.1571
@<TRIPOS>BOND
     1     1     2    1
     2     2     3    2
     3     2     4    2
     4     2     5    1
     5     5     6   ar
     6     6     7   ar
     7     7     8   ar
     8     8     9   ar
     9     9    10   ar
    10    10    11    1
    11    11    12    1
    12    11    13    1
    13    11    14    1
    14     8    15    1
    15    15    16   ar
    16    16    17   ar
    17    17    18   ar
    18    18    19   ar
    19    18    20    1
    20    20    21    2
    21    21    22    1
    22    22    23    1
    23    23    24    2
    24    23    25    1
    25    25    26   am
    26    26    27    2
    27    10     5   ar
    28    19    15   ar
    29    26    21    1
    30     1    28    1
    31     1    29    1
    32     6    30    1
    33     7    31    1
    34     9    32    1
    35    16    33    1
    36    17    34    1
    37    20    35    1
    38    24    36    1
    39    25    37    1
