
     RDKit          3D

 37 39  0  0  0  0  0  0  0  0999 V2000
   -6.5673   -0.7719    0.6088 N   0  0  0  0  0  0  0  0  0  0  0  0
   -5.4586   -1.2328   -0.5908 S   0  0  0  0  0  0  0  0  0  0  0  0
   -5.4280   -2.7468   -0.6226 O   0  0  0  0  0  0  0  0  0  0  0  0
   -5.9261   -0.8292   -1.9797 O   0  0  0  0  0  0  0  0  0  0  0  0
   -3.8482   -0.6610   -0.3845 C   0  0  0  0  0  0  0  0  0  0  0  0
   -2.7936   -1.5478   -0.2240 C   0  0  0  0  0  0  0  0  0  0  0  0
   -1.4846   -1.1916   -0.0488 C   0  0  0  0  0  0  0  0  0  0  0  0
   -1.1366    0.1444   -0.0232 C   0  0  0  0  0  0  0  0  0  0  0  0
   -2.1303    1.0548   -0.1758 C   0  0  0  0  0  0  0  0  0  0  0  0
   -3.4634    0.6650   -0.3532 C   0  0  0  0  0  0  0  0  0  0  0  0
   -4.5215    1.6969   -0.5192 C   0  0  0  0  0  0  0  0  0  0  0  0
   -5.4726    1.6024    0.4827 F   0  0  0  0  0  0  0  0  0  0  0  0
   -3.9427    2.9470   -0.3630 F   0  0  0  0  0  0  0  0  0  0  0  0
   -5.0995    1.6734   -1.7720 F   0  0  0  0  0  0  0  0  0  0  0  0
    0.2699    0.4770    0.1693 C   0  0  0  0  0  0  0  0  0  0  0  0
    0.8884    1.7049    0.2154 C   0  0  0  0  0  0  0  0  0  0  0  0
    2.2302    1.4770    0.4181 C   0  0  0  0  0  0  0  0  0  0  0  0
    2.3935    0.1124    0.4902 C   0  0  0  0  0  0  0  0  0  0  0  0
    1.2040   -0.4137    0.3361 O   0  0  0  0  0  0  0  0  0  0  0  0
    3.5211   -0.7884    0.6856 C   0  0  0  0  0  0  0  0  0  0  0  0
    4.7209   -0.6035    0.1610 C   0  0  0  0  0  0  0  0  0  0  0  0
    5.3412    0.7296   -0.9025 S   0  0  0  0  0  0  0  0  0  0  0  0
    7.0759    0.5108   -0.4131 C   0  0  0  0  0  0  0  0  0  0  0  0
    8.0713    1.3220   -0.4143 N   0  0  0  0  0  0  0  0  0  0  0  0
    7.1008   -0.8500    0.0062 N   0  0  0  0  0  0  0  0  0  0  0  0
    5.8861   -1.4691    0.3158 C   0  0  0  0  0  0  0  0  0  0  0  0
    5.7961   -2.6807    0.6997 O   0  0  0  0  0  0  0  0  0  0  0  0
   -7.0297   -1.6005    1.0892 H   0  0  0  0  0  0  0  0  0  0  0  0
   -7.3841   -0.2812    0.1421 H   0  0  0  0  0  0  0  0  0  0  0  0
   -3.0402   -2.6132   -0.2403 H   0  0  0  0  0  0  0  0  0  0  0  0
   -0.7431   -1.9983    0.0667 H   0  0  0  0  0  0  0  0  0  0  0  0
   -1.8898    2.1129   -0.1599 H   0  0  0  0  0  0  0  0  0  0  0  0
    0.4241    2.6633    0.1148 H   0  0  0  0  0  0  0  0  0  0  0  0
    3.0713    2.1391    0.5168 H   0  0  0  0  0  0  0  0  0  0  0  0
    3.4173   -1.6916    1.3047 H   0  0  0  0  0  0  0  0  0  0  0  0
    7.9063    2.2905   -0.7463 H   0  0  0  0  0  0  0  0  0  0  0  0
    8.0414   -1.3519    0.0696 H   0  0  0  0  0  0  0  0  0  0  0  0
  1  2  1  0
  2  3  2  0
  2  4  2  0
  2  5  1  0
  5  6  2  0
  6  7  1  0
  7  8  2  0
  8  9  1  0
  9 10  2  0
 10 11  1  0
 11 12  1  0
 11 13  1  0
 11 14  1  0
  8 15  1  0
 15 16  2  0
 16 17  1  0
 17 18  2  0
 18 19  1  0
 18 20  1  0
 20 21  2  0
 21 22  1  0
 22 23  1  0
 23 24  2  3
 23 25  1  0
 25 26  1  0
 26 27  2  0
 10  5  1  0
 19 15  1  0
 26 21  1  0
  1 28  1  0
  1 29  1  0
  6 30  1  0
  7 31  1  0
  9 32  1  0
 16 33  1  0
 17 34  1  0
 20 35  1  0
 24 36  1  0
 25 37  1  0
M  END
$$$$
