@<TRIPOS>MOLECULE
*****
 44 48 0 0 0
SMALL
GASTEIGER

@<TRIPOS>ATOM
      1 C           4.2340    0.3774   -4.9473 C.3     1  UNL1        0.0125
      2 C           3.1767    1.0465   -4.0629 C.2     1  UNL1        0.2141
      3 O           2.0952    1.4596   -4.3959 O.2     1  UNL1       -0.2758
      4 N           3.6298    1.1525   -2.6906 N.am    1  UNL1       -0.2857
      5 C           2.8472    1.8714   -1.7080 C.ar    1  UNL1        0.0354
      6 C           3.0960    3.1507   -1.4945 C.ar    1  UNL1       -0.0397
      7 C           2.3859    3.7717   -0.2983 C.ar    1  UNL1       -0.0493
      8 C           1.6005    2.9696    0.3741 C.ar    1  UNL1        0.0203
      9 C           0.7869    3.2611    1.5198 C.ar    1  UNL1        0.0576
     10 N           0.1348    2.1515    1.8644 N.ar    1  UNL1       -0.1723
     11 N           0.4603    1.1263    1.0233 N.ar    1  UNL1       -0.2138
     12 C          -0.1901   -0.1217    1.2422 C.ar    1  UNL1        0.1602
     13 C          -1.4643   -0.3737    0.7357 C.ar    1  UNL1        0.0225
     14 C          -2.1840   -1.5086    1.0875 C.ar    1  UNL1        0.1263
     15 N          -3.4491   -1.8257    0.5020 N.pl3   1  UNL1       -0.3260
     16 C          -4.0375   -0.7947   -0.2798 C.3     1  UNL1        0.0221
     17 C          -4.4657   -0.6671   -1.6645 C.3     1  UNL1       -0.0329
     18 C          -5.4997   -0.9816   -0.6178 C.3     1  UNL1       -0.0329
     19 N          -1.6796   -2.4083    1.9384 N.ar    1  UNL1       -0.1992
     20 N          -2.1233   -3.5186    2.5586 N.ar    1  UNL1       -0.1704
     21 C          -1.1660   -3.9894    3.4465 C.ar    1  UNL1        0.0694
     22 C          -0.0624   -3.1210    3.3715 C.ar    1  UNL1        0.1156
     23 C           1.2111   -3.2534    4.1292 C.1     1  UNL1        0.1045
     24 N           2.2905   -3.3544    4.7508 N.1     1  UNL1       -0.1907
     25 C          -0.3963   -2.1828    2.4579 C.ar    1  UNL1        0.1771
     26 N           0.1794   -1.0939    2.0504 N.ar    1  UNL1       -0.2075
     27 C           1.3085    1.6097    0.1682 C.ar    1  UNL1        0.0780
     28 C           1.9520    1.0716   -0.8892 C.ar    1  UNL1       -0.0143
     29 H           3.9078   -0.4690   -5.4665 H       1  UNL1        0.0323
     30 H           4.5367    1.2324   -5.6459 H       1  UNL1        0.0323
     31 H           5.2000    0.2728   -4.3491 H       1  UNL1        0.0323
     32 H           4.5204    0.6770   -2.3319 H       1  UNL1        0.1548
     33 H           3.6700    3.8208   -2.0194 H       1  UNL1        0.0636
     34 H           2.6353    4.7869   -0.1497 H       1  UNL1        0.0625
     35 H           0.7484    4.2446    1.9699 H       1  UNL1        0.0854
     36 H          -1.9178    0.2867    0.0254 H       1  UNL1        0.0689
     37 H          -3.8651   -2.7426    0.6378 H       1  UNL1        0.1477
     38 H          -3.8691    0.2767    0.2005 H       1  UNL1        0.0498
     39 H          -4.2282   -1.4568   -2.3932 H       1  UNL1        0.0284
     40 H          -4.4704    0.3461   -2.1617 H       1  UNL1        0.0284
     41 H          -6.2669   -0.2582   -0.4035 H       1  UNL1        0.0284
     42 H          -5.8430   -2.0591   -0.5879 H       1  UNL1        0.0284
     43 H          -1.2462   -4.8373    4.1017 H       1  UNL1        0.0862
     44 H           1.8172    0.0543   -1.1855 H       1  UNL1        0.0657
@<TRIPOS>BOND
     1     1     2    1
     2     2     3    2
     3     2     4   am
     4     4     5    1
     5     5     6   ar
     6     6     7   ar
     7     7     8   ar
     8     8     9   ar
     9     9    10   ar
    10    10    11   ar
    11    11    12    1
    12    12    13   ar
    13    13    14   ar
    14    14    15    1
    15    15    16    1
    16    16    17    1
    17    17    18    1
    18    14    19   ar
    19    19    20   ar
    20    20    21   ar
    21    21    22   ar
    22    22    23    1
    23    23    24    3
    24    22    25   ar
    25    25    26   ar
    26    11    27   ar
    27    27    28   ar
    28    28     5   ar
    29    27     8   ar
    30    26    12   ar
    31    18    16    1
    32    25    19   ar
    33     1    29    1
    34     1    30    1
    35     1    31    1
    36     4    32    1
    37     6    33    1
    38     7    34    1
    39     9    35    1
    40    13    36    1
    41    15    37    1
    42    16    38    1
    43    17    39    1
    44    17    40    1
    45    18    41    1
    46    18    42    1
    47    21    43    1
    48    28    44    1
