
     RDKit          3D

 44 48  0  0  0  0  0  0  0  0999 V2000
    4.2340    0.3774   -4.9473 C   0  0  0  0  0  0  0  0  0  0  0  0
    3.1767    1.0465   -4.0629 C   0  0  0  0  0  0  0  0  0  0  0  0
    2.0952    1.4596   -4.3959 O   0  0  0  0  0  0  0  0  0  0  0  0
    3.6298    1.1525   -2.6906 N   0  0  0  0  0  0  0  0  0  0  0  0
    2.8472    1.8714   -1.7080 C   0  0  0  0  0  0  0  0  0  0  0  0
    3.0960    3.1507   -1.4945 C   0  0  0  0  0  0  0  0  0  0  0  0
    2.3859    3.7717   -0.2983 C   0  0  0  0  0  0  0  0  0  0  0  0
    1.6005    2.9696    0.3741 C   0  0  0  0  0  0  0  0  0  0  0  0
    0.7869    3.2611    1.5198 C   0  0  0  0  0  0  0  0  0  0  0  0
    0.1348    2.1515    1.8644 N   0  0  0  0  0  0  0  0  0  0  0  0
    0.4603    1.1263    1.0233 N   0  0  0  0  0  0  0  0  0  0  0  0
   -0.1901   -0.1217    1.2422 C   0  0  0  0  0  0  0  0  0  0  0  0
   -1.4643   -0.3737    0.7357 C   0  0  0  0  0  0  0  0  0  0  0  0
   -2.1840   -1.5086    1.0875 C   0  0  0  0  0  0  0  0  0  0  0  0
   -3.4491   -1.8257    0.5020 N   0  0  0  0  0  0  0  0  0  0  0  0
   -4.0375   -0.7947   -0.2798 C   0  0  0  0  0  0  0  0  0  0  0  0
   -4.4657   -0.6671   -1.6645 C   0  0  0  0  0  0  0  0  0  0  0  0
   -5.4997   -0.9816   -0.6178 C   0  0  0  0  0  0  0  0  0  0  0  0
   -1.6796   -2.4083    1.9384 N   0  0  0  0  0  0  0  0  0  0  0  0
   -2.1233   -3.5186    2.5586 N   0  0  0  0  0  0  0  0  0  0  0  0
   -1.1660   -3.9894    3.4465 C   0  0  0  0  0  0  0  0  0  0  0  0
   -0.0624   -3.1210    3.3715 C   0  0  0  0  0  0  0  0  0  0  0  0
    1.2111   -3.2534    4.1292 C   0  0  0  0  0  0  0  0  0  0  0  0
    2.2905   -3.3544    4.7508 N   0  0  0  0  0  0  0  0  0  0  0  0
   -0.3963   -2.1828    2.4579 C   0  0  0  0  0  0  0  0  0  0  0  0
    0.1794   -1.0939    2.0504 N   0  0  0  0  0  0  0  0  0  0  0  0
    1.3085    1.6097    0.1682 C   0  0  0  0  0  0  0  0  0  0  0  0
    1.9520    1.0716   -0.8892 C   0  0  0  0  0  0  0  0  0  0  0  0
    3.9078   -0.4690   -5.4665 H   0  0  0  0  0  0  0  0  0  0  0  0
    4.5367    1.2324   -5.6459 H   0  0  0  0  0  0  0  0  0  0  0  0
    5.2000    0.2728   -4.3491 H   0  0  0  0  0  0  0  0  0  0  0  0
    4.5204    0.6770   -2.3319 H   0  0  0  0  0  0  0  0  0  0  0  0
    3.6700    3.8208   -2.0194 H   0  0  0  0  0  0  0  0  0  0  0  0
    2.6353    4.7869   -0.1497 H   0  0  0  0  0  0  0  0  0  0  0  0
    0.7484    4.2446    1.9699 H   0  0  0  0  0  0  0  0  0  0  0  0
   -1.9178    0.2867    0.0254 H   0  0  0  0  0  0  0  0  0  0  0  0
   -3.8651   -2.7426    0.6378 H   0  0  0  0  0  0  0  0  0  0  0  0
   -3.8691    0.2767    0.2005 H   0  0  0  0  0  0  0  0  0  0  0  0
   -4.2282   -1.4568   -2.3932 H   0  0  0  0  0  0  0  0  0  0  0  0
   -4.4704    0.3461   -2.1617 H   0  0  0  0  0  0  0  0  0  0  0  0
   -6.2669   -0.2582   -0.4035 H   0  0  0  0  0  0  0  0  0  0  0  0
   -5.8430   -2.0591   -0.5879 H   0  0  0  0  0  0  0  0  0  0  0  0
   -1.2462   -4.8373    4.1017 H   0  0  0  0  0  0  0  0  0  0  0  0
    1.8172    0.0543   -1.1855 H   0  0  0  0  0  0  0  0  0  0  0  0
  1  2  1  0
  2  3  2  0
  2  4  1  0
  4  5  1  0
  5  6  2  0
  6  7  1  0
  7  8  2  0
  8  9  1  0
  9 10  2  0
 10 11  1  0
 11 12  1  0
 12 13  1  0
 13 14  2  0
 14 15  1  0
 15 16  1  0
 16 17  1  0
 17 18  1  0
 14 19  1  0
 19 20  1  0
 20 21  2  0
 21 22  1  0
 22 23  1  0
 23 24  3  0
 22 25  2  0
 25 26  1  0
 11 27  1  0
 27 28  2  0
 28  5  1  0
 27  8  1  0
 26 12  2  0
 18 16  1  0
 25 19  1  0
  1 29  1  0
  1 30  1  0
  1 31  1  0
  4 32  1  0
  6 33  1  0
  7 34  1  0
  9 35  1  0
 13 36  1  0
 15 37  1  0
 16 38  1  0
 17 39  1  0
 17 40  1  0
 18 41  1  0
 18 42  1  0
 21 43  1  0
 28 44  1  0
M  END
$$$$
