@<TRIPOS>MOLECULE
*****
 52 56 0 0 0
SMALL
GASTEIGER

@<TRIPOS>ATOM
      1 C           3.1734    1.8916   -0.7378 C.3     1  UNL1       -0.0424
      2 C           3.4149    0.6371   -1.5343 C.3     1  UNL1        0.0457
      3 N           2.1329    0.0448   -1.8253 N.pl3   1  UNL1       -0.3069
      4 C           1.2273   -0.2587   -0.7631 C.ar    1  UNL1        0.2162
      5 N           1.6459   -1.0162    0.2610 N.ar    1  UNL1       -0.2229
      6 C           0.8605   -1.3384    1.3066 C.ar    1  UNL1        0.0333
      7 C          -0.4285   -0.8601    1.3092 C.ar    1  UNL1       -0.0159
      8 C          -0.8934   -0.0823    0.2777 C.ar    1  UNL1        0.0948
      9 C          -2.2529    0.4801    0.2196 C.ar    1  UNL1        0.1008
     10 C          -3.4512   -0.1691    0.2319 C.ar    1  UNL1        0.1007
     11 C          -3.6860   -1.6087    0.3481 C.ar    1  UNL1        0.0027
     12 C          -3.6419   -2.2396    1.5886 C.ar    1  UNL1       -0.0498
     13 C          -3.8662   -3.5871    1.7381 C.ar    1  UNL1       -0.0258
     14 C          -4.1419   -4.3290    0.6243 C.ar    1  UNL1        0.1234
     15 F          -4.3785   -5.6658    0.6621 F       1  UNL1       -0.2055
     16 C          -4.1924   -3.7353   -0.6175 C.ar    1  UNL1       -0.0258
     17 C          -3.9658   -2.3912   -0.7456 C.ar    1  UNL1       -0.0498
     18 N          -4.3914    0.8085    0.1287 N.ar    1  UNL1       -0.2096
     19 C          -3.7974    2.0108    0.0564 C.ar    1  UNL1        0.2376
     20 N          -4.2472    3.2753   -0.0568 N.ar    1  UNL1       -0.1972
     21 C          -3.4585    4.3636   -0.1185 C.ar    1  UNL1        0.1214
     22 N          -3.9762    5.6798   -0.2430 N.pl3   1  UNL1       -0.3430
     23 C          -2.0895    4.1729   -0.0614 C.ar    1  UNL1       -0.0054
     24 C          -1.6262    2.8829    0.0543 C.ar    1  UNL1        0.0165
     25 N          -2.4655    1.8328    0.1112 N.ar    1  UNL1       -0.2814
     26 N          -0.0184    0.1878   -0.7361 N.ar    1  UNL1       -0.2129
     27 C           4.3464   -0.2314   -0.8153 C.ar    1  UNL1       -0.0275
     28 C           4.5776   -1.5350   -1.2451 C.ar    1  UNL1       -0.0568
     29 C           5.4574   -2.3429   -0.5599 C.ar    1  UNL1       -0.0614
     30 C           6.1379   -1.9155    0.5576 C.ar    1  UNL1       -0.0617
     31 C           5.9055   -0.6183    0.9823 C.ar    1  UNL1       -0.0614
     32 C           5.0270    0.1968    0.3033 C.ar    1  UNL1       -0.0568
     33 H           2.9371    1.6199    0.3325 H       1  UNL1        0.0251
     34 H           2.2916    2.4599   -1.1011 H       1  UNL1        0.0251
     35 H           4.1079    2.4875   -0.7292 H       1  UNL1        0.0251
     36 H           3.8504    0.9237   -2.5355 H       1  UNL1        0.0545
     37 H           1.8340   -0.1747   -2.7954 H       1  UNL1        0.1495
     38 H           1.2719   -1.9543    2.0948 H       1  UNL1        0.0831
     39 H          -1.0552   -1.1082    2.1427 H       1  UNL1        0.0655
     40 H          -3.4238   -1.6372    2.4532 H       1  UNL1        0.0625
     41 H          -3.8298   -4.0804    2.7156 H       1  UNL1        0.0646
     42 H          -4.4164   -4.3470   -1.5146 H       1  UNL1        0.0646
     43 H          -4.0021   -1.9035   -1.7288 H       1  UNL1        0.0625
     44 H          -4.3544    5.9694   -1.1701 H       1  UNL1        0.1437
     45 H          -3.9851    6.3412    0.5555 H       1  UNL1        0.1437
     46 H          -1.4185    5.0323   -0.1079 H       1  UNL1        0.0666
     47 H          -0.5640    2.7075    0.1022 H       1  UNL1        0.0815
     48 H           4.0556   -1.9123   -2.1274 H       1  UNL1        0.0621
     49 H           5.5936   -3.3491   -0.9468 H       1  UNL1        0.0618
     50 H           6.8285   -2.5385    1.0999 H       1  UNL1        0.0618
     51 H           6.4437   -0.2864    1.8654 H       1  UNL1        0.0618
     52 H           4.8973    1.2101    0.7043 H       1  UNL1        0.0621
@<TRIPOS>BOND
     1     1     2    1
     2     2     3    1
     3     3     4    1
     4     4     5   ar
     5     5     6   ar
     6     6     7   ar
     7     7     8   ar
     8     8     9    1
     9     9    10   ar
    10    10    11    1
    11    11    12   ar
    12    12    13   ar
    13    13    14   ar
    14    14    15    1
    15    14    16   ar
    16    16    17   ar
    17    10    18   ar
    18    18    19   ar
    19    19    20   ar
    20    20    21   ar
    21    21    22    1
    22    21    23   ar
    23    23    24   ar
    24    24    25   ar
    25     8    26   ar
    26     2    27    1
    27    27    28   ar
    28    28    29   ar
    29    29    30   ar
    30    30    31   ar
    31    31    32   ar
    32    26     4   ar
    33    32    27   ar
    34    25     9   ar
    35    17    11   ar
    36    25    19   ar
    37     1    33    1
    38     1    34    1
    39     1    35    1
    40     2    36    1
    41     3    37    1
    42     6    38    1
    43     7    39    1
    44    12    40    1
    45    13    41    1
    46    16    42    1
    47    17    43    1
    48    22    44    1
    49    22    45    1
    50    23    46    1
    51    24    47    1
    52    28    48    1
    53    29    49    1
    54    30    50    1
    55    31    51    1
    56    32    52    1
