
     RDKit          3D

 56 60  0  0  0  0  0  0  0  0999 V2000
    1.0733   -1.8510    3.2505 C   0  0  0  0  0  0  0  0  0  0  0  0
    0.1745   -1.6854    2.1691 O   0  0  0  0  0  0  0  0  0  0  0  0
    0.6337   -1.1727    0.9628 C   0  0  0  0  0  0  0  0  0  0  0  0
    1.9549   -0.8111    0.7708 C   0  0  0  0  0  0  0  0  0  0  0  0
    2.4296   -0.3070   -0.4000 C   0  0  0  0  0  0  0  0  0  0  0  0
    3.7402    0.0437   -0.5664 C   0  0  0  0  0  0  0  0  0  0  0  0
    4.6971   -0.0862    0.4484 N   0  0  0  0  0  0  0  0  0  0  0  0
    6.0417    0.3007    0.1966 C   0  0  0  0  0  0  0  0  0  0  0  0
    6.6531    1.2792    0.9318 C   0  0  0  0  0  0  0  0  0  0  0  0
    7.9779    1.6412    0.6635 C   0  0  0  0  0  0  0  0  0  0  0  0
    8.6939    1.0263   -0.3395 C   0  0  0  0  0  0  0  0  0  0  0  0
   10.3684    1.4928   -0.6691 Cl  0  0  0  0  0  0  0  0  0  0  0  0
    8.0750    0.0415   -1.0777 C   0  0  0  0  0  0  0  0  0  0  0  0
    8.9927   -0.7325   -2.3483 Cl  0  0  0  0  0  0  0  0  0  0  0  0
    6.7487   -0.3196   -0.8077 C   0  0  0  0  0  0  0  0  0  0  0  0
    6.1461   -1.2895   -1.5381 F   0  0  0  0  0  0  0  0  0  0  0  0
    4.1104    0.5401   -1.7835 N   0  0  0  0  0  0  0  0  0  0  0  0
    3.2755    0.6985   -2.8017 C   0  0  0  0  0  0  0  0  0  0  0  0
    1.9925    0.3515   -2.6279 N   0  0  0  0  0  0  0  0  0  0  0  0
    1.5532   -0.1483   -1.4462 C   0  0  0  0  0  0  0  0  0  0  0  0
    0.2201   -0.5078   -1.2688 C   0  0  0  0  0  0  0  0  0  0  0  0
   -0.2757   -1.0173   -0.0949 C   0  0  0  0  0  0  0  0  0  0  0  0
   -1.5476   -1.3713    0.1123 O   0  0  0  0  0  0  0  0  0  0  0  0
   -2.7148   -1.3817   -0.5812 C   0  0  0  0  0  0  0  0  0  0  0  0
   -3.2714   -0.0754   -1.0596 C   0  0  2  0  0  0  0  0  0  0  0  0
   -3.5712    0.8614    0.0656 C   0  0  0  0  0  0  0  0  0  0  0  0
   -4.9180    0.9276    0.5007 N   0  0  0  0  0  0  0  0  0  0  0  0
   -5.7118    1.8829   -0.2473 C   0  0  0  0  0  0  0  0  0  0  0  0
   -7.1211    1.3705   -0.2736 C   0  0  0  0  0  0  0  0  0  0  0  0
   -7.0857    0.1741    0.6608 C   0  0  0  0  0  0  0  0  0  0  0  0
   -5.6435   -0.3030    0.4450 C   0  0  1  0  0  0  0  0  0  0  0  0
   -5.5975   -0.8338   -0.9490 C   0  0  0  0  0  0  0  0  0  0  0  0
   -6.4623   -1.6382   -1.3992 O   0  0  0  0  0  0  0  0  0  0  0  0
   -4.5213   -0.3876   -1.7614 N   0  0  0  0  0  0  0  0  0  0  0  0
    0.5473   -2.0829    4.1959 H   0  0  0  0  0  0  0  0  0  0  0  0
    1.7813   -2.6826    3.0647 H   0  0  0  0  0  0  0  0  0  0  0  0
    1.6973   -0.9413    3.4106 H   0  0  0  0  0  0  0  0  0  0  0  0
    2.6239   -0.9409    1.5941 H   0  0  0  0  0  0  0  0  0  0  0  0
    4.5451   -0.4447    1.4046 H   0  0  0  0  0  0  0  0  0  0  0  0
    6.0885    1.7554    1.7135 H   0  0  0  0  0  0  0  0  0  0  0  0
    8.4653    2.4102    1.2379 H   0  0  0  0  0  0  0  0  0  0  0  0
    3.6699    1.1023   -3.7301 H   0  0  0  0  0  0  0  0  0  0  0  0
   -0.4115   -0.3659   -2.1324 H   0  0  0  0  0  0  0  0  0  0  0  0
   -2.5906   -2.0899   -1.4572 H   0  0  0  0  0  0  0  0  0  0  0  0
   -3.4990   -1.9073    0.0392 H   0  0  0  0  0  0  0  0  0  0  0  0
   -2.5836    0.3788   -1.7826 H   0  0  0  0  0  0  0  0  0  0  0  0
   -2.8807    0.6552    0.9213 H   0  0  0  0  0  0  0  0  0  0  0  0
   -3.2781    1.8968   -0.2771 H   0  0  0  0  0  0  0  0  0  0  0  0
   -5.7191    2.8242    0.3758 H   0  0  0  0  0  0  0  0  0  0  0  0
   -5.3009    2.0933   -1.2449 H   0  0  0  0  0  0  0  0  0  0  0  0
   -7.8609    2.0888    0.1430 H   0  0  0  0  0  0  0  0  0  0  0  0
   -7.4173    0.9889   -1.2792 H   0  0  0  0  0  0  0  0  0  0  0  0
   -7.8176   -0.6005    0.3962 H   0  0  0  0  0  0  0  0  0  0  0  0
   -7.1550    0.4788    1.7321 H   0  0  0  0  0  0  0  0  0  0  0  0
   -5.3975   -1.0368    1.2085 H   0  0  0  0  0  0  0  0  0  0  0  0
   -4.6176   -0.2927   -2.7797 H   0  0  0  0  0  0  0  0  0  0  0  0
  1  2  1  0
  2  3  1  0
  3  4  2  0
  4  5  1  0
  5  6  2  0
  6  7  1  0
  7  8  1  0
  8  9  2  0
  9 10  1  0
 10 11  2  0
 11 12  1  0
 11 13  1  0
 13 14  1  0
 13 15  2  0
 15 16  1  0
  6 17  1  0
 17 18  2  0
 18 19  1  0
 19 20  2  0
 20 21  1  0
 21 22  2  0
 22 23  1  0
 23 24  1  0
 24 25  1  0
 25 26  1  0
 26 27  1  0
 27 28  1  0
 28 29  1  0
 29 30  1  0
 30 31  1  0
 31 32  1  0
 32 33  2  0
 32 34  1  0
 22  3  1  0
 34 25  1  0
 20  5  1  0
 31 27  1  0
 15  8  1  0
  1 35  1  0
  1 36  1  0
  1 37  1  0
  4 38  1  0
  7 39  1  0
  9 40  1  0
 10 41  1  0
 18 42  1  0
 21 43  1  0
 24 44  1  0
 24 45  1  0
 25 46  1  6
 26 47  1  0
 26 48  1  0
 28 49  1  0
 28 50  1  0
 29 51  1  0
 29 52  1  0
 30 53  1  0
 30 54  1  0
 31 55  1  1
 34 56  1  0
M  END
$$$$
