@<TRIPOS>MOLECULE
*****
 56 60 0 0 0
SMALL
GASTEIGER

@<TRIPOS>ATOM
      1 C           1.0733   -1.8510    3.2505 C.3     1  UNL1        0.0790
      2 O           0.1745   -1.6854    2.1691 O.3     1  UNL1       -0.4914
      3 C           0.6337   -1.1727    0.9628 C.ar    1  UNL1        0.1623
      4 C           1.9549   -0.8111    0.7708 C.ar    1  UNL1       -0.0038
      5 C           2.4296   -0.3070   -0.4000 C.ar    1  UNL1        0.0441
      6 C           3.7402    0.0437   -0.5664 C.ar    1  UNL1        0.1340
      7 N           4.6971   -0.0862    0.4484 N.pl3   1  UNL1       -0.2966
      8 C           6.0417    0.3007    0.1966 C.ar    1  UNL1        0.0696
      9 C           6.6531    1.2792    0.9318 C.ar    1  UNL1       -0.0362
     10 C           7.9779    1.6412    0.6635 C.ar    1  UNL1       -0.0400
     11 C           8.6939    1.0263   -0.3395 C.ar    1  UNL1        0.0622
     12 CL         10.3684    1.4928   -0.6691 Cl      1  UNL1       -0.0819
     13 C           8.0750    0.0415   -1.0777 C.ar    1  UNL1        0.0962
     14 CL          8.9927   -0.7325   -2.3483 Cl      1  UNL1       -0.0790
     15 C           6.7487   -0.3196   -0.8077 C.ar    1  UNL1        0.1641
     16 F           6.1461   -1.2895   -1.5381 F       1  UNL1       -0.2020
     17 N           4.1104    0.5401   -1.7835 N.ar    1  UNL1       -0.2200
     18 C           3.2755    0.6985   -2.8017 C.ar    1  UNL1        0.1187
     19 N           1.9925    0.3515   -2.6279 N.ar    1  UNL1       -0.2352
     20 C           1.5532   -0.1483   -1.4462 C.ar    1  UNL1        0.0797
     21 C           0.2201   -0.5078   -1.2688 C.ar    1  UNL1        0.0098
     22 C          -0.2757   -1.0173   -0.0949 C.ar    1  UNL1        0.1640
     23 O          -1.5476   -1.3713    0.1123 O.3     1  UNL1       -0.4864
     24 C          -2.7148   -1.3817   -0.5812 C.3     1  UNL1        0.1092
     25 C          -3.2714   -0.0754   -1.0596 C.3     1  UNL1        0.0699
     26 C          -3.5712    0.8614    0.0656 C.3     1  UNL1        0.0212
     27 N          -4.9180    0.9276    0.5007 N.3     1  UNL1       -0.2896
     28 C          -5.7118    1.8829   -0.2473 C.3     1  UNL1       -0.0003
     29 C          -7.1211    1.3705   -0.2736 C.3     1  UNL1       -0.0383
     30 C          -7.0857    0.1741    0.6608 C.3     1  UNL1       -0.0277
     31 C          -5.6435   -0.3030    0.4450 C.3     1  UNL1        0.0873
     32 C          -5.5975   -0.8338   -0.9490 C.2     1  UNL1        0.2306
     33 O          -6.4623   -1.6382   -1.3992 O.2     1  UNL1       -0.2741
     34 N          -4.5213   -0.3876   -1.7614 N.am    1  UNL1       -0.3067
     35 H           0.5473   -2.0829    4.1959 H       1  UNL1        0.0660
     36 H           1.7813   -2.6826    3.0647 H       1  UNL1        0.0660
     37 H           1.6973   -0.9413    3.4106 H       1  UNL1        0.0660
     38 H           2.6239   -0.9409    1.5941 H       1  UNL1        0.0663
     39 H           4.5451   -0.4447    1.4046 H       1  UNL1        0.1537
     40 H           6.0885    1.7554    1.7135 H       1  UNL1        0.0637
     41 H           8.4653    2.4102    1.2379 H       1  UNL1        0.0633
     42 H           3.6699    1.1023   -3.7301 H       1  UNL1        0.1048
     43 H          -0.4115   -0.3659   -2.1324 H       1  UNL1        0.0677
     44 H          -2.5906   -2.0899   -1.4572 H       1  UNL1        0.0716
     45 H          -3.4990   -1.9073    0.0392 H       1  UNL1        0.0716
     46 H          -2.5836    0.3788   -1.7826 H       1  UNL1        0.0544
     47 H          -2.8807    0.6552    0.9213 H       1  UNL1        0.0446
     48 H          -3.2781    1.8968   -0.2771 H       1  UNL1        0.0446
     49 H          -5.7191    2.8242    0.3758 H       1  UNL1        0.0427
     50 H          -5.3009    2.0933   -1.2449 H       1  UNL1        0.0427
     51 H          -7.8609    2.0888    0.1430 H       1  UNL1        0.0278
     52 H          -7.4173    0.9889   -1.2792 H       1  UNL1        0.0278
     53 H          -7.8176   -0.6005    0.3962 H       1  UNL1        0.0285
     54 H          -7.1550    0.4788    1.7321 H       1  UNL1        0.0285
     55 H          -5.3975   -1.0368    1.2085 H       1  UNL1        0.0558
     56 H          -4.6176   -0.2927   -2.7797 H       1  UNL1        0.1492
@<TRIPOS>BOND
     1     1     2    1
     2     2     3    1
     3     3     4   ar
     4     4     5   ar
     5     5     6   ar
     6     6     7    1
     7     7     8    1
     8     8     9   ar
     9     9    10   ar
    10    10    11   ar
    11    11    12    1
    12    11    13   ar
    13    13    14    1
    14    13    15   ar
    15    15    16    1
    16     6    17   ar
    17    17    18   ar
    18    18    19   ar
    19    19    20   ar
    20    20    21   ar
    21    21    22   ar
    22    22    23    1
    23    23    24    1
    24    24    25    1
    25    25    26    1
    26    26    27    1
    27    27    28    1
    28    28    29    1
    29    29    30    1
    30    30    31    1
    31    31    32    1
    32    32    33    2
    33    32    34   am
    34    22     3   ar
    35    34    25    1
    36    20     5   ar
    37    31    27    1
    38    15     8   ar
    39     1    35    1
    40     1    36    1
    41     1    37    1
    42     4    38    1
    43     7    39    1
    44     9    40    1
    45    10    41    1
    46    18    42    1
    47    21    43    1
    48    24    44    1
    49    24    45    1
    50    25    46    1
    51    26    47    1
    52    26    48    1
    53    28    49    1
    54    28    50    1
    55    29    51    1
    56    29    52    1
    57    30    53    1
    58    30    54    1
    59    31    55    1
    60    34    56    1
