@<TRIPOS>MOLECULE
*****
 56 59 0 0 0
SMALL
GASTEIGER

@<TRIPOS>ATOM
      1 C           9.1267    0.8670    1.2666 C.3     1  UNL1       -0.0639
      2 C           7.6946    0.9371    0.7755 C.3     1  UNL1       -0.0402
      3 C           7.3715   -0.3544    0.0803 C.3     1  UNL1        0.0116
      4 N           6.0517   -0.4410   -0.4537 N.am    1  UNL1       -0.3113
      5 C           4.8336   -0.3525    0.2685 C.2     1  UNL1        0.2459
      6 O           4.8956   -0.1746    1.5104 O.2     1  UNL1       -0.2701
      7 C           3.5385   -0.4718   -0.4517 C.ar    1  UNL1        0.0598
      8 C           3.3919   -0.3906   -1.8107 C.ar    1  UNL1        0.0423
      9 N           2.1024   -0.5487   -2.1159 N.ar    1  UNL1       -0.2342
     10 N           1.4820   -0.5469   -3.2881 N.ar    1  UNL1       -0.1548
     11 C           0.1676   -0.7188   -3.4175 C.ar    1  UNL1        0.1388
     12 N          -0.5445   -0.9016   -2.3132 N.ar    1  UNL1       -0.2167
     13 C           0.0444   -0.9137   -1.0730 C.ar    1  UNL1        0.1506
     14 N          -0.7830   -1.1610    0.0470 N.pl3   1  UNL1       -0.2975
     15 C          -1.9303   -0.3276    0.2144 C.ar    1  UNL1        0.0361
     16 C          -3.2056   -0.8881    0.1159 C.ar    1  UNL1       -0.0281
     17 C          -4.3688   -0.1620    0.2599 C.ar    1  UNL1        0.0385
     18 C          -5.6858   -0.7772    0.1416 C.2     1  UNL1        0.2443
     19 O          -5.7281   -2.0223    0.0107 O.2     1  UNL1       -0.2702
     20 N          -6.8929   -0.0721    0.1650 N.am    1  UNL1       -0.3085
     21 C          -8.2248   -0.6769    0.0523 C.3     1  UNL1        0.0235
     22 C          -9.2967    0.0648    0.8102 C.3     1  UNL1       -0.0328
     23 C          -9.2886    0.0770   -0.6766 C.3     1  UNL1       -0.0328
     24 C          -4.1965    1.1841    0.5149 C.ar    1  UNL1       -0.0493
     25 C          -2.9731    1.8012    0.6260 C.ar    1  UNL1       -0.0564
     26 C          -1.8261    1.0121    0.4699 C.ar    1  UNL1       -0.0292
     27 C          -0.5160    1.6717    0.6240 C.3     1  UNL1       -0.0380
     28 C           1.3976   -0.7350   -0.9489 C.ar    1  UNL1        0.1090
     29 C           2.2873   -0.6882    0.1034 C.ar    1  UNL1       -0.0081
     30 C           2.0008   -0.8077    1.5354 C.3     1  UNL1       -0.0368
     31 H           9.2201    0.8982    2.3607 H       1  UNL1        0.0230
     32 H           9.6505   -0.0630    0.9116 H       1  UNL1        0.0230
     33 H           9.7526    1.7080    0.8802 H       1  UNL1        0.0230
     34 H           7.0421    1.0775    1.6687 H       1  UNL1        0.0278
     35 H           7.6466    1.8123    0.0838 H       1  UNL1        0.0278
     36 H           8.0952   -0.4132   -0.7819 H       1  UNL1        0.0462
     37 H           7.6480   -1.2089    0.7389 H       1  UNL1        0.0462
     38 H           5.9323   -0.5823   -1.5082 H       1  UNL1        0.1490
     39 H           4.2076   -0.2263   -2.5025 H       1  UNL1        0.0838
     40 H          -0.3079   -0.7051   -4.4201 H       1  UNL1        0.1066
     41 H          -0.5952   -1.9334    0.6965 H       1  UNL1        0.1536
     42 H          -3.2516   -1.9471   -0.0876 H       1  UNL1        0.0644
     43 H          -6.8662    0.9672    0.2671 H       1  UNL1        0.1493
     44 H          -8.3209   -1.7730   -0.0086 H       1  UNL1        0.0498
     45 H         -10.1414   -0.4880    1.2816 H       1  UNL1        0.0284
     46 H          -9.0581    1.0267    1.3075 H       1  UNL1        0.0284
     47 H          -8.9579    0.9853   -1.2446 H       1  UNL1        0.0284
     48 H         -10.0715   -0.4956   -1.1976 H       1  UNL1        0.0284
     49 H          -5.0801    1.7853    0.6372 H       1  UNL1        0.0625
     50 H          -2.8523    2.8542    0.8227 H       1  UNL1        0.0621
     51 H          -0.7044    2.7424    0.9438 H       1  UNL1        0.0278
     52 H           0.1064    1.7064   -0.2731 H       1  UNL1        0.0278
     53 H           0.0523    1.2433    1.4871 H       1  UNL1        0.0278
     54 H           2.3237    0.1160    2.1031 H       1  UNL1        0.0278
     55 H           2.6327   -1.6202    2.0044 H       1  UNL1        0.0278
     56 H           0.9717   -0.9491    1.8276 H       1  UNL1        0.0278
@<TRIPOS>BOND
     1     1     2    1
     2     2     3    1
     3     3     4    1
     4     4     5   am
     5     5     6    2
     6     5     7    1
     7     7     8   ar
     8     8     9   ar
     9     9    10   ar
    10    10    11   ar
    11    11    12   ar
    12    12    13   ar
    13    13    14    1
    14    14    15    1
    15    15    16   ar
    16    16    17   ar
    17    17    18    1
    18    18    19    2
    19    18    20   am
    20    20    21    1
    21    21    22    1
    22    22    23    1
    23    17    24   ar
    24    24    25   ar
    25    25    26   ar
    26    26    27    1
    27    13    28   ar
    28    28    29   ar
    29    29    30    1
    30    29     7   ar
    31    28     9   ar
    32    26    15   ar
    33    23    21    1
    34     1    31    1
    35     1    32    1
    36     1    33    1
    37     2    34    1
    38     2    35    1
    39     3    36    1
    40     3    37    1
    41     4    38    1
    42     8    39    1
    43    11    40    1
    44    14    41    1
    45    16    42    1
    46    20    43    1
    47    21    44    1
    48    22    45    1
    49    22    46    1
    50    23    47    1
    51    23    48    1
    52    24    49    1
    53    25    50    1
    54    27    51    1
    55    27    52    1
    56    27    53    1
    57    30    54    1
    58    30    55    1
    59    30    56    1
