@<TRIPOS>MOLECULE
*****
 49 53 0 0 0
SMALL
GASTEIGER

@<TRIPOS>ATOM
      1 O           8.6086   -0.4646   -1.7761 O.2     1  UNL1       -0.2451
      2 C           7.5692   -1.0555   -1.4446 C.2     1  UNL1        0.3368
      3 O           7.5059   -2.4243   -1.6607 O.3     1  UNL1       -0.4771
      4 C           6.4453   -0.3809   -0.8540 C.ar    1  UNL1        0.0589
      5 C           6.5325    0.9855   -0.6470 C.ar    1  UNL1       -0.0460
      6 C           5.4191    1.6005   -0.0687 C.ar    1  UNL1       -0.0397
      7 C           4.3049    0.9133    0.2779 C.ar    1  UNL1        0.0336
      8 N           3.2028    1.5747    0.8681 N.pl3   1  UNL1       -0.2836
      9 C           2.0087    0.8900    1.2412 C.ar    1  UNL1        0.2200
     10 N           1.8704    0.2729    2.4215 N.ar    1  UNL1       -0.2223
     11 C           0.7443   -0.3716    2.7650 C.ar    1  UNL1        0.0382
     12 C          -0.3224   -0.3997    1.8577 C.ar    1  UNL1        0.0180
     13 C          -0.1668    0.2393    0.6480 C.ar    1  UNL1        0.0816
     14 N           0.9884    0.8610    0.3790 N.ar    1  UNL1       -0.2139
     15 C          -1.0954    0.3746   -0.4661 C.ar    1  UNL1        0.0101
     16 C          -0.5267    0.8548   -1.6268 C.ar    1  UNL1       -0.0505
     17 C          -1.2968    1.0362   -2.7746 C.ar    1  UNL1       -0.0427
     18 C          -2.6357    0.7197   -2.7037 C.ar    1  UNL1        0.0416
     19 CL         -3.6344    0.9396   -4.1466 Cl      1  UNL1       -0.0835
     20 C          -3.1994    0.2344   -1.5212 C.ar    1  UNL1       -0.0336
     21 C          -2.4398    0.0549   -0.3875 C.ar    1  UNL1        0.0112
     22 C          -3.2138   -0.4533    0.7239 C.2     1  UNL1        0.0792
     23 C          -4.6625   -0.4141    0.5597 C.ar    1  UNL1        0.0708
     24 C          -5.4009   -1.4791    0.0892 C.ar    1  UNL1        0.1353
     25 F          -4.7696   -2.6239   -0.2427 F       1  UNL1       -0.2047
     26 C          -6.7694   -1.3609   -0.0354 C.ar    1  UNL1       -0.0256
     27 C          -7.3736   -0.1661    0.3181 C.ar    1  UNL1       -0.0563
     28 C          -6.6625    0.9161    0.7916 C.ar    1  UNL1       -0.0256
     29 C          -5.2951    0.7629    0.9034 C.ar    1  UNL1        0.1353
     30 F          -4.6057    1.8443    1.3742 F       1  UNL1       -0.2047
     31 N          -2.7249   -0.9203    1.8088 N.2     1  UNL1       -0.2778
     32 C          -1.4564   -1.1477    2.3911 C.3     1  UNL1        0.0688
     33 C           4.2449   -0.4417    0.0615 C.ar    1  UNL1       -0.0397
     34 C           5.3169   -1.1155   -0.5101 C.ar    1  UNL1       -0.0460
     35 H           8.2991   -2.9327   -2.0157 H       1  UNL1        0.2954
     36 H           7.4254    1.5255   -0.9262 H       1  UNL1        0.0626
     37 H           5.4926    2.6656    0.0897 H       1  UNL1        0.0636
     38 H           3.2235    2.6136    1.0558 H       1  UNL1        0.1550
     39 H           0.6050   -0.8735    3.7004 H       1  UNL1        0.0835
     40 H           0.5244    1.0877   -1.6278 H       1  UNL1        0.0625
     41 H          -0.8472    1.4120   -3.6782 H       1  UNL1        0.0632
     42 H          -4.2474   -0.0031   -1.5014 H       1  UNL1        0.0639
     43 H          -7.3723   -2.1995   -0.4085 H       1  UNL1        0.0646
     44 H          -8.4541   -0.1192    0.2036 H       1  UNL1        0.0619
     45 H          -7.1455    1.8562    1.0688 H       1  UNL1        0.0646
     46 H          -1.4438   -1.0234    3.5081 H       1  UNL1        0.0559
     47 H          -1.1972   -2.2416    2.2607 H       1  UNL1        0.0559
     48 H           3.3495   -0.9979    0.3393 H       1  UNL1        0.0636
     49 H           5.2778   -2.1779   -0.6829 H       1  UNL1        0.0626
@<TRIPOS>BOND
     1     1     2    2
     2     2     3    1
     3     2     4    1
     4     4     5   ar
     5     5     6   ar
     6     6     7   ar
     7     7     8    1
     8     8     9    1
     9     9    10   ar
    10    10    11   ar
    11    11    12   ar
    12    12    13   ar
    13    13    14   ar
    14    13    15    1
    15    15    16   ar
    16    16    17   ar
    17    17    18   ar
    18    18    19    1
    19    18    20   ar
    20    20    21   ar
    21    21    22    1
    22    22    23    1
    23    23    24   ar
    24    24    25    1
    25    24    26   ar
    26    26    27   ar
    27    27    28   ar
    28    28    29   ar
    29    29    30    1
    30    22    31    2
    31    31    32    1
    32     7    33   ar
    33    33    34   ar
    34    34     4   ar
    35    14     9   ar
    36    21    15   ar
    37    29    23   ar
    38    32    12    1
    39     3    35    1
    40     5    36    1
    41     6    37    1
    42     8    38    1
    43    11    39    1
    44    16    40    1
    45    17    41    1
    46    20    42    1
    47    26    43    1
    48    27    44    1
    49    28    45    1
    50    32    46    1
    51    32    47    1
    52    33    48    1
    53    34    49    1
