
     RDKit          3D

 49 53  0  0  0  0  0  0  0  0999 V2000
    8.6086   -0.4646   -1.7761 O   0  0  0  0  0  0  0  0  0  0  0  0
    7.5692   -1.0555   -1.4446 C   0  0  0  0  0  0  0  0  0  0  0  0
    7.5059   -2.4243   -1.6607 O   0  0  0  0  0  0  0  0  0  0  0  0
    6.4453   -0.3809   -0.8540 C   0  0  0  0  0  0  0  0  0  0  0  0
    6.5325    0.9855   -0.6470 C   0  0  0  0  0  0  0  0  0  0  0  0
    5.4191    1.6005   -0.0687 C   0  0  0  0  0  0  0  0  0  0  0  0
    4.3049    0.9133    0.2779 C   0  0  0  0  0  0  0  0  0  0  0  0
    3.2028    1.5747    0.8681 N   0  0  0  0  0  0  0  0  0  0  0  0
    2.0087    0.8900    1.2412 C   0  0  0  0  0  0  0  0  0  0  0  0
    1.8704    0.2729    2.4215 N   0  0  0  0  0  0  0  0  0  0  0  0
    0.7443   -0.3716    2.7650 C   0  0  0  0  0  0  0  0  0  0  0  0
   -0.3224   -0.3997    1.8577 C   0  0  0  0  0  0  0  0  0  0  0  0
   -0.1668    0.2393    0.6480 C   0  0  0  0  0  0  0  0  0  0  0  0
    0.9884    0.8610    0.3790 N   0  0  0  0  0  0  0  0  0  0  0  0
   -1.0954    0.3746   -0.4661 C   0  0  0  0  0  0  0  0  0  0  0  0
   -0.5267    0.8548   -1.6268 C   0  0  0  0  0  0  0  0  0  0  0  0
   -1.2968    1.0362   -2.7746 C   0  0  0  0  0  0  0  0  0  0  0  0
   -2.6357    0.7197   -2.7037 C   0  0  0  0  0  0  0  0  0  0  0  0
   -3.6344    0.9396   -4.1466 Cl  0  0  0  0  0  0  0  0  0  0  0  0
   -3.1994    0.2344   -1.5212 C   0  0  0  0  0  0  0  0  0  0  0  0
   -2.4398    0.0549   -0.3875 C   0  0  0  0  0  0  0  0  0  0  0  0
   -3.2138   -0.4533    0.7239 C   0  0  0  0  0  0  0  0  0  0  0  0
   -4.6625   -0.4141    0.5597 C   0  0  0  0  0  0  0  0  0  0  0  0
   -5.4009   -1.4791    0.0892 C   0  0  0  0  0  0  0  0  0  0  0  0
   -4.7696   -2.6239   -0.2427 F   0  0  0  0  0  0  0  0  0  0  0  0
   -6.7694   -1.3609   -0.0354 C   0  0  0  0  0  0  0  0  0  0  0  0
   -7.3736   -0.1661    0.3181 C   0  0  0  0  0  0  0  0  0  0  0  0
   -6.6625    0.9161    0.7916 C   0  0  0  0  0  0  0  0  0  0  0  0
   -5.2951    0.7629    0.9034 C   0  0  0  0  0  0  0  0  0  0  0  0
   -4.6057    1.8443    1.3742 F   0  0  0  0  0  0  0  0  0  0  0  0
   -2.7249   -0.9203    1.8088 N   0  0  0  0  0  0  0  0  0  0  0  0
   -1.4564   -1.1477    2.3911 C   0  0  0  0  0  0  0  0  0  0  0  0
    4.2449   -0.4417    0.0615 C   0  0  0  0  0  0  0  0  0  0  0  0
    5.3169   -1.1155   -0.5101 C   0  0  0  0  0  0  0  0  0  0  0  0
    8.2991   -2.9327   -2.0157 H   0  0  0  0  0  0  0  0  0  0  0  0
    7.4254    1.5255   -0.9262 H   0  0  0  0  0  0  0  0  0  0  0  0
    5.4926    2.6656    0.0897 H   0  0  0  0  0  0  0  0  0  0  0  0
    3.2235    2.6136    1.0558 H   0  0  0  0  0  0  0  0  0  0  0  0
    0.6050   -0.8735    3.7004 H   0  0  0  0  0  0  0  0  0  0  0  0
    0.5244    1.0877   -1.6278 H   0  0  0  0  0  0  0  0  0  0  0  0
   -0.8472    1.4120   -3.6782 H   0  0  0  0  0  0  0  0  0  0  0  0
   -4.2474   -0.0031   -1.5014 H   0  0  0  0  0  0  0  0  0  0  0  0
   -7.3723   -2.1995   -0.4085 H   0  0  0  0  0  0  0  0  0  0  0  0
   -8.4541   -0.1192    0.2036 H   0  0  0  0  0  0  0  0  0  0  0  0
   -7.1455    1.8562    1.0688 H   0  0  0  0  0  0  0  0  0  0  0  0
   -1.4438   -1.0234    3.5081 H   0  0  0  0  0  0  0  0  0  0  0  0
   -1.1972   -2.2416    2.2607 H   0  0  0  0  0  0  0  0  0  0  0  0
    3.3495   -0.9979    0.3393 H   0  0  0  0  0  0  0  0  0  0  0  0
    5.2778   -2.1779   -0.6829 H   0  0  0  0  0  0  0  0  0  0  0  0
  1  2  2  0
  2  3  1  0
  2  4  1  0
  4  5  2  0
  5  6  1  0
  6  7  2  0
  7  8  1  0
  8  9  1  0
  9 10  2  0
 10 11  1  0
 11 12  2  0
 12 13  1  0
 13 14  2  0
 13 15  1  0
 15 16  2  0
 16 17  1  0
 17 18  2  0
 18 19  1  0
 18 20  1  0
 20 21  2  0
 21 22  1  0
 22 23  1  0
 23 24  2  0
 24 25  1  0
 24 26  1  0
 26 27  2  0
 27 28  1  0
 28 29  2  0
 29 30  1  0
 22 31  2  0
 31 32  1  0
  7 33  1  0
 33 34  2  0
 34  4  1  0
 14  9  1  0
 21 15  1  0
 29 23  1  0
 32 12  1  0
  3 35  1  0
  5 36  1  0
  6 37  1  0
  8 38  1  0
 11 39  1  0
 16 40  1  0
 17 41  1  0
 20 42  1  0
 26 43  1  0
 27 44  1  0
 28 45  1  0
 32 46  1  0
 32 47  1  0
 33 48  1  0
 34 49  1  0
M  END
$$$$
