
     RDKit          3D

 54 58  0  0  0  0  0  0  0  0999 V2000
   -4.1743   -1.6530    1.4974 C   0  0  0  0  0  0  0  0  0  0  0  0
   -5.1547   -0.8820    0.6969 C   0  0  0  0  0  0  0  0  0  0  0  0
   -6.5039   -1.1011    0.6834 N   0  0  0  0  0  0  0  0  0  0  0  0
   -7.1072   -0.2650   -0.1175 N   0  0  0  0  0  0  0  0  0  0  0  0
   -8.5432   -0.1814   -0.4021 C   0  0  0  0  0  0  0  0  0  0  0  0
   -6.1578    0.5208   -0.6457 C   0  0  0  0  0  0  0  0  0  0  0  0
   -4.9133    0.1526   -0.1478 C   0  0  0  0  0  0  0  0  0  0  0  0
   -3.6382    0.7720   -0.4855 C   0  0  0  0  0  0  0  0  0  0  0  0
   -3.4734    1.8167   -1.3533 N   0  0  0  0  0  0  0  0  0  0  0  0
   -2.1793    2.1586   -1.4522 C   0  0  0  0  0  0  0  0  0  0  0  0
   -1.5278    3.1177   -2.1747 N   0  0  0  0  0  0  0  0  0  0  0  0
   -0.1979    3.2081   -2.0539 C   0  0  0  0  0  0  0  0  0  0  0  0
    0.5376    2.3785   -1.2354 C   0  0  0  0  0  0  0  0  0  0  0  0
    2.2695    2.4998   -1.0810 Cl  0  0  0  0  0  0  0  0  0  0  0  0
   -0.1093    1.4034   -0.4985 C   0  0  0  0  0  0  0  0  0  0  0  0
    0.5582    0.5192    0.3558 N   0  0  0  0  0  0  0  0  0  0  0  0
    0.8237    0.7575    1.7577 C   0  0  0  0  0  0  0  0  0  0  0  0
    2.2259    0.4073    2.1105 C   0  0  0  0  0  0  0  0  0  0  0  0
    3.0281   -0.0433    1.0391 N   0  0  0  0  0  0  0  0  0  0  0  0
    4.4308   -0.0731    1.2380 C   0  0  0  0  0  0  0  0  0  0  0  0
    5.1202   -0.5724    0.0062 C   0  0  0  0  0  0  0  0  0  0  0  0
    5.5292    0.2961   -0.9829 C   0  0  0  0  0  0  0  0  0  0  0  0
    6.1664   -0.1109   -2.1360 C   0  0  0  0  0  0  0  0  0  0  0  0
    6.4043   -1.4615   -2.3024 C   0  0  0  0  0  0  0  0  0  0  0  0
    7.2093   -2.0495   -3.7434 Cl  0  0  0  0  0  0  0  0  0  0  0  0
    5.9993   -2.3324   -1.3206 C   0  0  0  0  0  0  0  0  0  0  0  0
    5.3640   -1.9127   -0.1739 C   0  0  0  0  0  0  0  0  0  0  0  0
    2.4683   -1.0193    0.1834 C   0  0  0  0  0  0  0  0  0  0  0  0
    1.0296   -0.7474   -0.1938 C   0  0  0  0  0  0  0  0  0  0  0  0
   -1.4823    1.3099   -0.6230 C   0  0  0  0  0  0  0  0  0  0  0  0
   -2.3985    0.4907   -0.0600 N   0  0  0  0  0  0  0  0  0  0  0  0
   -4.7015   -2.4918    2.0509 H   0  0  0  0  0  0  0  0  0  0  0  0
   -3.4757   -2.1716    0.8326 H   0  0  0  0  0  0  0  0  0  0  0  0
   -3.6755   -0.9777    2.2421 H   0  0  0  0  0  0  0  0  0  0  0  0
   -8.9824    0.5786    0.2772 H   0  0  0  0  0  0  0  0  0  0  0  0
   -9.0338   -1.1709   -0.2289 H   0  0  0  0  0  0  0  0  0  0  0  0
   -8.6766    0.1877   -1.4396 H   0  0  0  0  0  0  0  0  0  0  0  0
   -6.3661    1.3185   -1.3554 H   0  0  0  0  0  0  0  0  0  0  0  0
    0.3679    3.9538   -2.6069 H   0  0  0  0  0  0  0  0  0  0  0  0
    0.0700    0.1970    2.3782 H   0  0  0  0  0  0  0  0  0  0  0  0
    0.6365    1.8252    1.9691 H   0  0  0  0  0  0  0  0  0  0  0  0
    2.1751   -0.4029    2.8969 H   0  0  0  0  0  0  0  0  0  0  0  0
    2.7011    1.2689    2.6233 H   0  0  0  0  0  0  0  0  0  0  0  0
    4.8214    0.9512    1.5055 H   0  0  0  0  0  0  0  0  0  0  0  0
    4.6748   -0.7775    2.0508 H   0  0  0  0  0  0  0  0  0  0  0  0
    5.3503    1.3617   -0.8692 H   0  0  0  0  0  0  0  0  0  0  0  0
    6.4603    0.6288   -2.8720 H   0  0  0  0  0  0  0  0  0  0  0  0
    6.2109   -3.3826   -1.5024 H   0  0  0  0  0  0  0  0  0  0  0  0
    5.0612   -2.6163    0.5720 H   0  0  0  0  0  0  0  0  0  0  0  0
    2.5918   -2.0538    0.6089 H   0  0  0  0  0  0  0  0  0  0  0  0
    3.0485   -1.0256   -0.7733 H   0  0  0  0  0  0  0  0  0  0  0  0
    0.8490   -0.8293   -1.2823 H   0  0  0  0  0  0  0  0  0  0  0  0
    0.4158   -1.5327    0.3192 H   0  0  0  0  0  0  0  0  0  0  0  0
   -2.1262   -0.2424    0.6075 H   0  0  0  0  0  0  0  0  0  0  0  0
  1  2  1  0
  2  3  2  0
  3  4  1  0
  4  5  1  0
  4  6  1  0
  6  7  2  0
  7  8  1  0
  8  9  2  0
  9 10  1  0
 10 11  2  0
 11 12  1  0
 12 13  2  0
 13 14  1  0
 13 15  1  0
 15 16  1  0
 16 17  1  0
 17 18  1  0
 18 19  1  0
 19 20  1  0
 20 21  1  0
 21 22  2  0
 22 23  1  0
 23 24  2  0
 24 25  1  0
 24 26  1  0
 26 27  2  0
 19 28  1  0
 28 29  1  0
 15 30  2  0
 30 31  1  0
  7  2  1  0
 31  8  1  0
 30 10  1  0
 29 16  1  0
 27 21  1  0
  1 32  1  0
  1 33  1  0
  1 34  1  0
  5 35  1  0
  5 36  1  0
  5 37  1  0
  6 38  1  0
 12 39  1  0
 17 40  1  0
 17 41  1  0
 18 42  1  0
 18 43  1  0
 20 44  1  0
 20 45  1  0
 22 46  1  0
 23 47  1  0
 26 48  1  0
 27 49  1  0
 28 50  1  0
 28 51  1  0
 29 52  1  0
 29 53  1  0
 31 54  1  0
M  END
$$$$
