@<TRIPOS>MOLECULE
*****
 54 58 0 0 0
SMALL
GASTEIGER

@<TRIPOS>ATOM
      1 C          -4.1743   -1.6530    1.4974 C.3     1  UNL1       -0.0199
      2 C          -5.1547   -0.8820    0.6969 C.ar    1  UNL1        0.0706
      3 N          -6.5039   -1.1011    0.6834 N.ar    1  UNL1       -0.1760
      4 N          -7.1072   -0.2650   -0.1175 N.ar    1  UNL1       -0.2735
      5 C          -8.5432   -0.1814   -0.4021 C.3     1  UNL1        0.0302
      6 C          -6.1578    0.5208   -0.6457 C.ar    1  UNL1        0.0361
      7 C          -4.9133    0.1526   -0.1478 C.ar    1  UNL1        0.0576
      8 C          -3.6382    0.7720   -0.4855 C.ar    1  UNL1        0.1443
      9 N          -3.4734    1.8167   -1.3533 N.ar    1  UNL1       -0.2082
     10 C          -2.1793    2.1586   -1.4522 C.ar    1  UNL1        0.1802
     11 N          -1.5278    3.1177   -2.1747 N.ar    1  UNL1       -0.2329
     12 C          -0.1979    3.2081   -2.0539 C.ar    1  UNL1        0.0502
     13 C           0.5376    2.3785   -1.2354 C.ar    1  UNL1        0.0821
     14 CL          2.2695    2.4998   -1.0810 Cl      1  UNL1       -0.0800
     15 C          -0.1093    1.4034   -0.4985 C.ar    1  UNL1        0.0772
     16 N           0.5582    0.5192    0.3558 N.pl3   1  UNL1       -0.3246
     17 C           0.8237    0.7575    1.7577 C.3     1  UNL1        0.0251
     18 C           2.2259    0.4073    2.1105 C.3     1  UNL1        0.0150
     19 N           3.0281   -0.0433    1.0391 N.3     1  UNL1       -0.2952
     20 C           4.4308   -0.0731    1.2380 C.3     1  UNL1        0.0241
     21 C           5.1202   -0.5724    0.0062 C.ar    1  UNL1       -0.0333
     22 C           5.5292    0.2961   -0.9829 C.ar    1  UNL1       -0.0560
     23 C           6.1664   -0.1109   -2.1360 C.ar    1  UNL1       -0.0431
     24 C           6.4043   -1.4615   -2.3024 C.ar    1  UNL1        0.0410
     25 CL          7.2093   -2.0495   -3.7434 Cl      1  UNL1       -0.0835
     26 C           5.9993   -2.3324   -1.3206 C.ar    1  UNL1       -0.0431
     27 C           5.3640   -1.9127   -0.1739 C.ar    1  UNL1       -0.0560
     28 C           2.4683   -1.0193    0.1834 C.3     1  UNL1        0.0150
     29 C           1.0296   -0.7474   -0.1938 C.3     1  UNL1        0.0251
     30 C          -1.4823    1.3099   -0.6230 C.ar    1  UNL1        0.1083
     31 N          -2.3985    0.4907   -0.0600 N.ar    1  UNL1       -0.3350
     32 H          -4.7015   -2.4918    2.0509 H       1  UNL1        0.0293
     33 H          -3.4757   -2.1716    0.8326 H       1  UNL1        0.0293
     34 H          -3.6755   -0.9777    2.2421 H       1  UNL1        0.0293
     35 H          -8.9824    0.5786    0.2772 H       1  UNL1        0.0473
     36 H          -9.0338   -1.1709   -0.2289 H       1  UNL1        0.0473
     37 H          -8.6766    0.1877   -1.4396 H       1  UNL1        0.0473
     38 H          -6.3661    1.3185   -1.3554 H       1  UNL1        0.0833
     39 H           0.3679    3.9538   -2.6069 H       1  UNL1        0.0846
     40 H           0.0700    0.1970    2.3782 H       1  UNL1        0.0476
     41 H           0.6365    1.8252    1.9691 H       1  UNL1        0.0476
     42 H           2.1751   -0.4029    2.8969 H       1  UNL1        0.0442
     43 H           2.7011    1.2689    2.6233 H       1  UNL1        0.0442
     44 H           4.8214    0.9512    1.5055 H       1  UNL1        0.0476
     45 H           4.6748   -0.7775    2.0508 H       1  UNL1        0.0476
     46 H           5.3503    1.3617   -0.8692 H       1  UNL1        0.0621
     47 H           6.4603    0.6288   -2.8720 H       1  UNL1        0.0632
     48 H           6.2109   -3.3826   -1.5024 H       1  UNL1        0.0632
     49 H           5.0612   -2.6163    0.5720 H       1  UNL1        0.0621
     50 H           2.5918   -2.0538    0.6089 H       1  UNL1        0.0442
     51 H           3.0485   -1.0256   -0.7733 H       1  UNL1        0.0442
     52 H           0.8490   -0.8293   -1.2823 H       1  UNL1        0.0476
     53 H           0.4158   -1.5327    0.3192 H       1  UNL1        0.0476
     54 H          -2.1262   -0.2424    0.6075 H       1  UNL1        0.1675
@<TRIPOS>BOND
     1     1     2    1
     2     2     3   ar
     3     3     4   ar
     4     4     5    1
     5     4     6   ar
     6     6     7   ar
     7     7     8    1
     8     8     9   ar
     9     9    10   ar
    10    10    11   ar
    11    11    12   ar
    12    12    13   ar
    13    13    14    1
    14    13    15   ar
    15    15    16    1
    16    16    17    1
    17    17    18    1
    18    18    19    1
    19    19    20    1
    20    20    21    1
    21    21    22   ar
    22    22    23   ar
    23    23    24   ar
    24    24    25    1
    25    24    26   ar
    26    26    27   ar
    27    19    28    1
    28    28    29    1
    29    15    30   ar
    30    30    31   ar
    31     7     2   ar
    32    31     8   ar
    33    30    10   ar
    34    29    16    1
    35    27    21   ar
    36     1    32    1
    37     1    33    1
    38     1    34    1
    39     5    35    1
    40     5    36    1
    41     5    37    1
    42     6    38    1
    43    12    39    1
    44    17    40    1
    45    17    41    1
    46    18    42    1
    47    18    43    1
    48    20    44    1
    49    20    45    1
    50    22    46    1
    51    23    47    1
    52    26    48    1
    53    27    49    1
    54    28    50    1
    55    28    51    1
    56    29    52    1
    57    29    53    1
    58    31    54    1
