@<TRIPOS>MOLECULE
*****
 44 47 0 0 0
SMALL
GASTEIGER

@<TRIPOS>ATOM
      1 F          -7.0803    1.1765   -1.2965 F       1  UNL1       -0.2055
      2 C          -5.8558    0.7294   -0.8908 C.ar    1  UNL1        0.1234
      3 C          -5.2161    1.2608    0.2078 C.ar    1  UNL1       -0.0262
      4 C          -3.9841    0.7931    0.5952 C.ar    1  UNL1       -0.0556
      5 C          -3.3201   -0.2152   -0.0728 C.ar    1  UNL1       -0.0436
      6 C          -1.9823   -0.6944    0.3803 C.3     1  UNL1       -0.0076
      7 C          -2.0237   -1.3281    1.7312 C.3     1  UNL1       -0.0332
      8 C          -1.6983   -0.4561    2.8721 C.3     1  UNL1       -0.0035
      9 N          -0.7199    0.5385    2.6855 N.3     1  UNL1       -0.3156
     10 C          -0.6806    1.1982    1.4321 C.3     1  UNL1        0.0024
     11 C          -0.9086    0.3290    0.2357 C.3     1  UNL1        0.0125
     12 C           0.4023   -0.3922   -0.0460 C.3     1  UNL1        0.0941
     13 O           1.4639    0.5216   -0.1942 O.3     1  UNL1       -0.4915
     14 C           2.7574    0.1750   -0.4527 C.ar    1  UNL1        0.1242
     15 C           3.0992   -1.1519   -0.5870 C.ar    1  UNL1       -0.0162
     16 C           4.4055   -1.5084   -0.8485 C.ar    1  UNL1       -0.0127
     17 C           5.3988   -0.5577   -0.9820 C.ar    1  UNL1        0.1665
     18 C           5.0769    0.7752   -0.8511 C.ar    1  UNL1        0.1697
     19 C           3.7611    1.1064   -0.5892 C.ar    1  UNL1        0.0256
     20 O           6.2571    1.4687   -1.0331 O.3     1  UNL1       -0.4525
     21 C           7.3605    0.5965   -0.9194 C.3     1  UNL1        0.2332
     22 O           6.7569   -0.6587   -1.2395 O.3     1  UNL1       -0.4526
     23 C          -3.9751   -0.7364   -1.1712 C.ar    1  UNL1       -0.0556
     24 C          -5.2127   -0.2800   -1.5759 C.ar    1  UNL1       -0.0262
     25 H          -5.7388    2.0626    0.7429 H       1  UNL1        0.0646
     26 H          -3.5445    1.2560    1.4643 H       1  UNL1        0.0621
     27 H          -1.7066   -1.5217   -0.3435 H       1  UNL1        0.0353
     28 H          -1.3715   -2.2502    1.7636 H       1  UNL1        0.0283
     29 H          -3.0659   -1.7297    1.8796 H       1  UNL1        0.0283
     30 H          -2.6391    0.0035    3.2979 H       1  UNL1        0.0424
     31 H          -1.3406   -1.1207    3.7178 H       1  UNL1        0.0424
     32 H          -0.8480    1.2775    3.4343 H       1  UNL1        0.1219
     33 H           0.3679    1.6133    1.3155 H       1  UNL1        0.0428
     34 H          -1.3160    2.1329    1.4101 H       1  UNL1        0.0428
     35 H          -1.1090    0.9972   -0.6272 H       1  UNL1        0.0352
     36 H           0.6701   -1.0799    0.7817 H       1  UNL1        0.0700
     37 H           0.2943   -1.0534   -0.9496 H       1  UNL1        0.0700
     38 H           2.3819   -1.9622   -0.4972 H       1  UNL1        0.0655
     39 H           4.7012   -2.5437   -0.9587 H       1  UNL1        0.0656
     40 H           3.5160    2.1422   -0.4884 H       1  UNL1        0.0692
     41 H           8.1394    0.7673   -1.6718 H       1  UNL1        0.1166
     42 H           7.7574    0.5446    0.1187 H       1  UNL1        0.1166
     43 H          -3.4954   -1.5416   -1.7427 H       1  UNL1        0.0621
     44 H          -5.7345   -0.6838   -2.4378 H       1  UNL1        0.0646
@<TRIPOS>BOND
     1     1     2    1
     2     2     3   ar
     3     3     4   ar
     4     4     5   ar
     5     5     6    1
     6     6     7    1
     7     7     8    1
     8     8     9    1
     9     9    10    1
    10    10    11    1
    11    11    12    1
    12    12    13    1
    13    13    14    1
    14    14    15   ar
    15    15    16   ar
    16    16    17   ar
    17    17    18   ar
    18    18    19   ar
    19    18    20    1
    20    20    21    1
    21    21    22    1
    22     5    23   ar
    23    23    24   ar
    24    24     2   ar
    25    11     6    1
    26    19    14   ar
    27    22    17    1
    28     3    25    1
    29     4    26    1
    30     6    27    1
    31     7    28    1
    32     7    29    1
    33     8    30    1
    34     8    31    1
    35     9    32    1
    36    10    33    1
    37    10    34    1
    38    11    35    1
    39    12    36    1
    40    12    37    1
    41    15    38    1
    42    16    39    1
    43    19    40    1
    44    21    41    1
    45    21    42    1
    46    23    43    1
    47    24    44    1
