
     RDKit          3D

 44 47  0  0  0  0  0  0  0  0999 V2000
   -7.0803    1.1765   -1.2965 F   0  0  0  0  0  0  0  0  0  0  0  0
   -5.8558    0.7294   -0.8908 C   0  0  0  0  0  0  0  0  0  0  0  0
   -5.2161    1.2608    0.2078 C   0  0  0  0  0  0  0  0  0  0  0  0
   -3.9841    0.7931    0.5952 C   0  0  0  0  0  0  0  0  0  0  0  0
   -3.3201   -0.2152   -0.0728 C   0  0  0  0  0  0  0  0  0  0  0  0
   -1.9823   -0.6944    0.3803 C   0  0  2  0  0  0  0  0  0  0  0  0
   -2.0237   -1.3281    1.7312 C   0  0  0  0  0  0  0  0  0  0  0  0
   -1.6983   -0.4561    2.8721 C   0  0  0  0  0  0  0  0  0  0  0  0
   -0.7199    0.5385    2.6855 N   0  0  0  0  0  0  0  0  0  0  0  0
   -0.6806    1.1982    1.4321 C   0  0  0  0  0  0  0  0  0  0  0  0
   -0.9086    0.3290    0.2357 C   0  0  1  0  0  0  0  0  0  0  0  0
    0.4023   -0.3922   -0.0460 C   0  0  0  0  0  0  0  0  0  0  0  0
    1.4639    0.5216   -0.1942 O   0  0  0  0  0  0  0  0  0  0  0  0
    2.7574    0.1750   -0.4527 C   0  0  0  0  0  0  0  0  0  0  0  0
    3.0992   -1.1519   -0.5870 C   0  0  0  0  0  0  0  0  0  0  0  0
    4.4055   -1.5084   -0.8485 C   0  0  0  0  0  0  0  0  0  0  0  0
    5.3988   -0.5577   -0.9820 C   0  0  0  0  0  0  0  0  0  0  0  0
    5.0769    0.7752   -0.8511 C   0  0  0  0  0  0  0  0  0  0  0  0
    3.7611    1.1064   -0.5892 C   0  0  0  0  0  0  0  0  0  0  0  0
    6.2571    1.4687   -1.0331 O   0  0  0  0  0  0  0  0  0  0  0  0
    7.3605    0.5965   -0.9194 C   0  0  0  0  0  0  0  0  0  0  0  0
    6.7569   -0.6587   -1.2395 O   0  0  0  0  0  0  0  0  0  0  0  0
   -3.9751   -0.7364   -1.1712 C   0  0  0  0  0  0  0  0  0  0  0  0
   -5.2127   -0.2800   -1.5759 C   0  0  0  0  0  0  0  0  0  0  0  0
   -5.7388    2.0626    0.7429 H   0  0  0  0  0  0  0  0  0  0  0  0
   -3.5445    1.2560    1.4643 H   0  0  0  0  0  0  0  0  0  0  0  0
   -1.7066   -1.5217   -0.3435 H   0  0  0  0  0  0  0  0  0  0  0  0
   -1.3715   -2.2502    1.7636 H   0  0  0  0  0  0  0  0  0  0  0  0
   -3.0659   -1.7297    1.8796 H   0  0  0  0  0  0  0  0  0  0  0  0
   -2.6391    0.0035    3.2979 H   0  0  0  0  0  0  0  0  0  0  0  0
   -1.3406   -1.1207    3.7178 H   0  0  0  0  0  0  0  0  0  0  0  0
   -0.8480    1.2775    3.4343 H   0  0  0  0  0  0  0  0  0  0  0  0
    0.3679    1.6133    1.3155 H   0  0  0  0  0  0  0  0  0  0  0  0
   -1.3160    2.1329    1.4101 H   0  0  0  0  0  0  0  0  0  0  0  0
   -1.1090    0.9972   -0.6272 H   0  0  0  0  0  0  0  0  0  0  0  0
    0.6701   -1.0799    0.7817 H   0  0  0  0  0  0  0  0  0  0  0  0
    0.2943   -1.0534   -0.9496 H   0  0  0  0  0  0  0  0  0  0  0  0
    2.3819   -1.9622   -0.4972 H   0  0  0  0  0  0  0  0  0  0  0  0
    4.7012   -2.5437   -0.9587 H   0  0  0  0  0  0  0  0  0  0  0  0
    3.5160    2.1422   -0.4884 H   0  0  0  0  0  0  0  0  0  0  0  0
    8.1394    0.7673   -1.6718 H   0  0  0  0  0  0  0  0  0  0  0  0
    7.7574    0.5446    0.1187 H   0  0  0  0  0  0  0  0  0  0  0  0
   -3.4954   -1.5416   -1.7427 H   0  0  0  0  0  0  0  0  0  0  0  0
   -5.7345   -0.6838   -2.4378 H   0  0  0  0  0  0  0  0  0  0  0  0
  1  2  1  0
  2  3  2  0
  3  4  1  0
  4  5  2  0
  5  6  1  0
  6  7  1  0
  7  8  1  0
  8  9  1  0
  9 10  1  0
 10 11  1  0
 11 12  1  0
 12 13  1  0
 13 14  1  0
 14 15  2  0
 15 16  1  0
 16 17  2  0
 17 18  1  0
 18 19  2  0
 18 20  1  0
 20 21  1  0
 21 22  1  0
  5 23  1  0
 23 24  2  0
 24  2  1  0
 11  6  1  0
 19 14  1  0
 22 17  1  0
  3 25  1  0
  4 26  1  0
  6 27  1  6
  7 28  1  0
  7 29  1  0
  8 30  1  0
  8 31  1  0
  9 32  1  0
 10 33  1  0
 10 34  1  0
 11 35  1  6
 12 36  1  0
 12 37  1  0
 15 38  1  0
 16 39  1  0
 19 40  1  0
 21 41  1  0
 21 42  1  0
 23 43  1  0
 24 44  1  0
M  END
$$$$
