
     RDKit          3D

 63 66  0  0  0  0  0  0  0  0999 V2000
   -1.7018    1.9571   -2.8489 C   0  0  0  0  0  0  0  0  0  0  0  0
   -1.9736    0.8462   -2.4805 C   0  0  0  0  0  0  0  0  0  0  0  0
   -2.2907   -0.5284   -2.0245 C   0  0  0  0  0  0  0  0  0  0  0  0
   -1.9383   -0.6346   -0.6530 N   0  0  0  0  0  0  0  0  0  0  0  0
   -2.6750   -1.7867   -0.0500 C   0  0  0  0  0  0  0  0  0  0  0  0
   -4.1525   -1.4866   -0.1416 C   0  0  0  0  0  0  0  0  0  0  0  0
   -4.9511   -2.1008   -1.0788 C   0  0  0  0  0  0  0  0  0  0  0  0
   -6.3000   -1.8021   -1.2238 C   0  0  0  0  0  0  0  0  0  0  0  0
   -6.8221   -0.8399   -0.3684 C   0  0  0  0  0  0  0  0  0  0  0  0
   -8.1585   -0.4968   -0.4827 C   0  0  0  0  0  0  0  0  0  0  0  0
   -8.6692    0.4662    0.3553 C   0  0  0  0  0  0  0  0  0  0  0  0
   -7.8713    1.1035    1.3154 C   0  0  0  0  0  0  0  0  0  0  0  0
   -6.5588    0.7310    1.3905 C   0  0  0  0  0  0  0  0  0  0  0  0
   -5.7378    1.3392    2.3245 O   0  0  0  0  0  0  0  0  0  0  0  0
   -5.9947   -0.2437    0.5611 C   0  0  0  0  0  0  0  0  0  0  0  0
   -4.7094   -0.5687    0.6577 N   0  0  0  0  0  0  0  0  0  0  0  0
   -0.5666   -0.9539   -0.3852 C   0  0  0  0  0  0  0  0  0  0  0  0
   -0.3016   -2.3579   -0.9929 C   0  0  0  0  0  0  0  0  0  0  0  0
   -0.1156   -3.2699   -1.4007 N   0  0  0  0  0  0  0  0  0  0  0  0
    0.4641   -0.0298   -0.8765 C   0  0  0  0  0  0  0  0  0  0  0  0
    1.8733   -0.5337   -0.4924 C   0  0  0  0  0  0  0  0  0  0  0  0
    2.0462   -0.6992    0.9755 C   0  0  0  0  0  0  0  0  0  0  0  0
    3.3741   -0.1515    1.4863 C   0  0  0  0  0  0  0  0  0  0  0  0
    3.4747    1.2478    1.2045 N   0  0  0  0  0  0  0  0  0  0  0  0
    4.7135    1.8109    1.5427 C   0  0  0  0  0  0  0  0  0  0  0  0
    5.9113    1.2886    0.8678 C   0  0  0  0  0  0  0  0  0  0  0  0
    6.3859    1.8903   -0.3063 C   0  0  0  0  0  0  0  0  0  0  0  0
    7.5104    1.4115   -0.9302 C   0  0  0  0  0  0  0  0  0  0  0  0
    8.1991    0.3427   -0.4312 C   0  0  0  0  0  0  0  0  0  0  0  0
    7.7489   -0.2702    0.7294 C   0  0  0  0  0  0  0  0  0  0  0  0
    6.6224    0.2197    1.3411 C   0  0  0  0  0  0  0  0  0  0  0  0
    3.0236    1.6035   -0.0958 C   0  0  0  0  0  0  0  0  0  0  0  0
    2.8845    0.4572   -1.0394 C   0  0  0  0  0  0  0  0  0  0  0  0
   -1.4614    2.9403   -3.1672 H   0  0  0  0  0  0  0  0  0  0  0  0
   -3.3545   -0.7481   -2.1915 H   0  0  0  0  0  0  0  0  0  0  0  0
   -1.5987   -1.1984   -2.6187 H   0  0  0  0  0  0  0  0  0  0  0  0
   -2.3247   -1.8788    0.9899 H   0  0  0  0  0  0  0  0  0  0  0  0
   -2.4728   -2.7195   -0.5866 H   0  0  0  0  0  0  0  0  0  0  0  0
   -4.5332   -2.8645   -1.7463 H   0  0  0  0  0  0  0  0  0  0  0  0
   -6.9164   -2.2829   -1.9553 H   0  0  0  0  0  0  0  0  0  0  0  0
   -8.7905   -0.9900   -1.2256 H   0  0  0  0  0  0  0  0  0  0  0  0
   -9.6987    0.7425    0.2732 H   0  0  0  0  0  0  0  0  0  0  0  0
   -8.3046    1.8629    1.9517 H   0  0  0  0  0  0  0  0  0  0  0  0
   -5.4384    0.7797    3.1342 H   0  0  0  0  0  0  0  0  0  0  0  0
   -0.4675   -1.1158    0.7021 H   0  0  0  0  0  0  0  0  0  0  0  0
    0.4850   -0.0291   -2.0086 H   0  0  0  0  0  0  0  0  0  0  0  0
    0.3840    0.9867   -0.5259 H   0  0  0  0  0  0  0  0  0  0  0  0
    1.9971   -1.4740   -1.0624 H   0  0  0  0  0  0  0  0  0  0  0  0
    2.0025   -1.7624    1.2528 H   0  0  0  0  0  0  0  0  0  0  0  0
    1.1857   -0.1864    1.4662 H   0  0  0  0  0  0  0  0  0  0  0  0
    3.3891   -0.2955    2.5799 H   0  0  0  0  0  0  0  0  0  0  0  0
    4.2155   -0.7405    1.0675 H   0  0  0  0  0  0  0  0  0  0  0  0
    4.7096    2.9423    1.4089 H   0  0  0  0  0  0  0  0  0  0  0  0
    4.8449    1.7259    2.6763 H   0  0  0  0  0  0  0  0  0  0  0  0
    5.8973    2.7287   -0.7322 H   0  0  0  0  0  0  0  0  0  0  0  0
    7.9076    1.8594   -1.8555 H   0  0  0  0  0  0  0  0  0  0  0  0
    9.0945   -0.0506   -0.9138 H   0  0  0  0  0  0  0  0  0  0  0  0
    8.2898   -1.1088    1.1269 H   0  0  0  0  0  0  0  0  0  0  0  0
    6.3144   -0.3065    2.2512 H   0  0  0  0  0  0  0  0  0  0  0  0
    1.9787    2.0269    0.0451 H   0  0  0  0  0  0  0  0  0  0  0  0
    3.5816    2.4525   -0.5467 H   0  0  0  0  0  0  0  0  0  0  0  0
    2.5077    0.8359   -2.0087 H   0  0  0  0  0  0  0  0  0  0  0  0
    3.8331   -0.0932   -1.1940 H   0  0  0  0  0  0  0  0  0  0  0  0
  1  2  3  0
  2  3  1  0
  3  4  1  0
  4  5  1  0
  5  6  1  0
  6  7  2  0
  7  8  1  0
  8  9  2  0
  9 10  1  0
 10 11  2  0
 11 12  1  0
 12 13  2  0
 13 14  1  0
 13 15  1  0
 15 16  2  0
  4 17  1  0
 17 18  1  0
 18 19  3  0
 17 20  1  0
 20 21  1  0
 21 22  1  0
 22 23  1  0
 23 24  1  0
 24 25  1  0
 25 26  1  0
 26 27  2  0
 27 28  1  0
 28 29  2  0
 29 30  1  0
 30 31  2  0
 24 32  1  0
 32 33  1  0
 16  6  1  0
 33 21  1  0
 15  9  1  0
 31 26  1  0
  1 34  1  0
  3 35  1  0
  3 36  1  0
  5 37  1  0
  5 38  1  0
  7 39  1  0
  8 40  1  0
 10 41  1  0
 11 42  1  0
 12 43  1  0
 14 44  1  0
 17 45  1  0
 20 46  1  0
 20 47  1  0
 21 48  1  0
 22 49  1  0
 22 50  1  0
 23 51  1  0
 23 52  1  0
 25 53  1  0
 25 54  1  0
 27 55  1  0
 28 56  1  0
 29 57  1  0
 30 58  1  0
 31 59  1  0
 32 60  1  0
 32 61  1  0
 33 62  1  0
 33 63  1  0
M  END
$$$$
