@<TRIPOS>MOLECULE
*****
 63 66 0 0 0
SMALL
GASTEIGER

@<TRIPOS>ATOM
      1 C          -1.7018    1.9571   -2.8489 C.1     1  UNL1       -0.1179
      2 C          -1.9736    0.8462   -2.4805 C.1     1  UNL1       -0.0900
      3 C          -2.2907   -0.5284   -2.0245 C.3     1  UNL1        0.0621
      4 N          -1.9383   -0.6346   -0.6530 N.3     1  UNL1       -0.2706
      5 C          -2.6750   -1.7867   -0.0500 C.3     1  UNL1        0.0433
      6 C          -4.1525   -1.4866   -0.1416 C.ar    1  UNL1        0.0561
      7 C          -4.9511   -2.1008   -1.0788 C.ar    1  UNL1       -0.0385
      8 C          -6.3000   -1.8021   -1.2238 C.ar    1  UNL1       -0.0507
      9 C          -6.8221   -0.8399   -0.3684 C.ar    1  UNL1        0.0040
     10 C          -8.1585   -0.4968   -0.4827 C.ar    1  UNL1       -0.0523
     11 C          -8.6692    0.4662    0.3553 C.ar    1  UNL1       -0.0576
     12 C          -7.8713    1.1035    1.3154 C.ar    1  UNL1       -0.0180
     13 C          -6.5588    0.7310    1.3905 C.ar    1  UNL1        0.1427
     14 O          -5.7378    1.3392    2.3245 O.3     1  UNL1       -0.5046
     15 C          -5.9947   -0.2437    0.5611 C.ar    1  UNL1        0.1126
     16 N          -4.7094   -0.5687    0.6577 N.ar    1  UNL1       -0.2466
     17 C          -0.5666   -0.9539   -0.3852 C.3     1  UNL1        0.0994
     18 C          -0.3016   -2.3579   -0.9929 C.1     1  UNL1        0.0815
     19 N          -0.1156   -3.2699   -1.4007 N.1     1  UNL1       -0.1949
     20 C           0.4641   -0.0298   -0.8765 C.3     1  UNL1       -0.0212
     21 C           1.8733   -0.5337   -0.4924 C.3     1  UNL1       -0.0364
     22 C           2.0462   -0.6992    0.9755 C.3     1  UNL1       -0.0372
     23 C           3.3741   -0.1515    1.4863 C.3     1  UNL1       -0.0005
     24 N           3.4747    1.2478    1.2045 N.3     1  UNL1       -0.2981
     25 C           4.7135    1.8109    1.5427 C.3     1  UNL1        0.0240
     26 C           5.9113    1.2886    0.8678 C.ar    1  UNL1       -0.0334
     27 C           6.3859    1.8903   -0.3063 C.ar    1  UNL1       -0.0573
     28 C           7.5104    1.4115   -0.9302 C.ar    1  UNL1       -0.0615
     29 C           8.1991    0.3427   -0.4312 C.ar    1  UNL1       -0.0617
     30 C           7.7489   -0.2702    0.7294 C.ar    1  UNL1       -0.0615
     31 C           6.6224    0.2197    1.3411 C.ar    1  UNL1       -0.0573
     32 C           3.0236    1.6035   -0.0958 C.3     1  UNL1       -0.0005
     33 C           2.8845    0.4572   -1.0394 C.3     1  UNL1       -0.0372
     34 H          -1.4614    2.9403   -3.1672 H       1  UNL1        0.1228
     35 H          -3.3545   -0.7481   -2.1915 H       1  UNL1        0.0563
     36 H          -1.5987   -1.1984   -2.6187 H       1  UNL1        0.0563
     37 H          -2.3247   -1.8788    0.9899 H       1  UNL1        0.0492
     38 H          -2.4728   -2.7195   -0.5866 H       1  UNL1        0.0492
     39 H          -4.5332   -2.8645   -1.7463 H       1  UNL1        0.0636
     40 H          -6.9164   -2.2829   -1.9553 H       1  UNL1        0.0625
     41 H          -8.7905   -0.9900   -1.2256 H       1  UNL1        0.0624
     42 H          -9.6987    0.7425    0.2732 H       1  UNL1        0.0619
     43 H          -8.3046    1.8629    1.9517 H       1  UNL1        0.0655
     44 H          -5.4384    0.7797    3.1342 H       1  UNL1        0.2922
     45 H          -0.4675   -1.1158    0.7021 H       1  UNL1        0.0621
     46 H           0.4850   -0.0291   -2.0086 H       1  UNL1        0.0293
     47 H           0.3840    0.9867   -0.5259 H       1  UNL1        0.0293
     48 H           1.9971   -1.4740   -1.0624 H       1  UNL1        0.0302
     49 H           2.0025   -1.7624    1.2528 H       1  UNL1        0.0280
     50 H           1.1857   -0.1864    1.4662 H       1  UNL1        0.0280
     51 H           3.3891   -0.2955    2.5799 H       1  UNL1        0.0427
     52 H           4.2155   -0.7405    1.0675 H       1  UNL1        0.0427
     53 H           4.7096    2.9423    1.4089 H       1  UNL1        0.0476
     54 H           4.8449    1.7259    2.6763 H       1  UNL1        0.0476
     55 H           5.8973    2.7287   -0.7322 H       1  UNL1        0.0621
     56 H           7.9076    1.8594   -1.8555 H       1  UNL1        0.0618
     57 H           9.0945   -0.0506   -0.9138 H       1  UNL1        0.0618
     58 H           8.2898   -1.1088    1.1269 H       1  UNL1        0.0618
     59 H           6.3144   -0.3065    2.2512 H       1  UNL1        0.0621
     60 H           1.9787    2.0269    0.0451 H       1  UNL1        0.0427
     61 H           3.5816    2.4525   -0.5467 H       1  UNL1        0.0427
     62 H           2.5077    0.8359   -2.0087 H       1  UNL1        0.0280
     63 H           3.8331   -0.0932   -1.1940 H       1  UNL1        0.0280
@<TRIPOS>BOND
     1     1     2    3
     2     2     3    1
     3     3     4    1
     4     4     5    1
     5     5     6    1
     6     6     7   ar
     7     7     8   ar
     8     8     9   ar
     9     9    10   ar
    10    10    11   ar
    11    11    12   ar
    12    12    13   ar
    13    13    14    1
    14    13    15   ar
    15    15    16   ar
    16     4    17    1
    17    17    18    1
    18    18    19    3
    19    17    20    1
    20    20    21    1
    21    21    22    1
    22    22    23    1
    23    23    24    1
    24    24    25    1
    25    25    26    1
    26    26    27   ar
    27    27    28   ar
    28    28    29   ar
    29    29    30   ar
    30    30    31   ar
    31    24    32    1
    32    32    33    1
    33    16     6   ar
    34    33    21    1
    35    15     9   ar
    36    31    26   ar
    37     1    34    1
    38     3    35    1
    39     3    36    1
    40     5    37    1
    41     5    38    1
    42     7    39    1
    43     8    40    1
    44    10    41    1
    45    11    42    1
    46    12    43    1
    47    14    44    1
    48    17    45    1
    49    20    46    1
    50    20    47    1
    51    21    48    1
    52    22    49    1
    53    22    50    1
    54    23    51    1
    55    23    52    1
    56    25    53    1
    57    25    54    1
    58    27    55    1
    59    28    56    1
    60    29    57    1
    61    30    58    1
    62    31    59    1
    63    32    60    1
    64    32    61    1
    65    33    62    1
    66    33    63    1
