@<TRIPOS>MOLECULE
*****
 40 41 0 0 0
SMALL
GASTEIGER

@<TRIPOS>ATOM
      1 C           6.6497    1.8453   -0.4785 C.3     1  UNL1       -0.0305
      2 C           5.1798    1.7125   -0.1529 C.3     1  UNL1        0.0913
      3 O           4.7244    0.4516   -0.6428 O.3     1  UNL1       -0.4504
      4 C           3.4130    0.0584   -0.4854 C.2     1  UNL1        0.4046
      5 O           2.8116    0.9855    0.1233 O.2     1  UNL1       -0.2261
      6 N           2.8398   -1.1649   -0.9259 N.am    1  UNL1       -0.2494
      7 C           1.4580   -1.3043   -0.6268 C.ar    1  UNL1        0.0572
      8 C           1.1154   -1.8828    0.5725 C.ar    1  UNL1        0.0479
      9 N           2.0897   -2.3366    1.5035 N.pl3   1  UNL1       -0.3565
     10 C          -0.1739   -2.0706    0.9709 C.ar    1  UNL1       -0.0184
     11 C          -1.2205   -1.6676    0.1455 C.ar    1  UNL1        0.0292
     12 N          -2.5955   -1.8096    0.4209 N.pl3   1  UNL1       -0.3397
     13 C          -3.8529   -1.4958   -0.1715 C.3     1  UNL1        0.0344
     14 C          -4.0649   -0.0296   -0.2372 C.ar    1  UNL1       -0.0302
     15 C          -4.5761    0.4576    0.9692 C.ar    1  UNL1       -0.0544
     16 C          -4.8823    1.7887    1.1873 C.ar    1  UNL1       -0.0261
     17 C          -4.6830    2.7072    0.1785 C.ar    1  UNL1        0.1234
     18 F          -4.9346    4.0337    0.2454 F       1  UNL1       -0.2055
     19 C          -4.1779    2.2277   -1.0155 C.ar    1  UNL1       -0.0261
     20 C          -3.8740    0.9014   -1.2301 C.ar    1  UNL1       -0.0544
     21 C          -0.8617   -1.0896   -1.0532 C.ar    1  UNL1       -0.0390
     22 C           0.4408   -0.8966   -1.4622 C.ar    1  UNL1       -0.0369
     23 H           7.0046    1.0437   -1.1578 H       1  UNL1        0.0262
     24 H           7.2483    1.7540    0.4379 H       1  UNL1        0.0262
     25 H           6.8354    2.8172   -0.9706 H       1  UNL1        0.0262
     26 H           5.0483    1.7115    0.9474 H       1  UNL1        0.0695
     27 H           4.5992    2.5587   -0.5798 H       1  UNL1        0.0695
     28 H           3.4959   -1.8227   -1.4186 H       1  UNL1        0.1582
     29 H           2.4615   -1.7333    2.2821 H       1  UNL1        0.1424
     30 H           2.4237   -3.3014    1.3812 H       1  UNL1        0.1424
     31 H          -0.4486   -2.5250    1.9130 H       1  UNL1        0.0655
     32 H          -2.7049   -2.2987    1.3574 H       1  UNL1        0.1464
     33 H          -4.6805   -1.9989    0.3660 H       1  UNL1        0.0511
     34 H          -3.8055   -1.8691   -1.2376 H       1  UNL1        0.0511
     35 H          -4.7895   -0.1396    1.8618 H       1  UNL1        0.0622
     36 H          -5.2741    2.1911    2.0978 H       1  UNL1        0.0646
     37 H          -3.9986    2.8908   -1.8439 H       1  UNL1        0.0646
     38 H          -3.4945    0.4749   -2.1287 H       1  UNL1        0.0622
     39 H          -1.5264   -0.7231   -1.8212 H       1  UNL1        0.0637
     40 H           0.7810   -0.4517   -2.3850 H       1  UNL1        0.0637
@<TRIPOS>BOND
     1     1     2    1
     2     2     3    1
     3     3     4    1
     4     4     5    2
     5     4     6   am
     6     6     7    1
     7     7     8   ar
     8     8     9    1
     9     8    10   ar
    10    10    11   ar
    11    11    12    1
    12    12    13    1
    13    13    14    1
    14    14    15   ar
    15    15    16   ar
    16    16    17   ar
    17    17    18    1
    18    17    19   ar
    19    19    20   ar
    20    11    21   ar
    21    21    22   ar
    22    22     7   ar
    23    20    14   ar
    24     1    23    1
    25     1    24    1
    26     1    25    1
    27     2    26    1
    28     2    27    1
    29     6    28    1
    30     9    29    1
    31     9    30    1
    32    10    31    1
    33    12    32    1
    34    13    33    1
    35    13    34    1
    36    15    35    1
    37    16    36    1
    38    19    37    1
    39    20    38    1
    40    21    39    1
    41    22    40    1
