@<TRIPOS>MOLECULE
*****
 47 48 0 0 0
SMALL
GASTEIGER

@<TRIPOS>ATOM
      1 C          -2.9464    1.3948   -3.7197 C.3     1  UNL1        0.0788
      2 O          -2.6789    0.4953   -2.6794 O.3     1  UNL1       -0.4948
      3 C          -1.4260    0.2355   -2.1931 C.ar    1  UNL1        0.1238
      4 C          -0.3107    0.8692   -2.7197 C.ar    1  UNL1       -0.0162
      5 C           0.9443    0.6059   -2.2292 C.ar    1  UNL1       -0.0165
      6 C           1.0981   -0.2908   -1.2099 C.ar    1  UNL1        0.1210
      7 O           2.3615   -0.5931   -0.6747 O.3     1  UNL1       -0.4920
      8 C           2.5004   -1.5251    0.3821 C.3     1  UNL1        0.0896
      9 C           4.0075   -1.5769    0.6767 C.3     1  UNL1       -0.0181
     10 C           4.3814   -0.1627    1.0662 C.3     1  UNL1       -0.0399
     11 C           5.8229   -0.0020    1.3935 C.3     1  UNL1        0.0449
     12 C           6.0831    1.4079    1.7583 C.2     1  UNL1        0.3047
     13 O           5.1438    2.2285    1.7505 O.2     1  UNL1       -0.2510
     14 O           7.3458    1.8443    2.1097 O.3     1  UNL1       -0.4806
     15 C          -0.0095   -0.9131   -0.6949 C.ar    1  UNL1       -0.0130
     16 C          -1.2755   -0.6739   -1.1605 C.ar    1  UNL1        0.0022
     17 C          -2.4391   -1.3818   -0.5601 C.3     1  UNL1        0.0058
     18 C          -3.1943   -0.4972    0.3303 C.ar    1  UNL1        0.0148
     19 C          -2.8015    0.8110    0.5259 C.ar    1  UNL1        0.0379
     20 N          -3.5485    1.5547    1.3576 N.ar    1  UNL1       -0.2227
     21 C          -4.6383    1.1020    1.9983 C.ar    1  UNL1        0.2142
     22 N          -5.3699    1.9737    2.8665 N.pl3   1  UNL1       -0.3274
     23 N          -5.0304   -0.1855    1.8098 N.ar    1  UNL1       -0.1999
     24 C          -4.3210   -0.9791    0.9874 C.ar    1  UNL1        0.1247
     25 N          -4.6943   -2.3365    0.7592 N.pl3   1  UNL1       -0.3428
     26 H          -2.3278    1.1771   -4.6149 H       1  UNL1        0.0660
     27 H          -4.0170    1.2267   -4.0188 H       1  UNL1        0.0660
     28 H          -2.7835    2.4365   -3.4063 H       1  UNL1        0.0660
     29 H          -0.4517    1.5883   -3.5400 H       1  UNL1        0.0655
     30 H           1.8130    1.0941   -2.6333 H       1  UNL1        0.0655
     31 H           2.0989   -2.5159    0.1361 H       1  UNL1        0.0696
     32 H           2.0462   -1.0865    1.3043 H       1  UNL1        0.0696
     33 H           4.2184   -2.2843    1.5046 H       1  UNL1        0.0298
     34 H           4.4993   -1.8753   -0.2755 H       1  UNL1        0.0298
     35 H           4.0411    0.4903    0.2326 H       1  UNL1        0.0271
     36 H           3.7174    0.0997    1.9318 H       1  UNL1        0.0271
     37 H           6.0616   -0.6761    2.2398 H       1  UNL1        0.0377
     38 H           6.4104   -0.3197    0.5006 H       1  UNL1        0.0377
     39 H           7.4931    2.8198    2.2469 H       1  UNL1        0.2951
     40 H           0.1362   -1.6188    0.1111 H       1  UNL1        0.0658
     41 H          -3.0444   -1.8058   -1.3848 H       1  UNL1        0.0364
     42 H          -2.0522   -2.2362    0.0202 H       1  UNL1        0.0364
     43 H          -1.9214    1.2026    0.0182 H       1  UNL1        0.0834
     44 H          -6.3634    1.7815    3.0499 H       1  UNL1        0.1452
     45 H          -4.9086    2.7961    3.3119 H       1  UNL1        0.1452
     46 H          -4.9064   -2.9807    1.5461 H       1  UNL1        0.1437
     47 H          -4.7640   -2.7183   -0.2113 H       1  UNL1        0.1437
@<TRIPOS>BOND
     1     1     2    1
     2     2     3    1
     3     3     4   ar
     4     4     5   ar
     5     5     6   ar
     6     6     7    1
     7     7     8    1
     8     8     9    1
     9     9    10    1
    10    10    11    1
    11    11    12    1
    12    12    13    2
    13    12    14    1
    14     6    15   ar
    15    15    16   ar
    16    16    17    1
    17    17    18    1
    18    18    19   ar
    19    19    20   ar
    20    20    21   ar
    21    21    22    1
    22    21    23   ar
    23    23    24   ar
    24    24    25    1
    25    16     3   ar
    26    24    18   ar
    27     1    26    1
    28     1    27    1
    29     1    28    1
    30     4    29    1
    31     5    30    1
    32     8    31    1
    33     8    32    1
    34     9    33    1
    35     9    34    1
    36    10    35    1
    37    10    36    1
    38    11    37    1
    39    11    38    1
    40    14    39    1
    41    15    40    1
    42    17    41    1
    43    17    42    1
    44    19    43    1
    45    22    44    1
    46    22    45    1
    47    25    46    1
    48    25    47    1
