
     RDKit          3D

 47 48  0  0  0  0  0  0  0  0999 V2000
   -2.9464    1.3948   -3.7197 C   0  0  0  0  0  0  0  0  0  0  0  0
   -2.6789    0.4953   -2.6794 O   0  0  0  0  0  0  0  0  0  0  0  0
   -1.4260    0.2355   -2.1931 C   0  0  0  0  0  0  0  0  0  0  0  0
   -0.3107    0.8692   -2.7197 C   0  0  0  0  0  0  0  0  0  0  0  0
    0.9443    0.6059   -2.2292 C   0  0  0  0  0  0  0  0  0  0  0  0
    1.0981   -0.2908   -1.2099 C   0  0  0  0  0  0  0  0  0  0  0  0
    2.3615   -0.5931   -0.6747 O   0  0  0  0  0  0  0  0  0  0  0  0
    2.5004   -1.5251    0.3821 C   0  0  0  0  0  0  0  0  0  0  0  0
    4.0075   -1.5769    0.6767 C   0  0  0  0  0  0  0  0  0  0  0  0
    4.3814   -0.1627    1.0662 C   0  0  0  0  0  0  0  0  0  0  0  0
    5.8229   -0.0020    1.3935 C   0  0  0  0  0  0  0  0  0  0  0  0
    6.0831    1.4079    1.7583 C   0  0  0  0  0  0  0  0  0  0  0  0
    5.1438    2.2285    1.7505 O   0  0  0  0  0  0  0  0  0  0  0  0
    7.3458    1.8443    2.1097 O   0  0  0  0  0  0  0  0  0  0  0  0
   -0.0095   -0.9131   -0.6949 C   0  0  0  0  0  0  0  0  0  0  0  0
   -1.2755   -0.6739   -1.1605 C   0  0  0  0  0  0  0  0  0  0  0  0
   -2.4391   -1.3818   -0.5601 C   0  0  0  0  0  0  0  0  0  0  0  0
   -3.1943   -0.4972    0.3303 C   0  0  0  0  0  0  0  0  0  0  0  0
   -2.8015    0.8110    0.5259 C   0  0  0  0  0  0  0  0  0  0  0  0
   -3.5485    1.5547    1.3576 N   0  0  0  0  0  0  0  0  0  0  0  0
   -4.6383    1.1020    1.9983 C   0  0  0  0  0  0  0  0  0  0  0  0
   -5.3699    1.9737    2.8665 N   0  0  0  0  0  0  0  0  0  0  0  0
   -5.0304   -0.1855    1.8098 N   0  0  0  0  0  0  0  0  0  0  0  0
   -4.3210   -0.9791    0.9874 C   0  0  0  0  0  0  0  0  0  0  0  0
   -4.6943   -2.3365    0.7592 N   0  0  0  0  0  0  0  0  0  0  0  0
   -2.3278    1.1771   -4.6149 H   0  0  0  0  0  0  0  0  0  0  0  0
   -4.0170    1.2267   -4.0188 H   0  0  0  0  0  0  0  0  0  0  0  0
   -2.7835    2.4365   -3.4063 H   0  0  0  0  0  0  0  0  0  0  0  0
   -0.4517    1.5883   -3.5400 H   0  0  0  0  0  0  0  0  0  0  0  0
    1.8130    1.0941   -2.6333 H   0  0  0  0  0  0  0  0  0  0  0  0
    2.0989   -2.5159    0.1361 H   0  0  0  0  0  0  0  0  0  0  0  0
    2.0462   -1.0865    1.3043 H   0  0  0  0  0  0  0  0  0  0  0  0
    4.2184   -2.2843    1.5046 H   0  0  0  0  0  0  0  0  0  0  0  0
    4.4993   -1.8753   -0.2755 H   0  0  0  0  0  0  0  0  0  0  0  0
    4.0411    0.4903    0.2326 H   0  0  0  0  0  0  0  0  0  0  0  0
    3.7174    0.0997    1.9318 H   0  0  0  0  0  0  0  0  0  0  0  0
    6.0616   -0.6761    2.2398 H   0  0  0  0  0  0  0  0  0  0  0  0
    6.4104   -0.3197    0.5006 H   0  0  0  0  0  0  0  0  0  0  0  0
    7.4931    2.8198    2.2469 H   0  0  0  0  0  0  0  0  0  0  0  0
    0.1362   -1.6188    0.1111 H   0  0  0  0  0  0  0  0  0  0  0  0
   -3.0444   -1.8058   -1.3848 H   0  0  0  0  0  0  0  0  0  0  0  0
   -2.0522   -2.2362    0.0202 H   0  0  0  0  0  0  0  0  0  0  0  0
   -1.9214    1.2026    0.0182 H   0  0  0  0  0  0  0  0  0  0  0  0
   -6.3634    1.7815    3.0499 H   0  0  0  0  0  0  0  0  0  0  0  0
   -4.9086    2.7961    3.3119 H   0  0  0  0  0  0  0  0  0  0  0  0
   -4.9064   -2.9807    1.5461 H   0  0  0  0  0  0  0  0  0  0  0  0
   -4.7640   -2.7183   -0.2113 H   0  0  0  0  0  0  0  0  0  0  0  0
  1  2  1  0
  2  3  1  0
  3  4  2  0
  4  5  1  0
  5  6  2  0
  6  7  1  0
  7  8  1  0
  8  9  1  0
  9 10  1  0
 10 11  1  0
 11 12  1  0
 12 13  2  0
 12 14  1  0
  6 15  1  0
 15 16  2  0
 16 17  1  0
 17 18  1  0
 18 19  2  0
 19 20  1  0
 20 21  2  0
 21 22  1  0
 21 23  1  0
 23 24  2  0
 24 25  1  0
 16  3  1  0
 24 18  1  0
  1 26  1  0
  1 27  1  0
  1 28  1  0
  4 29  1  0
  5 30  1  0
  8 31  1  0
  8 32  1  0
  9 33  1  0
  9 34  1  0
 10 35  1  0
 10 36  1  0
 11 37  1  0
 11 38  1  0
 14 39  1  0
 15 40  1  0
 17 41  1  0
 17 42  1  0
 19 43  1  0
 22 44  1  0
 22 45  1  0
 25 46  1  0
 25 47  1  0
M  END
$$$$
