
     RDKit          3D

 39 41  0  0  0  0  0  0  0  0999 V2000
    6.5723   -0.2836    1.2679 C   0  0  0  0  0  0  0  0  0  0  0  0
    5.4700   -0.4147    0.2749 C   0  0  0  0  0  0  0  0  0  0  0  0
    5.6875   -0.7220   -0.8986 O   0  0  0  0  0  0  0  0  0  0  0  0
    4.0760   -0.1545    0.7709 C   0  0  0  0  0  0  0  0  0  0  0  0
    3.1876   -0.3301   -0.3166 O   0  0  0  0  0  0  0  0  0  0  0  0
    1.8209   -0.1468   -0.1261 C   0  0  0  0  0  0  0  0  0  0  0  0
    1.2744    0.2037    1.0900 C   0  0  0  0  0  0  0  0  0  0  0  0
   -0.1030    0.3671    1.1949 C   0  0  0  0  0  0  0  0  0  0  0  0
   -0.9519    0.1934    0.1312 C   0  0  0  0  0  0  0  0  0  0  0  0
   -2.3255    0.3582    0.2433 C   0  0  0  0  0  0  0  0  0  0  0  0
   -3.0725    0.1571   -0.8914 C   0  0  0  0  0  0  0  0  0  0  0  0
   -2.4664   -0.1934   -2.0829 C   0  0  0  0  0  0  0  0  0  0  0  0
   -3.2268   -0.3611   -3.0858 O   0  0  0  0  0  0  0  0  0  0  0  0
   -1.1775   -0.3348   -2.1336 O   0  0  0  0  0  0  0  0  0  0  0  0
   -0.3919   -0.1592   -1.0881 C   0  0  0  0  0  0  0  0  0  0  0  0
    0.9745   -0.3275   -1.2174 C   0  0  0  0  0  0  0  0  0  0  0  0
    1.5143   -0.7063   -2.5529 C   0  0  0  0  0  0  0  0  0  0  0  0
   -4.5474    0.3311   -0.7834 C   0  0  0  0  0  0  0  0  0  0  0  0
   -4.9598   -0.2112    0.5651 C   0  0  0  0  0  0  0  0  0  0  0  0
   -4.3518    0.6517    1.6459 C   0  0  0  0  0  0  0  0  0  0  0  0
   -2.8607    0.7310    1.5558 C   0  0  0  0  0  0  0  0  0  0  0  0
    6.5623   -1.1590    1.9566 H   0  0  0  0  0  0  0  0  0  0  0  0
    6.4651    0.6556    1.8429 H   0  0  0  0  0  0  0  0  0  0  0  0
    7.5681   -0.2095    0.7547 H   0  0  0  0  0  0  0  0  0  0  0  0
    3.9058   -0.9105    1.5787 H   0  0  0  0  0  0  0  0  0  0  0  0
    3.9872    0.8635    1.2065 H   0  0  0  0  0  0  0  0  0  0  0  0
    1.9236    0.3463    1.9437 H   0  0  0  0  0  0  0  0  0  0  0  0
   -0.5259    0.6410    2.1471 H   0  0  0  0  0  0  0  0  0  0  0  0
    1.4226   -1.8017   -2.7182 H   0  0  0  0  0  0  0  0  0  0  0  0
    0.9373   -0.1823   -3.3411 H   0  0  0  0  0  0  0  0  0  0  0  0
    2.5999   -0.4138   -2.6042 H   0  0  0  0  0  0  0  0  0  0  0  0
   -4.7204    1.4418   -0.8245 H   0  0  0  0  0  0  0  0  0  0  0  0
   -5.0739   -0.1906   -1.6084 H   0  0  0  0  0  0  0  0  0  0  0  0
   -6.0539   -0.1313    0.6505 H   0  0  0  0  0  0  0  0  0  0  0  0
   -4.5993   -1.2625    0.6272 H   0  0  0  0  0  0  0  0  0  0  0  0
   -4.8314    1.6600    1.5441 H   0  0  0  0  0  0  0  0  0  0  0  0
   -4.7022    0.2504    2.6192 H   0  0  0  0  0  0  0  0  0  0  0  0
   -2.5530    1.7567    1.8720 H   0  0  0  0  0  0  0  0  0  0  0  0
   -2.4545   -0.0024    2.3129 H   0  0  0  0  0  0  0  0  0  0  0  0
  1  2  1  0
  2  3  2  0
  2  4  1  0
  4  5  1  0
  5  6  1  0
  6  7  2  0
  7  8  1  0
  8  9  2  0
  9 10  1  0
 10 11  2  0
 11 12  1  0
 12 13  2  0
 12 14  1  0
 14 15  1  0
 15 16  2  0
 16 17  1  0
 11 18  1  0
 18 19  1  0
 19 20  1  0
 20 21  1  0
 16  6  1  0
 15  9  1  0
 21 10  1  0
  1 22  1  0
  1 23  1  0
  1 24  1  0
  4 25  1  0
  4 26  1  0
  7 27  1  0
  8 28  1  0
 17 29  1  0
 17 30  1  0
 17 31  1  0
 18 32  1  0
 18 33  1  0
 19 34  1  0
 19 35  1  0
 20 36  1  0
 20 37  1  0
 21 38  1  0
 21 39  1  0
M  END
$$$$
