@<TRIPOS>MOLECULE
*****
 39 41 0 0 0
SMALL
GASTEIGER

@<TRIPOS>ATOM
      1 C           6.5723   -0.2836    1.2679 C.3     1  UNL1       -0.0026
      2 C           5.4700   -0.4147    0.2749 C.2     1  UNL1        0.1673
      3 O           5.6875   -0.7220   -0.8986 O.2     1  UNL1       -0.2941
      4 C           4.0760   -0.1545    0.7709 C.3     1  UNL1        0.1470
      5 O           3.1876   -0.3301   -0.3166 O.3     1  UNL1       -0.4841
      6 C           1.8209   -0.1468   -0.1261 C.ar    1  UNL1        0.1275
      7 C           1.2744    0.2037    1.0900 C.ar    1  UNL1       -0.0189
      8 C          -0.1030    0.3671    1.1949 C.ar    1  UNL1       -0.0473
      9 C          -0.9519    0.1934    0.1312 C.ar    1  UNL1        0.0215
     10 C          -2.3255    0.3582    0.2433 C.ar    1  UNL1       -0.0268
     11 C          -3.0725    0.1571   -0.8914 C.ar    1  UNL1        0.0408
     12 C          -2.4664   -0.1934   -2.0829 C.ar    1  UNL1        0.3407
     13 O          -3.2268   -0.3611   -3.0858 O.2     1  UNL1       -0.2449
     14 O          -1.1775   -0.3348   -2.1336 O.2     1  UNL1       -0.4216
     15 C          -0.3919   -0.1592   -1.0881 C.ar    1  UNL1        0.1457
     16 C           0.9745   -0.3275   -1.2174 C.ar    1  UNL1        0.0341
     17 C           1.5143   -0.7063   -2.5529 C.3     1  UNL1       -0.0327
     18 C          -4.5474    0.3311   -0.7834 C.3     1  UNL1       -0.0206
     19 C          -4.9598   -0.2112    0.5651 C.3     1  UNL1       -0.0485
     20 C          -4.3518    0.6517    1.6459 C.3     1  UNL1       -0.0487
     21 C          -2.8607    0.7310    1.5558 C.3     1  UNL1       -0.0265
     22 H           6.5623   -1.1590    1.9566 H       1  UNL1        0.0307
     23 H           6.4651    0.6556    1.8429 H       1  UNL1        0.0307
     24 H           7.5681   -0.2095    0.7547 H       1  UNL1        0.0307
     25 H           3.9058   -0.9105    1.5787 H       1  UNL1        0.0777
     26 H           3.9872    0.8635    1.2065 H       1  UNL1        0.0777
     27 H           1.9236    0.3463    1.9437 H       1  UNL1        0.0654
     28 H          -0.5259    0.6410    2.1471 H       1  UNL1        0.0626
     29 H           1.4226   -1.8017   -2.7182 H       1  UNL1        0.0280
     30 H           0.9373   -0.1823   -3.3411 H       1  UNL1        0.0280
     31 H           2.5999   -0.4138   -2.6042 H       1  UNL1        0.0280
     32 H          -4.7204    1.4418   -0.8245 H       1  UNL1        0.0315
     33 H          -5.0739   -0.1906   -1.6084 H       1  UNL1        0.0315
     34 H          -6.0539   -0.1313    0.6505 H       1  UNL1        0.0269
     35 H          -4.5993   -1.2625    0.6272 H       1  UNL1        0.0269
     36 H          -4.8314    1.6600    1.5441 H       1  UNL1        0.0268
     37 H          -4.7022    0.2504    2.6192 H       1  UNL1        0.0268
     38 H          -2.5530    1.7567    1.8720 H       1  UNL1        0.0313
     39 H          -2.4545   -0.0024    2.3129 H       1  UNL1        0.0313
@<TRIPOS>BOND
     1     1     2    1
     2     2     3    2
     3     2     4    1
     4     4     5    1
     5     5     6    1
     6     6     7   ar
     7     7     8   ar
     8     8     9   ar
     9     9    10   ar
    10    10    11   ar
    11    11    12   ar
    12    12    13    2
    13    12    14   ar
    14    14    15   ar
    15    15    16   ar
    16    16    17    1
    17    11    18    1
    18    18    19    1
    19    19    20    1
    20    20    21    1
    21    16     6   ar
    22    15     9   ar
    23    21    10    1
    24     1    22    1
    25     1    23    1
    26     1    24    1
    27     4    25    1
    28     4    26    1
    29     7    27    1
    30     8    28    1
    31    17    29    1
    32    17    30    1
    33    17    31    1
    34    18    32    1
    35    18    33    1
    36    19    34    1
    37    19    35    1
    38    20    36    1
    39    20    37    1
    40    21    38    1
    41    21    39    1
