@<TRIPOS>MOLECULE
*****
 65 69 0 0 0
SMALL
GASTEIGER

@<TRIPOS>ATOM
      1 C          -7.8025    0.4284   -0.1430 C.3     1  UNL1       -0.0127
      2 N          -6.4842    0.0475    0.1251 N.3     1  UNL1       -0.3039
      3 C          -5.8933    0.5738    1.2562 C.3     1  UNL1       -0.0127
      4 C          -5.6758   -0.5022   -0.8951 C.3     1  UNL1        0.0270
      5 C          -6.1985   -1.8202   -1.4096 C.3     1  UNL1       -0.0200
      6 C          -4.9838   -2.5855   -1.8312 C.3     1  UNL1        0.0162
      7 N          -3.8861   -2.0182   -1.0999 N.am    1  UNL1       -0.2988
      8 C          -2.5860   -2.6580   -0.9822 C.2     1  UNL1        0.2325
      9 O          -2.3855   -3.8036   -1.4261 O.2     1  UNL1       -0.2741
     10 C          -1.4841   -1.9361   -0.3317 C.3     1  UNL1        0.1054
     11 C          -1.0139   -0.7670   -1.1439 C.3     1  UNL1       -0.0220
     12 C          -0.1125   -1.9177   -0.7817 C.3     1  UNL1        0.0134
     13 C           0.9267   -1.7243    0.3171 C.3     1  UNL1        0.0935
     14 C           1.0089   -2.9731    1.1323 C.3     1  UNL1       -0.0351
     15 C           2.2542   -1.5208   -0.3610 C.ar    1  UNL1        0.0158
     16 C           2.8873   -0.3036   -0.1989 C.ar    1  UNL1       -0.0463
     17 C           4.0529   -0.0246   -0.8685 C.ar    1  UNL1       -0.0217
     18 C           4.7822    1.2324   -0.7235 C.2     1  UNL1       -0.0172
     19 C           5.2282    1.6060    0.4834 C.2     1  UNL1        0.1492
     20 F           4.9823    0.8013    1.5178 F       1  UNL1       -0.2032
     21 C           5.9564    2.8522    0.6712 C.ar    1  UNL1        0.0990
     22 C           6.4674    3.2070    1.9179 C.ar    1  UNL1       -0.0322
     23 C           7.1325    4.3897    1.9875 C.ar    1  UNL1       -0.0408
     24 C           7.3204    5.2356    0.8910 C.ar    1  UNL1        0.0699
     25 C           8.0963    6.4416    0.9981 C.1     1  UNL1        0.1007
     26 N           8.7436    7.4148    1.0811 N.1     1  UNL1       -0.1908
     27 C           6.7801    4.8245   -0.3435 C.ar    1  UNL1        0.0457
     28 N           6.1417    3.6721   -0.3671 N.ar    1  UNL1       -0.2514
     29 C           4.5625   -0.9983   -1.6990 C.ar    1  UNL1       -0.0518
     30 C           3.9261   -2.2173   -1.8528 C.ar    1  UNL1       -0.0255
     31 C           2.7614   -2.5072   -1.1885 C.ar    1  UNL1        0.1289
     32 F           2.1237   -3.6792   -1.2819 F       1  UNL1       -0.2051
     33 N           0.6979   -0.5369    1.1193 N.2     1  UNL1       -0.2521
     34 C          -0.3919   -0.3598    1.7676 C.2     1  UNL1        0.1485
     35 N          -0.7624    0.6967    2.5765 N.pl3   1  UNL1       -0.3380
     36 S          -1.6296   -1.6943    1.4736 S.3     1  UNL1       -0.0746
     37 C          -4.2652   -0.7654   -0.4709 C.3     1  UNL1        0.0303
     38 H          -7.9183    1.5089   -0.3669 H       1  UNL1        0.0391
     39 H          -8.4296    0.2392    0.7660 H       1  UNL1        0.0391
     40 H          -8.2960   -0.1892   -0.9511 H       1  UNL1        0.0391
     41 H          -4.9802    1.2086    1.0450 H       1  UNL1        0.0391
     42 H          -5.6031   -0.1973    2.0180 H       1  UNL1        0.0391
     43 H          -6.5860    1.2590    1.8298 H       1  UNL1        0.0391
     44 H          -5.6947    0.1875   -1.8019 H       1  UNL1        0.0478
     45 H          -6.8927   -1.6413   -2.2892 H       1  UNL1        0.0296
     46 H          -6.7427   -2.3692   -0.6122 H       1  UNL1        0.0296
     47 H          -4.7912   -2.3211   -2.9162 H       1  UNL1        0.0465
     48 H          -5.0754   -3.6873   -1.7230 H       1  UNL1        0.0465
     49 H          -1.3052   -0.6879   -2.2136 H       1  UNL1        0.0287
     50 H          -0.7347    0.1837   -0.6921 H       1  UNL1        0.0287
     51 H           0.2042   -2.6318   -1.5568 H       1  UNL1        0.0346
     52 H           0.3957   -3.7922    0.7422 H       1  UNL1        0.0256
     53 H           0.7183   -2.6641    2.1880 H       1  UNL1        0.0256
     54 H           2.0922   -3.2562    1.2598 H       1  UNL1        0.0256
     55 H           2.5031    0.4685    0.4545 H       1  UNL1        0.0628
     56 H           4.9748    1.8941   -1.5374 H       1  UNL1        0.0653
     57 H           6.3256    2.5564    2.7413 H       1  UNL1        0.0640
     58 H           7.5676    4.7418    2.9269 H       1  UNL1        0.0631
     59 H           6.9267    5.5109   -1.1870 H       1  UNL1        0.0843
     60 H           5.4837   -0.8120   -2.2491 H       1  UNL1        0.0624
     61 H           4.3173   -2.9858   -2.5063 H       1  UNL1        0.0646
     62 H          -0.1642    1.5397    2.7667 H       1  UNL1        0.1442
     63 H          -1.7039    0.6791    3.0412 H       1  UNL1        0.1442
     64 H          -3.5647    0.0638   -0.7057 H       1  UNL1        0.0480
     65 H          -4.3041   -0.9162    0.6537 H       1  UNL1        0.0480
@<TRIPOS>BOND
     1     1     2    1
     2     2     3    1
     3     2     4    1
     4     4     5    1
     5     5     6    1
     6     6     7    1
     7     7     8   am
     8     8     9    2
     9    10     8    1
    10    10    11    1
    11    11    12    1
    12    12    13    1
    13    13    14    1
    14    13    15    1
    15    15    16   ar
    16    16    17   ar
    17    17    18    1
    18    18    19    2
    19    19    20    1
    20    19    21    1
    21    21    22   ar
    22    22    23   ar
    23    23    24   ar
    24    24    25    1
    25    25    26    3
    26    24    27   ar
    27    27    28   ar
    28    17    29   ar
    29    29    30   ar
    30    30    31   ar
    31    31    32    1
    32    13    33    1
    33    33    34    2
    34    34    35    1
    35    34    36    1
    36     7    37    1
    37    37     4    1
    38    12    10    1
    39    31    15   ar
    40    36    10    1
    41    28    21   ar
    42     1    38    1
    43     1    39    1
    44     1    40    1
    45     3    41    1
    46     3    42    1
    47     3    43    1
    48     4    44    1
    49     5    45    1
    50     5    46    1
    51     6    47    1
    52     6    48    1
    53    11    49    1
    54    11    50    1
    55    12    51    1
    56    14    52    1
    57    14    53    1
    58    14    54    1
    59    16    55    1
    60    18    56    1
    61    22    57    1
    62    23    58    1
    63    27    59    1
    64    29    60    1
    65    30    61    1
    66    35    62    1
    67    35    63    1
    68    37    64    1
    69    37    65    1
