
     RDKit          3D

 65 69  0  0  0  0  0  0  0  0999 V2000
   -7.8025    0.4284   -0.1430 C   0  0  0  0  0  0  0  0  0  0  0  0
   -6.4842    0.0475    0.1251 N   0  0  0  0  0  0  0  0  0  0  0  0
   -5.8933    0.5738    1.2562 C   0  0  0  0  0  0  0  0  0  0  0  0
   -5.6758   -0.5022   -0.8951 C   0  0  2  0  0  0  0  0  0  0  0  0
   -6.1985   -1.8202   -1.4096 C   0  0  0  0  0  0  0  0  0  0  0  0
   -4.9838   -2.5855   -1.8312 C   0  0  0  0  0  0  0  0  0  0  0  0
   -3.8861   -2.0182   -1.0999 N   0  0  0  0  0  0  0  0  0  0  0  0
   -2.5860   -2.6580   -0.9822 C   0  0  0  0  0  0  0  0  0  0  0  0
   -2.3855   -3.8036   -1.4261 O   0  0  0  0  0  0  0  0  0  0  0  0
   -1.4841   -1.9361   -0.3317 C   0  0  2  0  0  0  0  0  0  0  0  0
   -1.0139   -0.7670   -1.1439 C   0  0  0  0  0  0  0  0  0  0  0  0
   -0.1125   -1.9177   -0.7817 C   0  0  1  0  0  0  0  0  0  0  0  0
    0.9267   -1.7243    0.3171 C   0  0  1  0  0  0  0  0  0  0  0  0
    1.0089   -2.9731    1.1323 C   0  0  0  0  0  0  0  0  0  0  0  0
    2.2542   -1.5208   -0.3610 C   0  0  0  0  0  0  0  0  0  0  0  0
    2.8873   -0.3036   -0.1989 C   0  0  0  0  0  0  0  0  0  0  0  0
    4.0529   -0.0246   -0.8685 C   0  0  0  0  0  0  0  0  0  0  0  0
    4.7822    1.2324   -0.7235 C   0  0  0  0  0  0  0  0  0  0  0  0
    5.2282    1.6060    0.4834 C   0  0  0  0  0  0  0  0  0  0  0  0
    4.9823    0.8013    1.5178 F   0  0  0  0  0  0  0  0  0  0  0  0
    5.9564    2.8522    0.6712 C   0  0  0  0  0  0  0  0  0  0  0  0
    6.4674    3.2070    1.9179 C   0  0  0  0  0  0  0  0  0  0  0  0
    7.1325    4.3897    1.9875 C   0  0  0  0  0  0  0  0  0  0  0  0
    7.3204    5.2356    0.8910 C   0  0  0  0  0  0  0  0  0  0  0  0
    8.0963    6.4416    0.9981 C   0  0  0  0  0  0  0  0  0  0  0  0
    8.7436    7.4148    1.0811 N   0  0  0  0  0  0  0  0  0  0  0  0
    6.7801    4.8245   -0.3435 C   0  0  0  0  0  0  0  0  0  0  0  0
    6.1417    3.6721   -0.3671 N   0  0  0  0  0  0  0  0  0  0  0  0
    4.5625   -0.9983   -1.6990 C   0  0  0  0  0  0  0  0  0  0  0  0
    3.9261   -2.2173   -1.8528 C   0  0  0  0  0  0  0  0  0  0  0  0
    2.7614   -2.5072   -1.1885 C   0  0  0  0  0  0  0  0  0  0  0  0
    2.1237   -3.6792   -1.2819 F   0  0  0  0  0  0  0  0  0  0  0  0
    0.6979   -0.5369    1.1193 N   0  0  0  0  0  0  0  0  0  0  0  0
   -0.3919   -0.3598    1.7676 C   0  0  0  0  0  0  0  0  0  0  0  0
   -0.7624    0.6967    2.5765 N   0  0  0  0  0  0  0  0  0  0  0  0
   -1.6296   -1.6943    1.4736 S   0  0  0  0  0  0  0  0  0  0  0  0
   -4.2652   -0.7654   -0.4709 C   0  0  0  0  0  0  0  0  0  0  0  0
   -7.9183    1.5089   -0.3669 H   0  0  0  0  0  0  0  0  0  0  0  0
   -8.4296    0.2392    0.7660 H   0  0  0  0  0  0  0  0  0  0  0  0
   -8.2960   -0.1892   -0.9511 H   0  0  0  0  0  0  0  0  0  0  0  0
   -4.9802    1.2086    1.0450 H   0  0  0  0  0  0  0  0  0  0  0  0
   -5.6031   -0.1973    2.0180 H   0  0  0  0  0  0  0  0  0  0  0  0
   -6.5860    1.2590    1.8298 H   0  0  0  0  0  0  0  0  0  0  0  0
   -5.6947    0.1875   -1.8019 H   0  0  0  0  0  0  0  0  0  0  0  0
   -6.8927   -1.6413   -2.2892 H   0  0  0  0  0  0  0  0  0  0  0  0
   -6.7427   -2.3692   -0.6122 H   0  0  0  0  0  0  0  0  0  0  0  0
   -4.7912   -2.3211   -2.9162 H   0  0  0  0  0  0  0  0  0  0  0  0
   -5.0754   -3.6873   -1.7230 H   0  0  0  0  0  0  0  0  0  0  0  0
   -1.3052   -0.6879   -2.2136 H   0  0  0  0  0  0  0  0  0  0  0  0
   -0.7347    0.1837   -0.6921 H   0  0  0  0  0  0  0  0  0  0  0  0
    0.2042   -2.6318   -1.5568 H   0  0  0  0  0  0  0  0  0  0  0  0
    0.3957   -3.7922    0.7422 H   0  0  0  0  0  0  0  0  0  0  0  0
    0.7183   -2.6641    2.1880 H   0  0  0  0  0  0  0  0  0  0  0  0
    2.0922   -3.2562    1.2598 H   0  0  0  0  0  0  0  0  0  0  0  0
    2.5031    0.4685    0.4545 H   0  0  0  0  0  0  0  0  0  0  0  0
    4.9748    1.8941   -1.5374 H   0  0  0  0  0  0  0  0  0  0  0  0
    6.3256    2.5564    2.7413 H   0  0  0  0  0  0  0  0  0  0  0  0
    7.5676    4.7418    2.9269 H   0  0  0  0  0  0  0  0  0  0  0  0
    6.9267    5.5109   -1.1870 H   0  0  0  0  0  0  0  0  0  0  0  0
    5.4837   -0.8120   -2.2491 H   0  0  0  0  0  0  0  0  0  0  0  0
    4.3173   -2.9858   -2.5063 H   0  0  0  0  0  0  0  0  0  0  0  0
   -0.1642    1.5397    2.7667 H   0  0  0  0  0  0  0  0  0  0  0  0
   -1.7039    0.6791    3.0412 H   0  0  0  0  0  0  0  0  0  0  0  0
   -3.5647    0.0638   -0.7057 H   0  0  0  0  0  0  0  0  0  0  0  0
   -4.3041   -0.9162    0.6537 H   0  0  0  0  0  0  0  0  0  0  0  0
  1  2  1  0
  2  3  1  0
  2  4  1  0
  4  5  1  0
  5  6  1  0
  6  7  1  0
  7  8  1  0
  8  9  2  0
 10  8  1  6
 10 11  1  0
 11 12  1  0
 12 13  1  0
 13 14  1  1
 13 15  1  0
 15 16  2  0
 16 17  1  0
 17 18  1  0
 18 19  2  0
 19 20  1  0
 19 21  1  0
 21 22  2  0
 22 23  1  0
 23 24  2  0
 24 25  1  0
 25 26  3  0
 24 27  1  0
 27 28  2  0
 17 29  2  0
 29 30  1  0
 30 31  2  0
 31 32  1  0
 13 33  1  0
 33 34  2  0
 34 35  1  0
 34 36  1  0
  7 37  1  0
 37  4  1  0
 12 10  1  0
 31 15  1  0
 36 10  1  0
 28 21  1  0
  1 38  1  0
  1 39  1  0
  1 40  1  0
  3 41  1  0
  3 42  1  0
  3 43  1  0
  4 44  1  6
  5 45  1  0
  5 46  1  0
  6 47  1  0
  6 48  1  0
 11 49  1  0
 11 50  1  0
 12 51  1  6
 14 52  1  0
 14 53  1  0
 14 54  1  0
 16 55  1  0
 18 56  1  0
 22 57  1  0
 23 58  1  0
 27 59  1  0
 29 60  1  0
 30 61  1  0
 35 62  1  0
 35 63  1  0
 37 64  1  0
 37 65  1  0
M  END
$$$$
