
     RDKit          3D

 66 69  0  0  0  0  0  0  0  0999 V2000
   -2.5570   -5.3707    0.0028 C   0  0  0  0  0  0  0  0  0  0  0  0
   -1.1460   -5.1121    0.5500 C   0  0  0  0  0  0  0  0  0  0  0  0
   -0.3305   -6.3226    0.1987 C   0  0  0  0  0  0  0  0  0  0  0  0
   -0.5714   -3.9559   -0.1044 N   0  0  0  0  0  0  0  0  0  0  0  0
   -0.7717   -2.6212    0.3219 C   0  0  0  0  0  0  0  0  0  0  0  0
   -1.5269   -2.4094    1.2967 O   0  0  0  0  0  0  0  0  0  0  0  0
   -0.1463   -1.5444   -0.3288 N   0  0  0  0  0  0  0  0  0  0  0  0
   -0.6202   -0.1730   -0.0439 C   0  0  0  0  0  0  0  0  0  0  0  0
   -2.0341   -0.2455   -0.5308 C   0  0  0  0  0  0  0  0  0  0  0  0
   -2.3720   -0.9515   -1.6668 C   0  0  0  0  0  0  0  0  0  0  0  0
   -3.6205   -1.0242   -2.2017 C   0  0  0  0  0  0  0  0  0  0  0  0
   -4.6375   -0.2947   -1.5213 C   0  0  0  0  0  0  0  0  0  0  0  0
   -4.3140    0.4372   -0.3759 C   0  0  0  0  0  0  0  0  0  0  0  0
   -5.2090    1.5272   -0.0575 C   0  0  0  0  0  0  0  0  0  0  0  0
   -5.9979    2.4963    0.2071 C   0  0  0  0  0  0  0  0  0  0  0  0
   -6.8825    3.5892    0.4944 C   0  0  0  0  0  0  0  0  0  0  0  0
   -6.9295    4.5581   -0.6616 C   0  0  0  0  0  0  0  0  0  0  0  0
   -7.8819    5.5479   -0.3357 C   0  0  0  0  0  0  0  0  0  0  0  0
   -8.5753    5.6934    0.6459 N   0  0  0  0  0  0  0  0  0  0  0  0
   -8.5670    4.7849    1.8037 C   0  0  0  0  0  0  0  0  0  0  0  0
   -7.6259    3.7947    1.4883 C   0  0  0  0  0  0  0  0  0  0  0  0
   -3.0582    0.4832    0.1429 C   0  0  0  0  0  0  0  0  0  0  0  0
    1.0558   -1.6634   -1.1724 C   0  0  0  0  0  0  0  0  0  0  0  0
    2.1827   -1.2930   -0.2521 C   0  0  0  0  0  0  0  0  0  0  0  0
    2.2510   -1.9984    0.9246 C   0  0  0  0  0  0  0  0  0  0  0  0
    3.3139   -1.7188    1.7994 C   0  0  0  0  0  0  0  0  0  0  0  0
    4.2081   -0.7895    1.4505 C   0  0  0  0  0  0  0  0  0  0  0  0
    4.1579   -0.0306    0.2005 C   0  0  0  0  0  0  0  0  0  0  0  0
    5.1957    0.8754    0.0656 C   0  0  0  0  0  0  0  0  0  0  0  0
    6.1113    1.6952   -0.0407 C   0  0  0  0  0  0  0  0  0  0  0  0
    7.1841    2.6844   -0.1812 C   0  0  0  0  0  0  0  0  0  0  0  0
    8.4358    2.1055   -0.5215 C   0  0  0  0  0  0  0  0  0  0  0  0
    9.5490    2.8644   -0.4789 C   0  0  0  0  0  0  0  0  0  0  0  0
    9.5004    4.2205   -0.1045 C   0  0  0  0  0  0  0  0  0  0  0  0
   11.0263    5.1099    0.0288 Cl  0  0  0  0  0  0  0  0  0  0  0  0
    8.2849    4.7842    0.2178 C   0  0  0  0  0  0  0  0  0  0  0  0
    7.1266    3.9717    0.1697 C   0  0  0  0  0  0  0  0  0  0  0  0
    3.1178   -0.3258   -0.6135 C   0  0  0  0  0  0  0  0  0  0  0  0
   -2.8973   -6.4155    0.1115 H   0  0  0  0  0  0  0  0  0  0  0  0
   -3.2284   -4.6338    0.5520 H   0  0  0  0  0  0  0  0  0  0  0  0
   -2.6482   -5.0549   -1.0673 H   0  0  0  0  0  0  0  0  0  0  0  0
   -1.2220   -4.9814    1.6383 H   0  0  0  0  0  0  0  0  0  0  0  0
   -0.5028   -7.1002    0.9576 H   0  0  0  0  0  0  0  0  0  0  0  0
    0.7498   -6.0520    0.0681 H   0  0  0  0  0  0  0  0  0  0  0  0
   -0.6640   -6.7004   -0.8134 H   0  0  0  0  0  0  0  0  0  0  0  0
    0.0204   -4.0983   -0.9811 H   0  0  0  0  0  0  0  0  0  0  0  0
   -0.0843    0.5813   -0.6613 H   0  0  0  0  0  0  0  0  0  0  0  0
   -0.5668    0.0636    0.9920 H   0  0  0  0  0  0  0  0  0  0  0  0
   -1.5038   -1.4455   -2.1236 H   0  0  0  0  0  0  0  0  0  0  0  0
   -3.8425   -1.5603   -3.0856 H   0  0  0  0  0  0  0  0  0  0  0  0
   -5.6547   -0.3261   -1.8661 H   0  0  0  0  0  0  0  0  0  0  0  0
   -6.3273    4.3864   -1.4154 H   0  0  0  0  0  0  0  0  0  0  0  0
   -7.9402    6.2761   -1.2187 H   0  0  0  0  0  0  0  0  0  0  0  0
   -9.1345    4.9436    2.5742 H   0  0  0  0  0  0  0  0  0  0  0  0
   -7.5560    3.0147    2.3712 H   0  0  0  0  0  0  0  0  0  0  0  0
   -2.8451    1.0354    1.0367 H   0  0  0  0  0  0  0  0  0  0  0  0
    1.1963   -2.6848   -1.4946 H   0  0  0  0  0  0  0  0  0  0  0  0
    0.9643   -1.0119   -2.0404 H   0  0  0  0  0  0  0  0  0  0  0  0
    1.5268   -2.7546    1.1567 H   0  0  0  0  0  0  0  0  0  0  0  0
    3.3408   -2.2984    2.6880 H   0  0  0  0  0  0  0  0  0  0  0  0
    5.0193   -0.5606    2.1053 H   0  0  0  0  0  0  0  0  0  0  0  0
    8.4765    1.0730   -0.8444 H   0  0  0  0  0  0  0  0  0  0  0  0
   10.5460    2.4764   -0.7209 H   0  0  0  0  0  0  0  0  0  0  0  0
    8.2157    5.7996    0.5151 H   0  0  0  0  0  0  0  0  0  0  0  0
    6.1692    4.4196    0.4002 H   0  0  0  0  0  0  0  0  0  0  0  0
    3.0667    0.2304   -1.5349 H   0  0  0  0  0  0  0  0  0  0  0  0
  1  2  1  0
  2  3  1  0
  2  4  1  0
  4  5  1  0
  5  6  2  0
  5  7  1  0
  7  8  1  0
  8  9  1  0
  9 10  2  0
 10 11  1  0
 11 12  2  0
 12 13  1  0
 13 14  1  0
 14 15  3  0
 15 16  1  0
 16 17  2  0
 17 18  1  0
 18 19  2  0
 19 20  1  0
 20 21  2  0
 13 22  2  0
  7 23  1  0
 23 24  1  0
 24 25  2  0
 25 26  1  0
 26 27  2  0
 27 28  1  0
 28 29  1  0
 29 30  3  0
 30 31  1  0
 31 32  2  0
 32 33  1  0
 33 34  2  0
 34 35  1  0
 34 36  1  0
 36 37  2  0
 28 38  2  0
 22  9  1  0
 38 24  1  0
 21 16  1  0
 37 31  1  0
  1 39  1  0
  1 40  1  0
  1 41  1  0
  2 42  1  0
  3 43  1  0
  3 44  1  0
  3 45  1  0
  4 46  1  0
  8 47  1  0
  8 48  1  0
 10 49  1  0
 11 50  1  0
 12 51  1  0
 17 52  1  0
 18 53  1  0
 20 54  1  0
 21 55  1  0
 22 56  1  0
 23 57  1  0
 23 58  1  0
 25 59  1  0
 26 60  1  0
 27 61  1  0
 32 62  1  0
 33 63  1  0
 36 64  1  0
 37 65  1  0
 38 66  1  0
M  END
$$$$
