@<TRIPOS>MOLECULE
*****
 66 69 0 0 0
SMALL
GASTEIGER

@<TRIPOS>ATOM
      1 C          -2.5570   -5.3707    0.0028 C.3     1  UNL1       -0.0468
      2 C          -1.1460   -5.1121    0.5500 C.3     1  UNL1        0.0189
      3 C          -0.3305   -6.3226    0.1987 C.3     1  UNL1       -0.0468
      4 N          -0.5714   -3.9559   -0.1044 N.am    1  UNL1       -0.2969
      5 C          -0.7717   -2.6212    0.3219 C.2     1  UNL1        0.3030
      6 O          -1.5269   -2.4094    1.2967 O.2     1  UNL1       -0.2526
      7 N          -0.1463   -1.5444   -0.3288 N.am    1  UNL1       -0.2770
      8 C          -0.6202   -0.1730   -0.0439 C.3     1  UNL1        0.0416
      9 C          -2.0341   -0.2455   -0.5308 C.ar    1  UNL1       -0.0289
     10 C          -2.3720   -0.9515   -1.6668 C.ar    1  UNL1       -0.0570
     11 C          -3.6205   -1.0242   -2.2017 C.ar    1  UNL1       -0.0603
     12 C          -4.6375   -0.2947   -1.5213 C.ar    1  UNL1       -0.0463
     13 C          -4.3140    0.4372   -0.3759 C.ar    1  UNL1        0.0256
     14 C          -5.2090    1.5272   -0.0575 C.1     1  UNL1       -0.0610
     15 C          -5.9979    2.4963    0.2071 C.1     1  UNL1       -0.0609
     16 C          -6.8825    3.5892    0.4944 C.ar    1  UNL1        0.0281
     17 C          -6.9295    4.5581   -0.6616 C.ar    1  UNL1       -0.0282
     18 C          -7.8819    5.5479   -0.3357 C.ar    1  UNL1        0.0287
     19 N          -8.5753    5.6934    0.6459 N.ar    1  UNL1       -0.2632
     20 C          -8.5670    4.7849    1.8037 C.ar    1  UNL1        0.0287
     21 C          -7.6259    3.7947    1.4883 C.ar    1  UNL1       -0.0282
     22 C          -3.0582    0.4832    0.1429 C.ar    1  UNL1       -0.0416
     23 C           1.0558   -1.6634   -1.1724 C.3     1  UNL1        0.0416
     24 C           2.1827   -1.2930   -0.2521 C.ar    1  UNL1       -0.0289
     25 C           2.2510   -1.9984    0.9246 C.ar    1  UNL1       -0.0570
     26 C           3.3139   -1.7188    1.7994 C.ar    1  UNL1       -0.0603
     27 C           4.2081   -0.7895    1.4505 C.ar    1  UNL1       -0.0463
     28 C           4.1579   -0.0306    0.2005 C.ar    1  UNL1        0.0256
     29 C           5.1957    0.8754    0.0656 C.1     1  UNL1       -0.0610
     30 C           6.1113    1.6952   -0.0407 C.1     1  UNL1       -0.0610
     31 C           7.1841    2.6844   -0.1812 C.ar    1  UNL1        0.0254
     32 C           8.4358    2.1055   -0.5215 C.ar    1  UNL1       -0.0449
     33 C           9.5490    2.8644   -0.4789 C.ar    1  UNL1       -0.0422
     34 C           9.5004    4.2205   -0.1045 C.ar    1  UNL1        0.0410
     35 CL         11.0263    5.1099    0.0288 Cl      1  UNL1       -0.0835
     36 C           8.2849    4.7842    0.2178 C.ar    1  UNL1       -0.0422
     37 C           7.1266    3.9717    0.1697 C.ar    1  UNL1       -0.0449
     38 C           3.1178   -0.3258   -0.6135 C.ar    1  UNL1       -0.0416
     39 H          -2.8973   -6.4155    0.1115 H       1  UNL1        0.0247
     40 H          -3.2284   -4.6338    0.5520 H       1  UNL1        0.0247
     41 H          -2.6482   -5.0549   -1.0673 H       1  UNL1        0.0247
     42 H          -1.2220   -4.9814    1.6383 H       1  UNL1        0.0493
     43 H          -0.5028   -7.1002    0.9576 H       1  UNL1        0.0247
     44 H           0.7498   -6.0520    0.0681 H       1  UNL1        0.0247
     45 H          -0.6640   -6.7004   -0.8134 H       1  UNL1        0.0247
     46 H           0.0204   -4.0983   -0.9811 H       1  UNL1        0.1505
     47 H          -0.0843    0.5813   -0.6613 H       1  UNL1        0.0514
     48 H          -0.5668    0.0636    0.9920 H       1  UNL1        0.0514
     49 H          -1.5038   -1.4455   -2.1236 H       1  UNL1        0.0621
     50 H          -3.8425   -1.5603   -3.0856 H       1  UNL1        0.0618
     51 H          -5.6547   -0.3261   -1.8661 H       1  UNL1        0.0630
     52 H          -6.3273    4.3864   -1.4154 H       1  UNL1        0.0645
     53 H          -7.9402    6.2761   -1.2187 H       1  UNL1        0.0830
     54 H          -9.1345    4.9436    2.5742 H       1  UNL1        0.0830
     55 H          -7.5560    3.0147    2.3712 H       1  UNL1        0.0645
     56 H          -2.8451    1.0354    1.0367 H       1  UNL1        0.0633
     57 H           1.1963   -2.6848   -1.4946 H       1  UNL1        0.0514
     58 H           0.9643   -1.0119   -2.0404 H       1  UNL1        0.0514
     59 H           1.5268   -2.7546    1.1567 H       1  UNL1        0.0621
     60 H           3.3408   -2.2984    2.6880 H       1  UNL1        0.0618
     61 H           5.0193   -0.5606    2.1053 H       1  UNL1        0.0630
     62 H           8.4765    1.0730   -0.8444 H       1  UNL1        0.0630
     63 H          10.5460    2.4764   -0.7209 H       1  UNL1        0.0632
     64 H           8.2157    5.7996    0.5151 H       1  UNL1        0.0632
     65 H           6.1692    4.4196    0.4002 H       1  UNL1        0.0630
     66 H           3.0667    0.2304   -1.5349 H       1  UNL1        0.0633
@<TRIPOS>BOND
     1     1     2    1
     2     2     3    1
     3     2     4    1
     4     4     5   am
     5     5     6    2
     6     5     7   am
     7     7     8    1
     8     8     9    1
     9     9    10   ar
    10    10    11   ar
    11    11    12   ar
    12    12    13   ar
    13    13    14    1
    14    14    15    3
    15    15    16    1
    16    16    17   ar
    17    17    18   ar
    18    18    19   ar
    19    19    20   ar
    20    20    21   ar
    21    13    22   ar
    22     7    23    1
    23    23    24    1
    24    24    25   ar
    25    25    26   ar
    26    26    27   ar
    27    27    28   ar
    28    28    29    1
    29    29    30    3
    30    30    31    1
    31    31    32   ar
    32    32    33   ar
    33    33    34   ar
    34    34    35    1
    35    34    36   ar
    36    36    37   ar
    37    28    38   ar
    38    22     9   ar
    39    38    24   ar
    40    21    16   ar
    41    37    31   ar
    42     1    39    1
    43     1    40    1
    44     1    41    1
    45     2    42    1
    46     3    43    1
    47     3    44    1
    48     3    45    1
    49     4    46    1
    50     8    47    1
    51     8    48    1
    52    10    49    1
    53    11    50    1
    54    12    51    1
    55    17    52    1
    56    18    53    1
    57    20    54    1
    58    21    55    1
    59    22    56    1
    60    23    57    1
    61    23    58    1
    62    25    59    1
    63    26    60    1
    64    27    61    1
    65    32    62    1
    66    33    63    1
    67    36    64    1
    68    37    65    1
    69    38    66    1
