
     RDKit          3D

 76 81  0  0  0  0  0  0  0  0999 V2000
    7.7937   -5.8678   -1.5921 C   0  0  0  0  0  0  0  0  0  0  0  0
    6.8087   -5.5020   -2.5312 O   0  0  0  0  0  0  0  0  0  0  0  0
    5.8177   -4.9330   -1.8248 N   0  0  0  0  0  0  0  0  0  0  0  0
    5.8043   -3.5535   -1.5859 C   0  0  0  0  0  0  0  0  0  0  0  0
    6.7844   -2.8962   -2.0813 O   0  0  0  0  0  0  0  0  0  0  0  0
    4.8104   -2.8107   -0.8483 C   0  0  0  0  0  0  0  0  0  0  0  0
    4.9583   -1.4201   -0.7132 C   0  0  0  0  0  0  0  0  0  0  0  0
    4.0955   -0.6458   -0.0532 N   0  0  0  0  0  0  0  0  0  0  0  0
    4.2667    0.7624    0.0700 C   0  0  0  0  0  0  0  0  0  0  0  0
    3.2588    1.6687   -0.1774 C   0  0  0  0  0  0  0  0  0  0  0  0
    3.4317    3.0286   -0.0534 C   0  0  0  0  0  0  0  0  0  0  0  0
    4.6957    3.4754    0.3421 C   0  0  0  0  0  0  0  0  0  0  0  0
    5.7369    2.6098    0.6012 C   0  0  0  0  0  0  0  0  0  0  0  0
    5.4896    1.2593    0.4559 C   0  0  0  0  0  0  0  0  0  0  0  0
    6.9483    3.4144    0.9984 C   0  0  0  0  0  0  0  0  0  0  0  0
    6.6583    4.7454    0.2945 C   0  0  0  0  0  0  0  0  0  0  0  0
    5.1637    4.8620    0.5569 C   0  0  0  0  0  0  0  0  0  0  0  0
    3.0234   -1.2397    0.5130 C   0  0  0  0  0  0  0  0  0  0  0  0
    2.1473   -0.4389    1.1838 N   0  0  0  0  0  0  0  0  0  0  0  0
    1.0772   -1.0124    1.7513 C   0  0  0  0  0  0  0  0  0  0  0  0
    0.1234   -0.2074    2.4550 N   0  0  0  0  0  0  0  0  0  0  0  0
   -1.0109    0.2899    1.7615 C   0  0  0  0  0  0  0  0  0  0  0  0
   -2.0224    0.9454    2.4182 C   0  0  0  0  0  0  0  0  0  0  0  0
   -3.1193    1.4095    1.6929 C   0  0  0  0  0  0  0  0  0  0  0  0
   -3.2202    1.2319    0.3402 C   0  0  0  0  0  0  0  0  0  0  0  0
   -4.3923    1.7039   -0.4306 C   0  0  0  0  0  0  0  0  0  0  0  0
   -5.3625    0.5362   -0.4789 C   0  0  0  0  0  0  0  0  0  0  0  0
   -6.5592    0.8409   -1.1877 N   0  0  0  0  0  0  0  0  0  0  0  0
   -7.4346    1.7850   -0.5493 C   0  0  0  0  0  0  0  0  0  0  0  0
   -8.0949    1.0423    0.5980 C   0  0  0  0  0  0  0  0  0  0  0  0
   -8.9052    0.0085    0.0668 N   0  0  0  0  0  0  0  0  0  0  0  0
   -9.6757   -0.7010    1.0675 C   0  0  0  0  0  0  0  0  0  0  0  0
   -8.3083   -0.8646   -0.8957 C   0  0  0  0  0  0  0  0  0  0  0  0
   -7.2415   -0.2926   -1.7341 C   0  0  0  0  0  0  0  0  0  0  0  0
   -2.2043    0.5765   -0.3112 C   0  0  0  0  0  0  0  0  0  0  0  0
   -1.1060    0.1070    0.3904 C   0  0  0  0  0  0  0  0  0  0  0  0
    0.8762   -2.3434    1.6596 N   0  0  0  0  0  0  0  0  0  0  0  0
    1.7141   -3.1720    1.0075 C   0  0  0  0  0  0  0  0  0  0  0  0
    2.8155   -2.5951    0.4209 C   0  0  0  0  0  0  0  0  0  0  0  0
    3.7235   -3.4076   -0.2734 C   0  0  0  0  0  0  0  0  0  0  0  0
    3.5143   -4.6424   -0.3454 O   0  0  0  0  0  0  0  0  0  0  0  0
    7.5187   -6.8898   -1.2452 H   0  0  0  0  0  0  0  0  0  0  0  0
    7.8494   -5.1538   -0.7490 H   0  0  0  0  0  0  0  0  0  0  0  0
    8.7614   -5.8626   -2.1338 H   0  0  0  0  0  0  0  0  0  0  0  0
    5.0748   -5.5575   -1.4702 H   0  0  0  0  0  0  0  0  0  0  0  0
    5.8186   -0.9335   -1.1667 H   0  0  0  0  0  0  0  0  0  0  0  0
    2.2880    1.3079   -0.4823 H   0  0  0  0  0  0  0  0  0  0  0  0
    2.6312    3.7270   -0.2516 H   0  0  0  0  0  0  0  0  0  0  0  0
    6.3208    0.5804    0.6633 H   0  0  0  0  0  0  0  0  0  0  0  0
    7.8548    2.9678    0.5503 H   0  0  0  0  0  0  0  0  0  0  0  0
    6.9995    3.5275    2.0793 H   0  0  0  0  0  0  0  0  0  0  0  0
    7.2028    5.5826    0.7451 H   0  0  0  0  0  0  0  0  0  0  0  0
    6.8226    4.6240   -0.7903 H   0  0  0  0  0  0  0  0  0  0  0  0
    5.0458    5.1256    1.6291 H   0  0  0  0  0  0  0  0  0  0  0  0
    4.6732    5.5962   -0.1113 H   0  0  0  0  0  0  0  0  0  0  0  0
    0.2577    0.0116    3.4576 H   0  0  0  0  0  0  0  0  0  0  0  0
   -1.9666    1.0994    3.4895 H   0  0  0  0  0  0  0  0  0  0  0  0
   -3.8946    1.9140    2.2141 H   0  0  0  0  0  0  0  0  0  0  0  0
   -4.0227    1.9457   -1.4545 H   0  0  0  0  0  0  0  0  0  0  0  0
   -4.8464    2.6222   -0.0193 H   0  0  0  0  0  0  0  0  0  0  0  0
   -4.8347   -0.2626   -1.0785 H   0  0  0  0  0  0  0  0  0  0  0  0
   -5.5248    0.0996    0.5156 H   0  0  0  0  0  0  0  0  0  0  0  0
   -6.8717    2.6578   -0.2233 H   0  0  0  0  0  0  0  0  0  0  0  0
   -8.2074    2.0967   -1.2737 H   0  0  0  0  0  0  0  0  0  0  0  0
   -8.7666    1.7708    1.1056 H   0  0  0  0  0  0  0  0  0  0  0  0
   -7.3389    0.6851    1.3054 H   0  0  0  0  0  0  0  0  0  0  0  0
   -9.5853   -0.1835    2.0375 H   0  0  0  0  0  0  0  0  0  0  0  0
  -10.7006   -0.8294    0.7183 H   0  0  0  0  0  0  0  0  0  0  0  0
   -9.1800   -1.7035    1.1772 H   0  0  0  0  0  0  0  0  0  0  0  0
   -7.9853   -1.7975   -0.3464 H   0  0  0  0  0  0  0  0  0  0  0  0
   -9.1295   -1.2351   -1.5672 H   0  0  0  0  0  0  0  0  0  0  0  0
   -6.4721   -1.0843   -1.9368 H   0  0  0  0  0  0  0  0  0  0  0  0
   -7.6087    0.0135   -2.7580 H   0  0  0  0  0  0  0  0  0  0  0  0
   -2.2324    0.4091   -1.3800 H   0  0  0  0  0  0  0  0  0  0  0  0
   -0.3253   -0.3994   -0.1300 H   0  0  0  0  0  0  0  0  0  0  0  0
    1.4940   -4.2287    0.9717 H   0  0  0  0  0  0  0  0  0  0  0  0
  1  2  1  0
  2  3  1  0
  3  4  1  0
  4  5  2  0
  4  6  1  0
  6  7  2  0
  7  8  1  0
  8  9  1  0
  9 10  2  0
 10 11  1  0
 11 12  2  0
 12 13  1  0
 13 14  2  0
 13 15  1  0
 15 16  1  0
 16 17  1  0
  8 18  1  0
 18 19  2  0
 19 20  1  0
 20 21  1  0
 21 22  1  0
 22 23  2  0
 23 24  1  0
 24 25  2  0
 25 26  1  0
 26 27  1  0
 27 28  1  0
 28 29  1  0
 29 30  1  0
 30 31  1  0
 31 32  1  0
 31 33  1  0
 33 34  1  0
 25 35  1  0
 35 36  2  0
 20 37  2  0
 37 38  1  0
 38 39  2  0
 39 40  1  0
 40 41  2  0
 40  6  1  0
 14  9  1  0
 39 18  1  0
 17 12  1  0
 36 22  1  0
 34 28  1  0
  1 42  1  0
  1 43  1  0
  1 44  1  0
  3 45  1  0
  7 46  1  0
 10 47  1  0
 11 48  1  0
 14 49  1  0
 15 50  1  0
 15 51  1  0
 16 52  1  0
 16 53  1  0
 17 54  1  0
 17 55  1  0
 21 56  1  0
 23 57  1  0
 24 58  1  0
 26 59  1  0
 26 60  1  0
 27 61  1  0
 27 62  1  0
 29 63  1  0
 29 64  1  0
 30 65  1  0
 30 66  1  0
 32 67  1  0
 32 68  1  0
 32 69  1  0
 33 70  1  0
 33 71  1  0
 34 72  1  0
 34 73  1  0
 35 74  1  0
 36 75  1  0
 38 76  1  0
M  END
$$$$
