@<TRIPOS>MOLECULE
*****
 66 69 0 0 0
SMALL
GASTEIGER

@<TRIPOS>ATOM
      1 C          -9.4197   -0.4871    1.5028 C.3     1  UNL1        0.0789
      2 O          -9.4057    0.3573    0.3693 O.3     1  UNL1       -0.4933
      3 C          -9.0373   -0.1232   -0.8768 C.ar    1  UNL1        0.1450
      4 C         -10.0030   -0.6416   -1.7029 C.ar    1  UNL1        0.0603
      5 BR        -11.8112   -0.6911   -1.1278 Br      1  UNL1       -0.0465
      6 C          -9.6073   -1.1175   -2.9497 C.ar    1  UNL1       -0.0407
      7 C          -8.2873   -1.0667   -3.3357 C.ar    1  UNL1       -0.0175
      8 C          -7.3063   -0.5486   -2.5164 C.ar    1  UNL1        0.1392
      9 O          -5.9979   -0.3851   -2.6393 O.2     1  UNL1       -0.4558
     10 C          -5.4964    0.1590   -1.5777 C.ar    1  UNL1        0.1465
     11 C          -4.0884    0.5242   -1.2739 C.3     1  UNL1        0.1472
     12 O          -3.4553   -0.3596   -0.4014 O.3     1  UNL1       -0.4843
     13 C          -2.1362   -0.0930   -0.0621 C.ar    1  UNL1        0.1212
     14 C          -1.4482    0.9983   -0.5508 C.ar    1  UNL1       -0.0193
     15 C          -0.1169    1.2269   -0.1807 C.ar    1  UNL1       -0.0506
     16 C           0.5179    0.3682    0.6719 C.ar    1  UNL1       -0.0177
     17 C           1.8895    0.6087    1.0505 C.ar    1  UNL1       -0.0178
     18 C           2.7713   -0.4323    1.3421 C.ar    1  UNL1       -0.0522
     19 C           4.0856   -0.2297    1.7051 C.ar    1  UNL1       -0.0348
     20 C           4.5594    1.0613    1.7863 C.ar    1  UNL1        0.1053
     21 S           6.2373    1.2906    2.2432 S.O2    1  UNL1        0.0591
     22 O           6.6958    0.0779    3.0375 O.2     1  UNL1       -0.1530
     23 O           6.4138    2.4692    3.1355 O.2     1  UNL1       -0.1530
     24 N           7.2686    1.3770    0.8603 N.3     1  UNL1       -0.1759
     25 C           7.2577    0.1836    0.0701 C.3     1  UNL1        0.1276
     26 C           6.7478    0.4444   -1.3169 C.2     1  UNL1        0.3238
     27 O           6.4132    1.6260   -1.5826 O.2     1  UNL1       -0.2492
     28 O           6.6561   -0.5666   -2.2420 O.3     1  UNL1       -0.4795
     29 C           8.6459   -0.4259   -0.0655 C.3     1  UNL1       -0.0194
     30 C           9.1928   -0.7801    1.2915 C.3     1  UNL1       -0.0607
     31 C           8.5846   -1.6940   -0.8875 C.3     1  UNL1       -0.0607
     32 C           3.7293    2.1314    1.5084 C.ar    1  UNL1       -0.0348
     33 C           2.4236    1.8896    1.1494 C.ar    1  UNL1       -0.0522
     34 C          -0.1497   -0.7129    1.1620 C.ar    1  UNL1       -0.0506
     35 C          -1.4605   -0.9356    0.7958 C.ar    1  UNL1       -0.0193
     36 C          -6.5401    0.3748   -0.6820 C.ar    1  UNL1        0.0052
     37 C          -6.4754    0.9724    0.6709 C.3     1  UNL1       -0.0356
     38 C          -7.7149   -0.0728   -1.2646 C.ar    1  UNL1        0.0661
     39 H         -10.4593   -0.7044    1.8430 H       1  UNL1        0.0660
     40 H          -8.9313   -1.4522    1.2436 H       1  UNL1        0.0660
     41 H          -8.8827   -0.0649    2.3577 H       1  UNL1        0.0660
     42 H         -10.3900   -1.5163   -3.5697 H       1  UNL1        0.0631
     43 H          -8.0412   -1.4515   -4.3159 H       1  UNL1        0.0655
     44 H          -3.5117    0.5720   -2.2200 H       1  UNL1        0.0779
     45 H          -4.0128    1.5503   -0.8090 H       1  UNL1        0.0779
     46 H          -1.9108    1.6909   -1.2183 H       1  UNL1        0.0654
     47 H           0.4054    2.0908   -0.5768 H       1  UNL1        0.0625
     48 H           2.4008   -1.4476    1.2785 H       1  UNL1        0.0624
     49 H           4.7530   -1.0659    1.9287 H       1  UNL1        0.0637
     50 H           6.9489    2.1825    0.2773 H       1  UNL1        0.1489
     51 H           6.5976   -0.5840    0.4831 H       1  UNL1        0.0595
     52 H           6.8004   -0.3327   -3.2198 H       1  UNL1        0.2951
     53 H           9.3017    0.2801   -0.6161 H       1  UNL1        0.0316
     54 H          10.2277   -1.1435    1.1452 H       1  UNL1        0.0233
     55 H           8.5851   -1.5804    1.7324 H       1  UNL1        0.0233
     56 H           9.2189    0.1388    1.9199 H       1  UNL1        0.0233
     57 H           9.3251   -2.4451   -0.5324 H       1  UNL1        0.0233
     58 H           8.8175   -1.4946   -1.9589 H       1  UNL1        0.0233
     59 H           7.6006   -2.1811   -0.8432 H       1  UNL1        0.0233
     60 H           4.1352    3.1322    1.5824 H       1  UNL1        0.0637
     61 H           1.7657    2.7154    0.9301 H       1  UNL1        0.0624
     62 H           0.3396   -1.3938    1.8330 H       1  UNL1        0.0625
     63 H          -2.0067   -1.7900    1.1752 H       1  UNL1        0.0654
     64 H          -5.5632    1.6382    0.6770 H       1  UNL1        0.0279
     65 H          -6.3134    0.2455    1.4738 H       1  UNL1        0.0279
     66 H          -7.3324    1.6605    0.8830 H       1  UNL1        0.0279
@<TRIPOS>BOND
     1     1     2    1
     2     2     3    1
     3     3     4   ar
     4     4     5    1
     5     4     6   ar
     6     6     7   ar
     7     7     8   ar
     8     8     9   ar
     9     9    10   ar
    10    10    11    1
    11    11    12    1
    12    12    13    1
    13    13    14   ar
    14    14    15   ar
    15    15    16   ar
    16    16    17    1
    17    17    18   ar
    18    18    19   ar
    19    19    20   ar
    20    20    21    1
    21    21    22    2
    22    21    23    2
    23    21    24    1
    24    24    25    1
    25    25    26    1
    26    26    27    2
    27    26    28    1
    28    25    29    1
    29    29    30    1
    30    29    31    1
    31    20    32   ar
    32    32    33   ar
    33    16    34   ar
    34    34    35   ar
    35    10    36   ar
    36    36    37    1
    37    36    38   ar
    38    38     3   ar
    39    38     8   ar
    40    35    13   ar
    41    33    17   ar
    42     1    39    1
    43     1    40    1
    44     1    41    1
    45     6    42    1
    46     7    43    1
    47    11    44    1
    48    11    45    1
    49    14    46    1
    50    15    47    1
    51    18    48    1
    52    19    49    1
    53    24    50    1
    54    25    51    1
    55    28    52    1
    56    29    53    1
    57    30    54    1
    58    30    55    1
    59    30    56    1
    60    31    57    1
    61    31    58    1
    62    31    59    1
    63    32    60    1
    64    33    61    1
    65    34    62    1
    66    35    63    1
    67    37    64    1
    68    37    65    1
    69    37    66    1
