
     RDKit          3D

 66 69  0  0  0  0  0  0  0  0999 V2000
   -9.4197   -0.4871    1.5028 C   0  0  0  0  0  0  0  0  0  0  0  0
   -9.4057    0.3573    0.3693 O   0  0  0  0  0  0  0  0  0  0  0  0
   -9.0373   -0.1232   -0.8768 C   0  0  0  0  0  0  0  0  0  0  0  0
  -10.0030   -0.6416   -1.7029 C   0  0  0  0  0  0  0  0  0  0  0  0
  -11.8112   -0.6911   -1.1278 Br  0  0  0  0  0  0  0  0  0  0  0  0
   -9.6073   -1.1175   -2.9497 C   0  0  0  0  0  0  0  0  0  0  0  0
   -8.2873   -1.0667   -3.3357 C   0  0  0  0  0  0  0  0  0  0  0  0
   -7.3063   -0.5486   -2.5164 C   0  0  0  0  0  0  0  0  0  0  0  0
   -5.9979   -0.3851   -2.6393 O   0  0  0  0  0  0  0  0  0  0  0  0
   -5.4964    0.1590   -1.5777 C   0  0  0  0  0  0  0  0  0  0  0  0
   -4.0884    0.5242   -1.2739 C   0  0  0  0  0  0  0  0  0  0  0  0
   -3.4553   -0.3596   -0.4014 O   0  0  0  0  0  0  0  0  0  0  0  0
   -2.1362   -0.0930   -0.0621 C   0  0  0  0  0  0  0  0  0  0  0  0
   -1.4482    0.9983   -0.5508 C   0  0  0  0  0  0  0  0  0  0  0  0
   -0.1169    1.2269   -0.1807 C   0  0  0  0  0  0  0  0  0  0  0  0
    0.5179    0.3682    0.6719 C   0  0  0  0  0  0  0  0  0  0  0  0
    1.8895    0.6087    1.0505 C   0  0  0  0  0  0  0  0  0  0  0  0
    2.7713   -0.4323    1.3421 C   0  0  0  0  0  0  0  0  0  0  0  0
    4.0856   -0.2297    1.7051 C   0  0  0  0  0  0  0  0  0  0  0  0
    4.5594    1.0613    1.7863 C   0  0  0  0  0  0  0  0  0  0  0  0
    6.2373    1.2906    2.2432 S   0  0  0  0  0  6  0  0  0  0  0  0
    6.6958    0.0779    3.0375 O   0  0  0  0  0  0  0  0  0  0  0  0
    6.4138    2.4692    3.1355 O   0  0  0  0  0  0  0  0  0  0  0  0
    7.2686    1.3770    0.8603 N   0  0  0  0  0  0  0  0  0  0  0  0
    7.2577    0.1836    0.0701 C   0  0  1  0  0  0  0  0  0  0  0  0
    6.7478    0.4444   -1.3169 C   0  0  0  0  0  0  0  0  0  0  0  0
    6.4132    1.6260   -1.5826 O   0  0  0  0  0  0  0  0  0  0  0  0
    6.6561   -0.5666   -2.2420 O   0  0  0  0  0  0  0  0  0  0  0  0
    8.6459   -0.4259   -0.0655 C   0  0  0  0  0  0  0  0  0  0  0  0
    9.1928   -0.7801    1.2915 C   0  0  0  0  0  0  0  0  0  0  0  0
    8.5846   -1.6940   -0.8875 C   0  0  0  0  0  0  0  0  0  0  0  0
    3.7293    2.1314    1.5084 C   0  0  0  0  0  0  0  0  0  0  0  0
    2.4236    1.8896    1.1494 C   0  0  0  0  0  0  0  0  0  0  0  0
   -0.1497   -0.7129    1.1620 C   0  0  0  0  0  0  0  0  0  0  0  0
   -1.4605   -0.9356    0.7958 C   0  0  0  0  0  0  0  0  0  0  0  0
   -6.5401    0.3748   -0.6820 C   0  0  0  0  0  0  0  0  0  0  0  0
   -6.4754    0.9724    0.6709 C   0  0  0  0  0  0  0  0  0  0  0  0
   -7.7149   -0.0728   -1.2646 C   0  0  0  0  0  0  0  0  0  0  0  0
  -10.4593   -0.7044    1.8430 H   0  0  0  0  0  0  0  0  0  0  0  0
   -8.9313   -1.4522    1.2436 H   0  0  0  0  0  0  0  0  0  0  0  0
   -8.8827   -0.0649    2.3577 H   0  0  0  0  0  0  0  0  0  0  0  0
  -10.3900   -1.5163   -3.5697 H   0  0  0  0  0  0  0  0  0  0  0  0
   -8.0412   -1.4515   -4.3159 H   0  0  0  0  0  0  0  0  0  0  0  0
   -3.5117    0.5720   -2.2200 H   0  0  0  0  0  0  0  0  0  0  0  0
   -4.0128    1.5503   -0.8090 H   0  0  0  0  0  0  0  0  0  0  0  0
   -1.9108    1.6909   -1.2183 H   0  0  0  0  0  0  0  0  0  0  0  0
    0.4054    2.0908   -0.5768 H   0  0  0  0  0  0  0  0  0  0  0  0
    2.4008   -1.4476    1.2785 H   0  0  0  0  0  0  0  0  0  0  0  0
    4.7530   -1.0659    1.9287 H   0  0  0  0  0  0  0  0  0  0  0  0
    6.9489    2.1825    0.2773 H   0  0  0  0  0  0  0  0  0  0  0  0
    6.5976   -0.5840    0.4831 H   0  0  0  0  0  0  0  0  0  0  0  0
    6.8004   -0.3327   -3.2198 H   0  0  0  0  0  0  0  0  0  0  0  0
    9.3017    0.2801   -0.6161 H   0  0  0  0  0  0  0  0  0  0  0  0
   10.2277   -1.1435    1.1452 H   0  0  0  0  0  0  0  0  0  0  0  0
    8.5851   -1.5804    1.7324 H   0  0  0  0  0  0  0  0  0  0  0  0
    9.2189    0.1388    1.9199 H   0  0  0  0  0  0  0  0  0  0  0  0
    9.3251   -2.4451   -0.5324 H   0  0  0  0  0  0  0  0  0  0  0  0
    8.8175   -1.4946   -1.9589 H   0  0  0  0  0  0  0  0  0  0  0  0
    7.6006   -2.1811   -0.8432 H   0  0  0  0  0  0  0  0  0  0  0  0
    4.1352    3.1322    1.5824 H   0  0  0  0  0  0  0  0  0  0  0  0
    1.7657    2.7154    0.9301 H   0  0  0  0  0  0  0  0  0  0  0  0
    0.3396   -1.3938    1.8330 H   0  0  0  0  0  0  0  0  0  0  0  0
   -2.0067   -1.7900    1.1752 H   0  0  0  0  0  0  0  0  0  0  0  0
   -5.5632    1.6382    0.6770 H   0  0  0  0  0  0  0  0  0  0  0  0
   -6.3134    0.2455    1.4738 H   0  0  0  0  0  0  0  0  0  0  0  0
   -7.3324    1.6605    0.8830 H   0  0  0  0  0  0  0  0  0  0  0  0
  1  2  1  0
  2  3  1  0
  3  4  2  0
  4  5  1  0
  4  6  1  0
  6  7  2  0
  7  8  1  0
  8  9  1  0
  9 10  1  0
 10 11  1  0
 11 12  1  0
 12 13  1  0
 13 14  2  0
 14 15  1  0
 15 16  2  0
 16 17  1  0
 17 18  2  0
 18 19  1  0
 19 20  2  0
 20 21  1  0
 21 22  2  0
 21 23  2  0
 21 24  1  0
 24 25  1  0
 25 26  1  0
 26 27  2  0
 26 28  1  0
 25 29  1  0
 29 30  1  0
 29 31  1  0
 20 32  1  0
 32 33  2  0
 16 34  1  0
 34 35  2  0
 10 36  2  0
 36 37  1  0
 36 38  1  0
 38  3  1  0
 38  8  2  0
 35 13  1  0
 33 17  1  0
  1 39  1  0
  1 40  1  0
  1 41  1  0
  6 42  1  0
  7 43  1  0
 11 44  1  0
 11 45  1  0
 14 46  1  0
 15 47  1  0
 18 48  1  0
 19 49  1  0
 24 50  1  0
 25 51  1  1
 28 52  1  0
 29 53  1  0
 30 54  1  0
 30 55  1  0
 30 56  1  0
 31 57  1  0
 31 58  1  0
 31 59  1  0
 32 60  1  0
 33 61  1  0
 34 62  1  0
 35 63  1  0
 37 64  1  0
 37 65  1  0
 37 66  1  0
M  END
$$$$
