@<TRIPOS>MOLECULE
*****
 97 99 0 0 0
SMALL
GASTEIGER

@<TRIPOS>ATOM
      1 C           0.6877    0.1991   -0.5493 C.3     1  UNL1        0.0901
      2 O           0.6371    0.0622   -1.9178 O.3     1  UNL1       -0.3863
      3 C           2.0704    0.0566   -0.0090 C.2     1  UNL1       -0.0119
      4 O           2.6122   -1.2408    0.1202 O.co2   1  UNL1       -0.8617
      5 N           2.4716    1.2442    0.2286 N.2     1  UNL1       -0.3007
      6 C           3.7213    1.6638    0.7535 C.3     1  UNL1        0.0430
      7 C           4.7330    2.0272   -0.2813 C.3     1  UNL1       -0.0053
      8 C           5.1089    0.9226   -1.1990 C.2     1  UNL1       -0.0399
      9 O           4.0012    0.5751   -1.9455 O.co2   1  UNL1       -0.8634
     10 N           6.2611    0.3003   -1.3695 N.2     1  UNL1       -0.3028
     11 C           7.4039    0.6724   -0.5985 C.3     1  UNL1        0.0480
     12 C           7.9221   -0.5614    0.1438 C.3     1  UNL1        0.0204
     13 S           9.3535   -0.0281    1.1345 S.3     1  UNL1       -0.0862
     14 C          10.6416    0.4798    0.0081 C.2     1  UNL1        0.1921
     15 O          10.4601    0.4048   -1.2042 O.2     1  UNL1       -0.2851
     16 C          11.9283    0.9946    0.5542 C.3     1  UNL1        0.0451
     17 C          12.8264   -0.2027    0.7841 C.3     1  UNL1        0.0758
     18 C          14.1331    0.3322    1.3440 C.3     1  UNL1       -0.0353
     19 O          12.2001   -1.0349    1.7000 O.3     1  UNL1       -0.3880
     20 C          13.0539   -0.8725   -0.5577 C.3     1  UNL1        0.0159
     21 C          13.9390   -2.0560   -0.3572 C.2     1  UNL1        0.0445
     22 O          15.0198   -2.8672   -0.6092 O.co2   1  UNL1       -0.5497
     23 O          13.6428   -2.8821    0.5406 O.co2   1  UNL1       -0.5497
     24 C          -0.0797    1.3578   -0.0267 C.3     1  UNL1        0.0194
     25 C           0.0617    1.3717    1.4854 C.3     1  UNL1       -0.0550
     26 C           0.4280    2.6922   -0.5274 C.3     1  UNL1       -0.0550
     27 C          -1.5235    1.2346   -0.4693 C.3     1  UNL1        0.0669
     28 O          -2.1114    0.0533   -0.0060 O.3     1  UNL1       -0.2858
     29 P          -3.6730    0.0420   -0.6929 P.3     1  UNL1        0.4834
     30 O          -3.5121    0.5233   -2.3329 O.3     1  UNL1       -0.3022
     31 O          -4.5070    1.0599    0.0587 O.2     1  UNL1       -0.2269
     32 O          -4.3828   -1.4661   -0.6188 O.3     1  UNL1       -0.1861
     33 P          -4.6261   -1.8932    1.0035 P.3     1  UNL1        0.4835
     34 O          -4.6783   -0.5396    1.9806 O.3     1  UNL1       -0.3022
     35 O          -3.4558   -2.8013    1.4260 O.2     1  UNL1       -0.2269
     36 O          -6.0061   -2.8476    1.0476 O.3     1  UNL1       -0.2837
     37 C          -7.0866   -2.2137    1.5994 C.3     1  UNL1        0.0879
     38 C          -8.3608   -2.8820    1.0730 C.3     1  UNL1        0.1140
     39 O          -9.4325   -2.2371    1.6220 O.3     1  UNL1       -0.3456
     40 C         -10.1704   -1.6004    0.6643 C.3     1  UNL1        0.1667
     41 N         -10.0171   -0.1698    0.8005 N.ar    1  UNL1       -0.2855
     42 C         -10.6834    0.5606    1.7421 C.ar    1  UNL1        0.1004
     43 N         -10.3353    1.8506    1.6093 N.ar    1  UNL1       -0.2306
     44 C          -9.4478    2.0167    0.6025 C.ar    1  UNL1        0.1473
     45 C          -8.7905    3.0841    0.0705 C.ar    1  UNL1        0.1472
     46 N          -9.0857    4.3502    0.6865 N.pl3   1  UNL1       -0.3413
     47 N          -7.9465    2.8371   -0.9633 N.ar    1  UNL1       -0.2188
     48 C          -7.7794    1.5986   -1.4272 C.ar    1  UNL1        0.1205
     49 N          -8.4270    0.5489   -0.9032 N.ar    1  UNL1       -0.2159
     50 C          -9.2716    0.7388    0.1191 C.ar    1  UNL1        0.1674
     51 C          -9.7570   -2.1334   -0.6740 C.3     1  UNL1        0.1291
     52 O         -10.6522   -3.1398   -1.0954 O.3     1  UNL1       -0.3846
     53 C          -8.4338   -2.8139   -0.4134 C.3     1  UNL1        0.1202
     54 O          -8.3702   -4.1092   -0.9524 O.3     1  UNL1       -0.3587
     55 P          -7.0657   -4.2402   -2.0347 P.3     1  UNL1       -0.0144
     56 O          -5.6831   -4.8818   -1.2738 O.co2   1  UNL1       -0.5770
     57 O          -6.7202   -2.7750   -2.7800 O.co2   1  UNL1       -0.5770
     58 O          -7.4690   -5.2349   -3.1132 O.2     1  UNL1       -0.6377
     59 H           0.1315   -0.7192   -0.1518 H       1  UNL1        0.0653
     60 H           1.0052    0.7974   -2.4260 H       1  UNL1        0.2103
     61 H           3.5200    2.5996    1.3426 H       1  UNL1        0.0511
     62 H           4.1278    0.9575    1.5209 H       1  UNL1        0.0511
     63 H           4.2451    2.8681   -0.8803 H       1  UNL1        0.0334
     64 H           5.5985    2.5185    0.1820 H       1  UNL1        0.0334
     65 H           7.3159    1.5349    0.0489 H       1  UNL1        0.0516
     66 H           8.1988    0.9492   -1.3598 H       1  UNL1        0.0516
     67 H           8.1773   -1.3701   -0.5654 H       1  UNL1        0.0398
     68 H           7.1159   -0.9242    0.8040 H       1  UNL1        0.0398
     69 H          12.3431    1.6720   -0.2290 H       1  UNL1        0.0378
     70 H          11.8181    1.5425    1.5135 H       1  UNL1        0.0378
     71 H          14.6336    0.8878    0.5083 H       1  UNL1        0.0257
     72 H          14.7599   -0.4288    1.8201 H       1  UNL1        0.0257
     73 H          13.8209    1.1557    2.0470 H       1  UNL1        0.0257
     74 H          11.6648   -1.7507    1.3015 H       1  UNL1        0.2102
     75 H          12.0775   -1.2864   -0.9537 H       1  UNL1        0.0353
     76 H          13.4137   -0.1702   -1.3289 H       1  UNL1        0.0353
     77 H          -0.9185    1.5442    1.9817 H       1  UNL1        0.0237
     78 H           0.4528    0.3784    1.8275 H       1  UNL1        0.0237
     79 H           0.8202    2.1095    1.7713 H       1  UNL1        0.0237
     80 H           0.9360    2.6036   -1.4935 H       1  UNL1        0.0237
     81 H           1.0348    3.2383    0.2509 H       1  UNL1        0.0237
     82 H          -0.4464    3.3665   -0.7005 H       1  UNL1        0.0237
     83 H          -1.6215    1.2795   -1.5677 H       1  UNL1        0.0572
     84 H          -2.1252    2.1066   -0.0674 H       1  UNL1        0.0572
     85 H          -3.4636    1.4905   -2.4380 H       1  UNL1        0.2220
     86 H          -5.4954   -0.0305    1.8601 H       1  UNL1        0.2220
     87 H          -7.0569   -2.3660    2.7068 H       1  UNL1        0.0592
     88 H          -7.0941   -1.1430    1.3709 H       1  UNL1        0.0592
     89 H          -8.2946   -3.9620    1.3754 H       1  UNL1        0.0647
     90 H         -11.2749   -1.7966    0.8119 H       1  UNL1        0.0866
     91 H         -11.3809    0.2046    2.4826 H       1  UNL1        0.1030
     92 H          -8.4545    5.1332    1.0267 H       1  UNL1        0.1438
     93 H         -10.0981    4.5814    0.8459 H       1  UNL1        0.1438
     94 H          -7.0724    1.5785   -2.2548 H       1  UNL1        0.1048
     95 H          -9.6957   -1.3794   -1.4792 H       1  UNL1        0.0666
     96 H         -10.8674   -3.7222   -0.3102 H       1  UNL1        0.2101
     97 H          -7.6286   -2.1794   -0.8620 H       1  UNL1        0.0653
@<TRIPOS>UNITY_ATOM_ATTR
4 1
charge -1
9 1
charge -1
22 1
charge -1
56 1
charge -1
57 1
charge -1
@<TRIPOS>BOND
     1     1     2    1
     2     1     3    1
     3     3     4    1
     4     3     5    2
     5     5     6    1
     6     6     7    1
     7     7     8    1
     8     8     9    1
     9     8    10    2
    10    10    11    1
    11    11    12    1
    12    12    13    1
    13    13    14    1
    14    14    15    2
    15    14    16    1
    16    16    17    1
    17    17    18    1
    18    17    19    1
    19    17    20    1
    20    20    21    1
    21    21    22   ar
    22    21    23   ar
    23     1    24    1
    24    24    25    1
    25    24    26    1
    26    24    27    1
    27    27    28    1
    28    28    29    1
    29    29    30    1
    30    29    31    2
    31    29    32    1
    32    32    33    1
    33    33    34    1
    34    33    35    2
    35    33    36    1
    36    36    37    1
    37    37    38    1
    38    38    39    1
    39    39    40    1
    40    40    41    1
    41    41    42   ar
    42    42    43   ar
    43    43    44   ar
    44    44    45   ar
    45    45    46    1
    46    45    47   ar
    47    47    48   ar
    48    48    49   ar
    49    49    50   ar
    50    40    51    1
    51    51    52    1
    52    51    53    1
    53    53    54    1
    54    54    55    1
    55    55    56    1
    56    55    57    1
    57    55    58    2
    58    53    38    1
    59    50    41   ar
    60    50    44   ar
    61     1    59    1
    62     2    60    1
    63     6    61    1
    64     6    62    1
    65     7    63    1
    66     7    64    1
    67    11    65    1
    68    11    66    1
    69    12    67    1
    70    12    68    1
    71    16    69    1
    72    16    70    1
    73    18    71    1
    74    18    72    1
    75    18    73    1
    76    19    74    1
    77    20    75    1
    78    20    76    1
    79    25    77    1
    80    25    78    1
    81    25    79    1
    82    26    80    1
    83    26    81    1
    84    26    82    1
    85    27    83    1
    86    27    84    1
    87    30    85    1
    88    34    86    1
    89    37    87    1
    90    37    88    1
    91    38    89    1
    92    40    90    1
    93    42    91    1
    94    46    92    1
    95    46    93    1
    96    48    94    1
    97    51    95    1
    98    52    96    1
    99    53    97    1
