
     RDKit          3D

 97 99  0  0  0  0  0  0  0  0999 V2000
    0.6877    0.1991   -0.5493 C   0  0  1  0  0  0  0  0  0  0  0  0
    0.6371    0.0622   -1.9178 O   0  0  0  0  0  0  0  0  0  0  0  0
    2.0704    0.0566   -0.0090 C   0  0  0  0  0  0  0  0  0  0  0  0
    2.6122   -1.2408    0.1202 O   0  0  0  0  0  1  0  0  0  0  0  0
    2.4716    1.2442    0.2286 N   0  0  0  0  0  0  0  0  0  0  0  0
    3.7213    1.6638    0.7535 C   0  0  0  0  0  0  0  0  0  0  0  0
    4.7330    2.0272   -0.2813 C   0  0  0  0  0  0  0  0  0  0  0  0
    5.1089    0.9226   -1.1990 C   0  0  0  0  0  0  0  0  0  0  0  0
    4.0012    0.5751   -1.9455 O   0  0  0  0  0  1  0  0  0  0  0  0
    6.2611    0.3003   -1.3695 N   0  0  0  0  0  0  0  0  0  0  0  0
    7.4039    0.6724   -0.5985 C   0  0  0  0  0  0  0  0  0  0  0  0
    7.9221   -0.5614    0.1438 C   0  0  0  0  0  0  0  0  0  0  0  0
    9.3535   -0.0281    1.1345 S   0  0  0  0  0  0  0  0  0  0  0  0
   10.6416    0.4798    0.0081 C   0  0  0  0  0  0  0  0  0  0  0  0
   10.4601    0.4048   -1.2042 O   0  0  0  0  0  0  0  0  0  0  0  0
   11.9283    0.9946    0.5542 C   0  0  0  0  0  0  0  0  0  0  0  0
   12.8264   -0.2027    0.7841 C   0  0  1  0  0  0  0  0  0  0  0  0
   14.1331    0.3322    1.3440 C   0  0  0  0  0  0  0  0  0  0  0  0
   12.2001   -1.0349    1.7000 O   0  0  0  0  0  0  0  0  0  0  0  0
   13.0539   -0.8725   -0.5577 C   0  0  0  0  0  0  0  0  0  0  0  0
   13.9390   -2.0560   -0.3572 C   0  0  0  0  0  0  0  0  0  0  0  0
   15.0198   -2.8672   -0.6092 O   0  0  0  0  0  1  0  0  0  0  0  0
   13.6428   -2.8821    0.5406 O   0  0  0  0  0  0  0  0  0  0  0  0
   -0.0797    1.3578   -0.0267 C   0  0  0  0  0  0  0  0  0  0  0  0
    0.0617    1.3717    1.4854 C   0  0  0  0  0  0  0  0  0  0  0  0
    0.4280    2.6922   -0.5274 C   0  0  0  0  0  0  0  0  0  0  0  0
   -1.5235    1.2346   -0.4693 C   0  0  0  0  0  0  0  0  0  0  0  0
   -2.1114    0.0533   -0.0060 O   0  0  0  0  0  0  0  0  0  0  0  0
   -3.6730    0.0420   -0.6929 P   0  0  0  0  0  0  0  0  0  0  0  0
   -3.5121    0.5233   -2.3329 O   0  0  0  0  0  0  0  0  0  0  0  0
   -4.5070    1.0599    0.0587 O   0  0  0  0  0  0  0  0  0  0  0  0
   -4.3828   -1.4661   -0.6188 O   0  0  0  0  0  0  0  0  0  0  0  0
   -4.6261   -1.8932    1.0035 P   0  0  0  0  0  0  0  0  0  0  0  0
   -4.6783   -0.5396    1.9806 O   0  0  0  0  0  0  0  0  0  0  0  0
   -3.4558   -2.8013    1.4260 O   0  0  0  0  0  0  0  0  0  0  0  0
   -6.0061   -2.8476    1.0476 O   0  0  0  0  0  0  0  0  0  0  0  0
   -7.0866   -2.2137    1.5994 C   0  0  0  0  0  0  0  0  0  0  0  0
   -8.3608   -2.8820    1.0730 C   0  0  1  0  0  0  0  0  0  0  0  0
   -9.4325   -2.2371    1.6220 O   0  0  0  0  0  0  0  0  0  0  0  0
  -10.1704   -1.6004    0.6643 C   0  0  1  0  0  0  0  0  0  0  0  0
  -10.0171   -0.1698    0.8005 N   0  0  0  0  0  0  0  0  0  0  0  0
  -10.6834    0.5606    1.7421 C   0  0  0  0  0  0  0  0  0  0  0  0
  -10.3353    1.8506    1.6093 N   0  0  0  0  0  0  0  0  0  0  0  0
   -9.4478    2.0167    0.6025 C   0  0  0  0  0  0  0  0  0  0  0  0
   -8.7905    3.0841    0.0705 C   0  0  0  0  0  0  0  0  0  0  0  0
   -9.0857    4.3502    0.6865 N   0  0  0  0  0  0  0  0  0  0  0  0
   -7.9465    2.8371   -0.9633 N   0  0  0  0  0  0  0  0  0  0  0  0
   -7.7794    1.5986   -1.4272 C   0  0  0  0  0  0  0  0  0  0  0  0
   -8.4270    0.5489   -0.9032 N   0  0  0  0  0  0  0  0  0  0  0  0
   -9.2716    0.7388    0.1191 C   0  0  0  0  0  0  0  0  0  0  0  0
   -9.7570   -2.1334   -0.6740 C   0  0  2  0  0  0  0  0  0  0  0  0
  -10.6522   -3.1398   -1.0954 O   0  0  0  0  0  0  0  0  0  0  0  0
   -8.4338   -2.8139   -0.4134 C   0  0  2  0  0  0  0  0  0  0  0  0
   -8.3702   -4.1092   -0.9524 O   0  0  0  0  0  0  0  0  0  0  0  0
   -7.0657   -4.2402   -2.0347 P   0  0  0  0  0  0  0  0  0  0  0  0
   -5.6831   -4.8818   -1.2738 O   0  0  0  0  0  1  0  0  0  0  0  0
   -6.7202   -2.7750   -2.7800 O   0  0  0  0  0  1  0  0  0  0  0  0
   -7.4690   -5.2349   -3.1132 O   0  0  0  0  0  0  0  0  0  0  0  0
    0.1315   -0.7192   -0.1518 H   0  0  0  0  0  0  0  0  0  0  0  0
    1.0052    0.7974   -2.4260 H   0  0  0  0  0  0  0  0  0  0  0  0
    3.5200    2.5996    1.3426 H   0  0  0  0  0  0  0  0  0  0  0  0
    4.1278    0.9575    1.5209 H   0  0  0  0  0  0  0  0  0  0  0  0
    4.2451    2.8681   -0.8803 H   0  0  0  0  0  0  0  0  0  0  0  0
    5.5985    2.5185    0.1820 H   0  0  0  0  0  0  0  0  0  0  0  0
    7.3159    1.5349    0.0489 H   0  0  0  0  0  0  0  0  0  0  0  0
    8.1988    0.9492   -1.3598 H   0  0  0  0  0  0  0  0  0  0  0  0
    8.1773   -1.3701   -0.5654 H   0  0  0  0  0  0  0  0  0  0  0  0
    7.1159   -0.9242    0.8040 H   0  0  0  0  0  0  0  0  0  0  0  0
   12.3431    1.6720   -0.2290 H   0  0  0  0  0  0  0  0  0  0  0  0
   11.8181    1.5425    1.5135 H   0  0  0  0  0  0  0  0  0  0  0  0
   14.6336    0.8878    0.5083 H   0  0  0  0  0  0  0  0  0  0  0  0
   14.7599   -0.4288    1.8201 H   0  0  0  0  0  0  0  0  0  0  0  0
   13.8209    1.1557    2.0470 H   0  0  0  0  0  0  0  0  0  0  0  0
   11.6648   -1.7507    1.3015 H   0  0  0  0  0  0  0  0  0  0  0  0
   12.0775   -1.2864   -0.9537 H   0  0  0  0  0  0  0  0  0  0  0  0
   13.4137   -0.1702   -1.3289 H   0  0  0  0  0  0  0  0  0  0  0  0
   -0.9185    1.5442    1.9817 H   0  0  0  0  0  0  0  0  0  0  0  0
    0.4528    0.3784    1.8275 H   0  0  0  0  0  0  0  0  0  0  0  0
    0.8202    2.1095    1.7713 H   0  0  0  0  0  0  0  0  0  0  0  0
    0.9360    2.6036   -1.4935 H   0  0  0  0  0  0  0  0  0  0  0  0
    1.0348    3.2383    0.2509 H   0  0  0  0  0  0  0  0  0  0  0  0
   -0.4464    3.3665   -0.7005 H   0  0  0  0  0  0  0  0  0  0  0  0
   -1.6215    1.2795   -1.5677 H   0  0  0  0  0  0  0  0  0  0  0  0
   -2.1252    2.1066   -0.0674 H   0  0  0  0  0  0  0  0  0  0  0  0
   -3.4636    1.4905   -2.4380 H   0  0  0  0  0  0  0  0  0  0  0  0
   -5.4954   -0.0305    1.8601 H   0  0  0  0  0  0  0  0  0  0  0  0
   -7.0569   -2.3660    2.7068 H   0  0  0  0  0  0  0  0  0  0  0  0
   -7.0941   -1.1430    1.3709 H   0  0  0  0  0  0  0  0  0  0  0  0
   -8.2946   -3.9620    1.3754 H   0  0  0  0  0  0  0  0  0  0  0  0
  -11.2749   -1.7966    0.8119 H   0  0  0  0  0  0  0  0  0  0  0  0
  -11.3809    0.2046    2.4826 H   0  0  0  0  0  0  0  0  0  0  0  0
   -8.4545    5.1332    1.0267 H   0  0  0  0  0  0  0  0  0  0  0  0
  -10.0981    4.5814    0.8459 H   0  0  0  0  0  0  0  0  0  0  0  0
   -7.0724    1.5785   -2.2548 H   0  0  0  0  0  0  0  0  0  0  0  0
   -9.6957   -1.3794   -1.4792 H   0  0  0  0  0  0  0  0  0  0  0  0
  -10.8674   -3.7222   -0.3102 H   0  0  0  0  0  0  0  0  0  0  0  0
   -7.6286   -2.1794   -0.8620 H   0  0  0  0  0  0  0  0  0  0  0  0
  1  2  1  0
  1  3  1  0
  3  4  1  0
  3  5  2  3
  5  6  1  0
  6  7  1  0
  7  8  1  0
  8  9  1  0
  8 10  2  3
 10 11  1  0
 11 12  1  0
 12 13  1  0
 13 14  1  0
 14 15  2  0
 14 16  1  0
 16 17  1  0
 17 18  1  0
 17 19  1  1
 17 20  1  0
 20 21  1  0
 21 22  1  0
 21 23  2  0
  1 24  1  0
 24 25  1  0
 24 26  1  0
 24 27  1  0
 27 28  1  0
 28 29  1  0
 29 30  1  0
 29 31  2  0
 29 32  1  0
 32 33  1  0
 33 34  1  0
 33 35  2  0
 33 36  1  0
 36 37  1  0
 37 38  1  0
 38 39  1  0
 39 40  1  0
 40 41  1  0
 41 42  1  0
 42 43  2  0
 43 44  1  0
 44 45  2  0
 45 46  1  0
 45 47  1  0
 47 48  2  0
 48 49  1  0
 49 50  2  0
 40 51  1  0
 51 52  1  0
 51 53  1  0
 53 54  1  0
 54 55  1  0
 55 56  1  0
 55 57  1  0
 55 58  2  0
 53 38  1  0
 50 41  1  0
 50 44  1  0
  1 59  1  1
  2 60  1  0
  6 61  1  0
  6 62  1  0
  7 63  1  0
  7 64  1  0
 11 65  1  0
 11 66  1  0
 12 67  1  0
 12 68  1  0
 16 69  1  0
 16 70  1  0
 18 71  1  0
 18 72  1  0
 18 73  1  0
 19 74  1  0
 20 75  1  0
 20 76  1  0
 25 77  1  0
 25 78  1  0
 25 79  1  0
 26 80  1  0
 26 81  1  0
 26 82  1  0
 27 83  1  0
 27 84  1  0
 30 85  1  0
 34 86  1  0
 37 87  1  0
 37 88  1  0
 38 89  1  6
 40 90  1  1
 42 91  1  0
 46 92  1  0
 46 93  1  0
 48 94  1  0
 51 95  1  6
 52 96  1  0
 53 97  1  6
M  CHG  5   4  -1   9  -1  22  -1  56  -1  57  -1
M  END
$$$$
