@<TRIPOS>MOLECULE
*****
 43 45 0 0 0
SMALL
GASTEIGER

@<TRIPOS>ATOM
      1 C          -3.3061   -0.5275   -1.7317 C.3     1  UNL1       -0.0352
      2 C          -2.4821   -0.0738   -0.5189 C.3     1  UNL1        0.0966
      3 C          -1.2335    0.5194   -1.0976 C.ar    1  UNL1        0.0359
      4 C           0.0034   -0.0910   -0.8660 C.ar    1  UNL1       -0.0292
      5 C           1.1388    0.4688   -1.4053 C.ar    1  UNL1        0.0525
      6 N           2.4584   -0.0998   -1.2136 N.am    1  UNL1       -0.2789
      7 C           3.2547    0.2927   -0.1153 C.2     1  UNL1        0.2680
      8 O           2.6803    1.1775    0.6395 O.2     1  UNL1       -0.2681
      9 C           4.5792   -0.1699    0.2295 C.ar    1  UNL1        0.1439
     10 N           5.2185    0.5214    1.2155 N.ar    1  UNL1       -0.2474
     11 C           6.4454    0.2020    1.6534 C.ar    1  UNL1        0.0468
     12 C           7.1601   -0.8590    1.1355 C.ar    1  UNL1        0.0605
     13 CL          8.7631   -1.2530    1.7275 Cl      1  UNL1       -0.0819
     14 C           6.5439   -1.5785    0.1388 C.ar    1  UNL1       -0.0213
     15 C           5.2611   -1.2240   -0.3003 C.ar    1  UNL1        0.0728
     16 CL          4.5861   -2.2327   -1.5446 Cl      1  UNL1       -0.0811
     17 C           0.9853    1.6146   -2.1524 C.ar    1  UNL1        0.0519
     18 N          -0.2122    2.1875   -2.3646 N.ar    1  UNL1       -0.2255
     19 C          -1.3396    1.6657   -1.8519 C.ar    1  UNL1        0.2188
     20 F          -2.5549    2.2677   -2.0817 F       1  UNL1       -0.1835
     21 C          -3.1976    0.9930    0.2489 C.3     1  UNL1        0.0224
     22 C          -3.9452    0.5180    1.4496 C.3     1  UNL1        0.1997
     23 C          -5.3536    1.1259    1.4821 C.3     1  UNL1        0.4266
     24 F          -6.0231    0.6725    2.5992 F       1  UNL1       -0.1669
     25 F          -6.0265    0.7575    0.3154 F       1  UNL1       -0.1669
     26 F          -5.2327    2.5021    1.5772 F       1  UNL1       -0.1669
     27 O          -4.0645   -0.8959    1.4331 O.2     1  UNL1       -0.4534
     28 C          -2.9343   -1.6529    1.1759 C.2     1  UNL1        0.2765
     29 N          -2.5889   -2.8281    1.8949 N.pl3   1  UNL1       -0.3134
     30 N          -2.1645   -1.2519    0.2256 N.2     1  UNL1       -0.2256
     31 H          -4.0122   -1.3320   -1.4431 H       1  UNL1        0.0256
     32 H          -2.5766   -0.9448   -2.4556 H       1  UNL1        0.0256
     33 H          -3.7889    0.3360   -2.1923 H       1  UNL1        0.0256
     34 H           0.0947   -0.9901   -0.2755 H       1  UNL1        0.0641
     35 H           2.8306   -0.7887   -1.8870 H       1  UNL1        0.1552
     36 H           6.9354    0.7642    2.4369 H       1  UNL1        0.0844
     37 H           7.0673   -2.4169   -0.2946 H       1  UNL1        0.0648
     38 H           1.8488    2.0965   -2.6003 H       1  UNL1        0.0849
     39 H          -2.4858    1.7974    0.5844 H       1  UNL1        0.0330
     40 H          -3.9491    1.4445   -0.4616 H       1  UNL1        0.0330
     41 H          -3.4596    0.8648    2.3846 H       1  UNL1        0.0826
     42 H          -1.6047   -2.9689    2.1886 H       1  UNL1        0.1466
     43 H          -3.3189   -3.5298    2.1181 H       1  UNL1        0.1466
@<TRIPOS>BOND
     1     2     1    1
     2     2     3    1
     3     3     4   ar
     4     4     5   ar
     5     5     6    1
     6     6     7   am
     7     7     8    2
     8     7     9    1
     9     9    10   ar
    10    10    11   ar
    11    11    12   ar
    12    12    13    1
    13    12    14   ar
    14    14    15   ar
    15    15    16    1
    16     5    17   ar
    17    17    18   ar
    18    18    19   ar
    19    19    20    1
    20     2    21    1
    21    21    22    1
    22    22    23    1
    23    23    24    1
    24    23    25    1
    25    23    26    1
    26    22    27    1
    27    27    28    1
    28    28    29    1
    29    28    30    2
    30    30     2    1
    31    19     3   ar
    32    15     9   ar
    33     1    31    1
    34     1    32    1
    35     1    33    1
    36     4    34    1
    37     6    35    1
    38    11    36    1
    39    14    37    1
    40    17    38    1
    41    21    39    1
    42    21    40    1
    43    22    41    1
    44    29    42    1
    45    29    43    1
