
     RDKit          3D

 43 45  0  0  0  0  0  0  0  0999 V2000
   -3.3061   -0.5275   -1.7317 C   0  0  0  0  0  0  0  0  0  0  0  0
   -2.4821   -0.0738   -0.5189 C   0  0  1  0  0  0  0  0  0  0  0  0
   -1.2335    0.5194   -1.0976 C   0  0  0  0  0  0  0  0  0  0  0  0
    0.0034   -0.0910   -0.8660 C   0  0  0  0  0  0  0  0  0  0  0  0
    1.1388    0.4688   -1.4053 C   0  0  0  0  0  0  0  0  0  0  0  0
    2.4584   -0.0998   -1.2136 N   0  0  0  0  0  0  0  0  0  0  0  0
    3.2547    0.2927   -0.1153 C   0  0  0  0  0  0  0  0  0  0  0  0
    2.6803    1.1775    0.6395 O   0  0  0  0  0  0  0  0  0  0  0  0
    4.5792   -0.1699    0.2295 C   0  0  0  0  0  0  0  0  0  0  0  0
    5.2185    0.5214    1.2155 N   0  0  0  0  0  0  0  0  0  0  0  0
    6.4454    0.2020    1.6534 C   0  0  0  0  0  0  0  0  0  0  0  0
    7.1601   -0.8590    1.1355 C   0  0  0  0  0  0  0  0  0  0  0  0
    8.7631   -1.2530    1.7275 Cl  0  0  0  0  0  0  0  0  0  0  0  0
    6.5439   -1.5785    0.1388 C   0  0  0  0  0  0  0  0  0  0  0  0
    5.2611   -1.2240   -0.3003 C   0  0  0  0  0  0  0  0  0  0  0  0
    4.5861   -2.2327   -1.5446 Cl  0  0  0  0  0  0  0  0  0  0  0  0
    0.9853    1.6146   -2.1524 C   0  0  0  0  0  0  0  0  0  0  0  0
   -0.2122    2.1875   -2.3646 N   0  0  0  0  0  0  0  0  0  0  0  0
   -1.3396    1.6657   -1.8519 C   0  0  0  0  0  0  0  0  0  0  0  0
   -2.5549    2.2677   -2.0817 F   0  0  0  0  0  0  0  0  0  0  0  0
   -3.1976    0.9930    0.2489 C   0  0  0  0  0  0  0  0  0  0  0  0
   -3.9452    0.5180    1.4496 C   0  0  1  0  0  0  0  0  0  0  0  0
   -5.3536    1.1259    1.4821 C   0  0  0  0  0  0  0  0  0  0  0  0
   -6.0231    0.6725    2.5992 F   0  0  0  0  0  0  0  0  0  0  0  0
   -6.0265    0.7575    0.3154 F   0  0  0  0  0  0  0  0  0  0  0  0
   -5.2327    2.5021    1.5772 F   0  0  0  0  0  0  0  0  0  0  0  0
   -4.0645   -0.8959    1.4331 O   0  0  0  0  0  0  0  0  0  0  0  0
   -2.9343   -1.6529    1.1759 C   0  0  0  0  0  0  0  0  0  0  0  0
   -2.5889   -2.8281    1.8949 N   0  0  0  0  0  0  0  0  0  0  0  0
   -2.1645   -1.2519    0.2256 N   0  0  0  0  0  0  0  0  0  0  0  0
   -4.0122   -1.3320   -1.4431 H   0  0  0  0  0  0  0  0  0  0  0  0
   -2.5766   -0.9448   -2.4556 H   0  0  0  0  0  0  0  0  0  0  0  0
   -3.7889    0.3360   -2.1923 H   0  0  0  0  0  0  0  0  0  0  0  0
    0.0947   -0.9901   -0.2755 H   0  0  0  0  0  0  0  0  0  0  0  0
    2.8306   -0.7887   -1.8870 H   0  0  0  0  0  0  0  0  0  0  0  0
    6.9354    0.7642    2.4369 H   0  0  0  0  0  0  0  0  0  0  0  0
    7.0673   -2.4169   -0.2946 H   0  0  0  0  0  0  0  0  0  0  0  0
    1.8488    2.0965   -2.6003 H   0  0  0  0  0  0  0  0  0  0  0  0
   -2.4858    1.7974    0.5844 H   0  0  0  0  0  0  0  0  0  0  0  0
   -3.9491    1.4445   -0.4616 H   0  0  0  0  0  0  0  0  0  0  0  0
   -3.4596    0.8648    2.3846 H   0  0  0  0  0  0  0  0  0  0  0  0
   -1.6047   -2.9689    2.1886 H   0  0  0  0  0  0  0  0  0  0  0  0
   -3.3189   -3.5298    2.1181 H   0  0  0  0  0  0  0  0  0  0  0  0
  2  1  1  6
  2  3  1  0
  3  4  2  0
  4  5  1  0
  5  6  1  0
  6  7  1  0
  7  8  2  0
  7  9  1  0
  9 10  2  0
 10 11  1  0
 11 12  2  0
 12 13  1  0
 12 14  1  0
 14 15  2  0
 15 16  1  0
  5 17  2  0
 17 18  1  0
 18 19  2  0
 19 20  1  0
  2 21  1  0
 21 22  1  0
 22 23  1  0
 23 24  1  0
 23 25  1  0
 23 26  1  0
 22 27  1  0
 27 28  1  0
 28 29  1  0
 28 30  2  0
 30  2  1  0
 19  3  1  0
 15  9  1  0
  1 31  1  0
  1 32  1  0
  1 33  1  0
  4 34  1  0
  6 35  1  0
 11 36  1  0
 14 37  1  0
 17 38  1  0
 21 39  1  0
 21 40  1  0
 22 41  1  1
 29 42  1  0
 29 43  1  0
M  END
$$$$
