@<TRIPOS>MOLECULE
*****
 52 55 0 0 0
SMALL
GASTEIGER

@<TRIPOS>ATOM
      1 C           1.9776   -1.8468    1.5126 C.3     1  UNL1       -0.0206
      2 C           1.7057   -0.8410    0.4319 C.ar    1  UNL1        0.0607
      3 C           2.4572    0.2912    0.2167 C.ar    1  UNL1        0.1580
      4 O           3.5614    0.7848    0.8705 O.3     1  UNL1       -0.4536
      5 C           4.8782    0.4410    0.6516 C.ar    1  UNL1        0.1286
      6 C           5.5167   -0.5201    1.4308 C.ar    1  UNL1       -0.0180
      7 C           6.8406   -0.8808    1.2237 C.ar    1  UNL1       -0.0399
      8 C           7.5272   -0.2551    0.2094 C.ar    1  UNL1        0.0412
      9 CL          9.2141   -0.7064   -0.0642 Cl      1  UNL1       -0.0835
     10 C           6.9341    0.7014   -0.5847 C.ar    1  UNL1       -0.0399
     11 C           5.5966    1.0426   -0.3500 C.ar    1  UNL1       -0.0180
     12 C           1.8615    0.9217   -0.8754 C.ar    1  UNL1        0.0616
     13 C           2.1514    2.1017   -1.5623 C.ar    1  UNL1       -0.0433
     14 C           1.3304    2.4321   -2.6159 C.ar    1  UNL1       -0.0065
     15 C           0.2582    1.6673   -3.0144 C.ar    1  UNL1        0.2151
     16 F          -0.5306    2.0463   -4.0773 F       1  UNL1       -0.1838
     17 N           0.0111    0.5440   -2.3318 N.ar    1  UNL1       -0.2010
     18 C           0.7941    0.1668   -1.2758 C.ar    1  UNL1        0.1479
     19 N           0.7086   -0.9183   -0.4603 N.ar    1  UNL1       -0.3213
     20 C          -0.3286   -1.9526   -0.6044 C.3     1  UNL1        0.0501
     21 C          -1.5468   -1.5795    0.1932 C.ar    1  UNL1       -0.0241
     22 C          -1.6456   -2.0156    1.4953 C.ar    1  UNL1       -0.0539
     23 C          -2.7669   -1.6590    2.2031 C.ar    1  UNL1       -0.0225
     24 C          -3.7563   -0.8751    1.5830 C.ar    1  UNL1        0.1648
     25 F          -4.8124   -0.5893    2.3800 F       1  UNL1       -0.2017
     26 C          -3.6540   -0.4440    0.2883 C.ar    1  UNL1        0.1570
     27 O          -4.5987    0.3078   -0.3139 O.3     1  UNL1       -0.4750
     28 C          -5.7791    0.8104    0.1065 C.3     1  UNL1        0.1932
     29 C          -5.8489    2.3507   -0.0267 C.3     1  UNL1       -0.0172
     30 C          -6.9092    0.2873   -0.7347 C.2     1  UNL1        0.3456
     31 O          -6.6239   -0.5015   -1.6654 O.2     1  UNL1       -0.2468
     32 O          -8.2204    0.6764   -0.4744 O.3     1  UNL1       -0.4781
     33 C          -2.4888   -0.8227   -0.4253 C.ar    1  UNL1       -0.0122
     34 H           1.4295   -2.7856    1.2522 H       1  UNL1        0.0293
     35 H           1.5774   -1.5021    2.4838 H       1  UNL1        0.0293
     36 H           3.0485   -2.1033    1.5601 H       1  UNL1        0.0293
     37 H           5.0112   -1.0193    2.2348 H       1  UNL1        0.0655
     38 H           7.3557   -1.6216    1.8128 H       1  UNL1        0.0633
     39 H           7.4615    1.2024   -1.3864 H       1  UNL1        0.0633
     40 H           5.1135    1.7865   -0.9570 H       1  UNL1        0.0655
     41 H           2.9764    2.6816   -1.2352 H       1  UNL1        0.0627
     42 H           1.5640    3.3590   -3.1504 H       1  UNL1        0.0662
     43 H           0.0893   -2.9221   -0.2771 H       1  UNL1        0.0542
     44 H          -0.6323   -2.0201   -1.6507 H       1  UNL1        0.0542
     45 H          -0.8452   -2.6130    1.8943 H       1  UNL1        0.0622
     46 H          -2.8535   -1.9933    3.2171 H       1  UNL1        0.0647
     47 H          -6.0670    0.6238    1.1507 H       1  UNL1        0.0849
     48 H          -6.9287    2.5899   -0.0119 H       1  UNL1        0.0271
     49 H          -5.3660    2.8117    0.8474 H       1  UNL1        0.0271
     50 H          -5.3639    2.6343   -0.9786 H       1  UNL1        0.0271
     51 H          -8.9519    0.1958   -0.9640 H       1  UNL1        0.2952
     52 H          -2.4333   -0.4705   -1.4446 H       1  UNL1        0.0658
@<TRIPOS>BOND
     1     1     2    1
     2     2     3   ar
     3     3     4    1
     4     4     5    1
     5     5     6   ar
     6     6     7   ar
     7     7     8   ar
     8     8     9    1
     9     8    10   ar
    10    10    11   ar
    11     3    12   ar
    12    12    13   ar
    13    13    14   ar
    14    14    15   ar
    15    15    16    1
    16    15    17   ar
    17    17    18   ar
    18    18    19   ar
    19    19    20    1
    20    20    21    1
    21    21    22   ar
    22    22    23   ar
    23    23    24   ar
    24    24    25    1
    25    24    26   ar
    26    26    27    1
    27    27    28    1
    28    28    29    1
    29    28    30    1
    30    30    31    2
    31    30    32    1
    32    26    33   ar
    33    19     2   ar
    34    33    21   ar
    35    11     5   ar
    36    18    12   ar
    37     1    34    1
    38     1    35    1
    39     1    36    1
    40     6    37    1
    41     7    38    1
    42    10    39    1
    43    11    40    1
    44    13    41    1
    45    14    42    1
    46    20    43    1
    47    20    44    1
    48    22    45    1
    49    23    46    1
    50    28    47    1
    51    29    48    1
    52    29    49    1
    53    29    50    1
    54    32    51    1
    55    33    52    1
