@<TRIPOS>MOLECULE
*****
 59 63 0 0 0
SMALL
GASTEIGER

@<TRIPOS>ATOM
      1 O          -6.8323    0.3164   -3.2193 O.2     1  UNL1       -0.2510
      2 C          -7.2548    0.8488   -2.1633 C.2     1  UNL1        0.3050
      3 O          -7.2015    2.2296   -2.0657 O.3     1  UNL1       -0.4806
      4 C          -7.7845    0.0365   -1.0747 C.3     1  UNL1        0.0497
      5 C          -6.7283   -0.5262   -0.1659 C.3     1  UNL1       -0.0074
      6 C          -5.7419   -1.4212   -0.8810 C.3     1  UNL1       -0.0450
      7 C          -4.4561   -0.6828   -1.0524 C.3     1  UNL1       -0.0233
      8 C          -3.8726   -0.3441    0.2821 C.3     1  UNL1        0.0724
      9 C          -2.9536    0.8506    0.1219 C.3     1  UNL1       -0.0079
     10 C          -1.8012    0.7157    1.0830 C.3     1  UNL1        0.0161
     11 N          -1.0260   -0.4284    0.6528 N.pl3   1  UNL1       -0.3150
     12 C           0.3912   -0.3340    0.5451 C.ar    1  UNL1        0.1212
     13 C           1.1505   -1.4073    0.1302 C.ar    1  UNL1       -0.0210
     14 C           2.5445   -1.3312    0.0187 C.ar    1  UNL1       -0.0464
     15 C           3.1902   -0.1530    0.3303 C.ar    1  UNL1        0.0355
     16 C           4.6388   -0.0094    0.2335 C.ar    1  UNL1        0.1407
     17 N           5.3187    1.1073    0.5252 N.ar    1  UNL1       -0.2277
     18 C           6.6322    0.8756    0.3215 C.ar    1  UNL1        0.0900
     19 C           7.7406    1.6986    0.4769 C.ar    1  UNL1       -0.0226
     20 C           8.9958    1.1975    0.1924 C.ar    1  UNL1        0.0569
     21 C          10.2028    2.0408    0.3445 C.3     1  UNL1        0.4175
     22 F          10.1695    2.5589    1.6437 F       1  UNL1       -0.1659
     23 F          10.1611    3.0850   -0.5582 F       1  UNL1       -0.1659
     24 F          11.3374    1.2891    0.1447 F       1  UNL1       -0.1659
     25 C           9.1454   -0.0979   -0.2384 C.ar    1  UNL1       -0.0480
     26 C           8.0408   -0.9085   -0.3900 C.ar    1  UNL1       -0.0357
     27 C           6.7750   -0.4229   -0.1095 C.ar    1  UNL1        0.0665
     28 N           5.5343   -0.9336   -0.1515 N.ar    1  UNL1       -0.3378
     29 C           2.3909    0.8970    0.7417 C.ar    1  UNL1        0.0403
     30 N           1.0519    0.8007    0.8413 N.ar    1  UNL1       -0.2396
     31 C          -1.7162   -1.6416    0.3421 C.3     1  UNL1        0.0161
     32 C          -3.1428   -1.5244    0.8307 C.3     1  UNL1       -0.0079
     33 O          -4.8496    0.0343    1.1950 O.3     1  UNL1       -0.3730
     34 C          -5.9683    0.5796    0.5545 C.3     1  UNL1        0.0517
     35 H          -6.5552    2.8108   -2.5829 H       1  UNL1        0.2951
     36 H          -8.4973    0.5950   -0.4164 H       1  UNL1        0.0381
     37 H          -8.3573   -0.8473   -1.4725 H       1  UNL1        0.0381
     38 H          -7.1744   -1.1463    0.6502 H       1  UNL1        0.0328
     39 H          -5.5572   -2.3757   -0.3121 H       1  UNL1        0.0270
     40 H          -6.1803   -1.7542   -1.8474 H       1  UNL1        0.0270
     41 H          -4.6402    0.2797   -1.5764 H       1  UNL1        0.0293
     42 H          -3.7191   -1.2221   -1.6834 H       1  UNL1        0.0293
     43 H          -2.5151    0.8381   -0.9052 H       1  UNL1        0.0308
     44 H          -3.4673    1.8098    0.2807 H       1  UNL1        0.0308
     45 H          -1.1776    1.6328    1.0054 H       1  UNL1        0.0465
     46 H          -2.1319    0.6504    2.1348 H       1  UNL1        0.0465
     47 H           0.6438   -2.3425   -0.1179 H       1  UNL1        0.0652
     48 H           3.1327   -2.1826   -0.3090 H       1  UNL1        0.0626
     49 H           7.6242    2.7061    0.8118 H       1  UNL1        0.0645
     50 H          10.1075   -0.5016   -0.4625 H       1  UNL1        0.0624
     51 H           8.1597   -1.9325   -0.7308 H       1  UNL1        0.0639
     52 H           5.3416   -1.9165   -0.4484 H       1  UNL1        0.1674
     53 H           2.9145    1.8274    0.9861 H       1  UNL1        0.0837
     54 H          -1.2493   -2.4822    0.8948 H       1  UNL1        0.0465
     55 H          -1.6736   -1.9097   -0.7330 H       1  UNL1        0.0465
     56 H          -3.1337   -1.4507    1.9366 H       1  UNL1        0.0308
     57 H          -3.6680   -2.4688    0.5879 H       1  UNL1        0.0308
     58 H          -5.6786    1.4019   -0.1228 H       1  UNL1        0.0563
     59 H          -6.6294    0.9850    1.3570 H       1  UNL1        0.0563
@<TRIPOS>BOND
     1     1     2    2
     2     2     3    1
     3     2     4    1
     4     4     5    1
     5     5     6    1
     6     6     7    1
     7     7     8    1
     8     8     9    1
     9     9    10    1
    10    10    11    1
    11    11    12    1
    12    12    13   ar
    13    13    14   ar
    14    14    15   ar
    15    15    16    1
    16    16    17   ar
    17    17    18   ar
    18    18    19   ar
    19    19    20   ar
    20    20    21    1
    21    21    22    1
    22    21    23    1
    23    21    24    1
    24    20    25   ar
    25    25    26   ar
    26    26    27   ar
    27    27    28   ar
    28    15    29   ar
    29    29    30   ar
    30    11    31    1
    31    31    32    1
    32     8    33    1
    33    33    34    1
    34    34     5    1
    35    32     8    1
    36    30    12   ar
    37    28    16   ar
    38    27    18   ar
    39     3    35    1
    40     4    36    1
    41     4    37    1
    42     5    38    1
    43     6    39    1
    44     6    40    1
    45     7    41    1
    46     7    42    1
    47     9    43    1
    48     9    44    1
    49    10    45    1
    50    10    46    1
    51    13    47    1
    52    14    48    1
    53    19    49    1
    54    25    50    1
    55    26    51    1
    56    28    52    1
    57    29    53    1
    58    31    54    1
    59    31    55    1
    60    32    56    1
    61    32    57    1
    62    34    58    1
    63    34    59    1
