
     RDKit          3D

 59 63  0  0  0  0  0  0  0  0999 V2000
   -6.8323    0.3164   -3.2193 O   0  0  0  0  0  0  0  0  0  0  0  0
   -7.2548    0.8488   -2.1633 C   0  0  0  0  0  0  0  0  0  0  0  0
   -7.2015    2.2296   -2.0657 O   0  0  0  0  0  0  0  0  0  0  0  0
   -7.7845    0.0365   -1.0747 C   0  0  0  0  0  0  0  0  0  0  0  0
   -6.7283   -0.5262   -0.1659 C   0  0  0  0  0  0  0  0  0  0  0  0
   -5.7419   -1.4212   -0.8810 C   0  0  0  0  0  0  0  0  0  0  0  0
   -4.4561   -0.6828   -1.0524 C   0  0  0  0  0  0  0  0  0  0  0  0
   -3.8726   -0.3441    0.2821 C   0  0  0  0  0  0  0  0  0  0  0  0
   -2.9536    0.8506    0.1219 C   0  0  0  0  0  0  0  0  0  0  0  0
   -1.8012    0.7157    1.0830 C   0  0  0  0  0  0  0  0  0  0  0  0
   -1.0260   -0.4284    0.6528 N   0  0  0  0  0  0  0  0  0  0  0  0
    0.3912   -0.3340    0.5451 C   0  0  0  0  0  0  0  0  0  0  0  0
    1.1505   -1.4073    0.1302 C   0  0  0  0  0  0  0  0  0  0  0  0
    2.5445   -1.3312    0.0187 C   0  0  0  0  0  0  0  0  0  0  0  0
    3.1902   -0.1530    0.3303 C   0  0  0  0  0  0  0  0  0  0  0  0
    4.6388   -0.0094    0.2335 C   0  0  0  0  0  0  0  0  0  0  0  0
    5.3187    1.1073    0.5252 N   0  0  0  0  0  0  0  0  0  0  0  0
    6.6322    0.8756    0.3215 C   0  0  0  0  0  0  0  0  0  0  0  0
    7.7406    1.6986    0.4769 C   0  0  0  0  0  0  0  0  0  0  0  0
    8.9958    1.1975    0.1924 C   0  0  0  0  0  0  0  0  0  0  0  0
   10.2028    2.0408    0.3445 C   0  0  0  0  0  0  0  0  0  0  0  0
   10.1695    2.5589    1.6437 F   0  0  0  0  0  0  0  0  0  0  0  0
   10.1611    3.0850   -0.5582 F   0  0  0  0  0  0  0  0  0  0  0  0
   11.3374    1.2891    0.1447 F   0  0  0  0  0  0  0  0  0  0  0  0
    9.1454   -0.0979   -0.2384 C   0  0  0  0  0  0  0  0  0  0  0  0
    8.0408   -0.9085   -0.3900 C   0  0  0  0  0  0  0  0  0  0  0  0
    6.7750   -0.4229   -0.1095 C   0  0  0  0  0  0  0  0  0  0  0  0
    5.5343   -0.9336   -0.1515 N   0  0  0  0  0  0  0  0  0  0  0  0
    2.3909    0.8970    0.7417 C   0  0  0  0  0  0  0  0  0  0  0  0
    1.0519    0.8007    0.8413 N   0  0  0  0  0  0  0  0  0  0  0  0
   -1.7162   -1.6416    0.3421 C   0  0  0  0  0  0  0  0  0  0  0  0
   -3.1428   -1.5244    0.8307 C   0  0  0  0  0  0  0  0  0  0  0  0
   -4.8496    0.0343    1.1950 O   0  0  0  0  0  0  0  0  0  0  0  0
   -5.9683    0.5796    0.5545 C   0  0  0  0  0  0  0  0  0  0  0  0
   -6.5552    2.8108   -2.5829 H   0  0  0  0  0  0  0  0  0  0  0  0
   -8.4973    0.5950   -0.4164 H   0  0  0  0  0  0  0  0  0  0  0  0
   -8.3573   -0.8473   -1.4725 H   0  0  0  0  0  0  0  0  0  0  0  0
   -7.1744   -1.1463    0.6502 H   0  0  0  0  0  0  0  0  0  0  0  0
   -5.5572   -2.3757   -0.3121 H   0  0  0  0  0  0  0  0  0  0  0  0
   -6.1803   -1.7542   -1.8474 H   0  0  0  0  0  0  0  0  0  0  0  0
   -4.6402    0.2797   -1.5764 H   0  0  0  0  0  0  0  0  0  0  0  0
   -3.7191   -1.2221   -1.6834 H   0  0  0  0  0  0  0  0  0  0  0  0
   -2.5151    0.8381   -0.9052 H   0  0  0  0  0  0  0  0  0  0  0  0
   -3.4673    1.8098    0.2807 H   0  0  0  0  0  0  0  0  0  0  0  0
   -1.1776    1.6328    1.0054 H   0  0  0  0  0  0  0  0  0  0  0  0
   -2.1319    0.6504    2.1348 H   0  0  0  0  0  0  0  0  0  0  0  0
    0.6438   -2.3425   -0.1179 H   0  0  0  0  0  0  0  0  0  0  0  0
    3.1327   -2.1826   -0.3090 H   0  0  0  0  0  0  0  0  0  0  0  0
    7.6242    2.7061    0.8118 H   0  0  0  0  0  0  0  0  0  0  0  0
   10.1075   -0.5016   -0.4625 H   0  0  0  0  0  0  0  0  0  0  0  0
    8.1597   -1.9325   -0.7308 H   0  0  0  0  0  0  0  0  0  0  0  0
    5.3416   -1.9165   -0.4484 H   0  0  0  0  0  0  0  0  0  0  0  0
    2.9145    1.8274    0.9861 H   0  0  0  0  0  0  0  0  0  0  0  0
   -1.2493   -2.4822    0.8948 H   0  0  0  0  0  0  0  0  0  0  0  0
   -1.6736   -1.9097   -0.7330 H   0  0  0  0  0  0  0  0  0  0  0  0
   -3.1337   -1.4507    1.9366 H   0  0  0  0  0  0  0  0  0  0  0  0
   -3.6680   -2.4688    0.5879 H   0  0  0  0  0  0  0  0  0  0  0  0
   -5.6786    1.4019   -0.1228 H   0  0  0  0  0  0  0  0  0  0  0  0
   -6.6294    0.9850    1.3570 H   0  0  0  0  0  0  0  0  0  0  0  0
  1  2  2  0
  2  3  1  0
  2  4  1  0
  4  5  1  0
  5  6  1  0
  6  7  1  0
  7  8  1  0
  8  9  1  0
  9 10  1  0
 10 11  1  0
 11 12  1  0
 12 13  2  0
 13 14  1  0
 14 15  2  0
 15 16  1  0
 16 17  2  0
 17 18  1  0
 18 19  2  0
 19 20  1  0
 20 21  1  0
 21 22  1  0
 21 23  1  0
 21 24  1  0
 20 25  2  0
 25 26  1  0
 26 27  2  0
 27 28  1  0
 15 29  1  0
 29 30  2  0
 11 31  1  0
 31 32  1  0
  8 33  1  0
 33 34  1  0
 34  5  1  0
 32  8  1  0
 30 12  1  0
 28 16  1  0
 27 18  1  0
  3 35  1  0
  4 36  1  0
  4 37  1  0
  5 38  1  0
  6 39  1  0
  6 40  1  0
  7 41  1  0
  7 42  1  0
  9 43  1  0
  9 44  1  0
 10 45  1  0
 10 46  1  0
 13 47  1  0
 14 48  1  0
 19 49  1  0
 25 50  1  0
 26 51  1  0
 28 52  1  0
 29 53  1  0
 31 54  1  0
 31 55  1  0
 32 56  1  0
 32 57  1  0
 34 58  1  0
 34 59  1  0
M  END
$$$$
