@<TRIPOS>MOLECULE
*****
 59 63 0 0 0
SMALL
GASTEIGER

@<TRIPOS>ATOM
      1 C           2.7536   -2.0238   -2.0886 C.3     1  UNL1       -0.0394
      2 C           3.1775   -0.8555   -1.3083 C.ar    1  UNL1       -0.0471
      3 C           4.5390   -0.5695   -1.3466 C.ar    1  UNL1       -0.0566
      4 C           5.0906    0.5177   -0.6973 C.ar    1  UNL1       -0.0360
      5 C           4.2848    1.3703    0.0246 C.ar    1  UNL1        0.0656
      6 N           4.8370    2.5078    0.7075 N.ar    1  UNL1       -0.2399
      7 C           5.9909    2.5159    1.3601 C.ar    1  UNL1        0.0312
      8 C           6.2114    3.7670    1.8941 C.ar    1  UNL1       -0.0238
      9 C           5.1241    4.5230    1.5292 C.ar    1  UNL1        0.0498
     10 N           4.3286    3.7108    0.8150 N.ar    1  UNL1       -0.1748
     11 C           2.9425    1.0847    0.0608 C.ar    1  UNL1       -0.0328
     12 C           2.3727   -0.0213   -0.5974 C.ar    1  UNL1       -0.0406
     13 C           0.9403   -0.2826   -0.4752 C.3     1  UNL1       -0.0065
     14 C           0.5034   -1.2146    0.5941 C.3     1  UNL1        0.0537
     15 C           0.9817   -2.5987    0.6137 C.3     1  UNL1        0.0666
     16 O           0.5109   -3.4688   -0.3243 O.3     1  UNL1       -0.3764
     17 C          -0.8130   -3.4416   -0.6254 C.3     1  UNL1        0.0635
     18 C          -1.5007   -2.1204   -0.5266 C.3     1  UNL1        0.0388
     19 N          -0.9718   -1.2654    0.5149 N.am    1  UNL1       -0.2897
     20 C          -1.7800   -0.5307    1.4014 C.2     1  UNL1        0.2491
     21 O          -1.2842    0.1925    2.2793 O.2     1  UNL1       -0.2699
     22 C          -3.2353   -0.6368    1.2678 C.ar    1  UNL1        0.0642
     23 C          -3.8568   -1.6241    1.9805 C.ar    1  UNL1       -0.0475
     24 C          -5.2152   -1.7748    1.8966 C.ar    1  UNL1       -0.0607
     25 C          -5.9405   -0.9264    1.0924 C.ar    1  UNL1       -0.0567
     26 C          -5.3593    0.0823    0.3561 C.ar    1  UNL1       -0.0226
     27 C          -6.1656    0.9797   -0.5002 C.3     1  UNL1       -0.0376
     28 C          -3.9792    0.1971    0.4725 C.ar    1  UNL1        0.1011
     29 N          -3.3197    1.2283   -0.2666 N.ar    1  UNL1       -0.1493
     30 N          -3.7221    2.4684   -0.3746 N.ar    1  UNL1       -0.1556
     31 C          -2.8631    3.1372   -1.1362 C.ar    1  UNL1        0.0697
     32 C          -1.8783    2.2556   -1.5160 C.ar    1  UNL1        0.0697
     33 N          -2.2063    1.0814   -0.9504 N.ar    1  UNL1       -0.1556
     34 H           1.7132   -2.0851   -2.3481 H       1  UNL1        0.0278
     35 H           3.0511   -2.9401   -1.5433 H       1  UNL1        0.0278
     36 H           3.3167   -2.0981   -3.0694 H       1  UNL1        0.0278
     37 H           5.2171   -1.2171   -1.9063 H       1  UNL1        0.0621
     38 H           6.1581    0.7363   -0.7314 H       1  UNL1        0.0639
     39 H           6.6741    1.6857    1.4730 H       1  UNL1        0.0831
     40 H           7.0406    4.1203    2.4768 H       1  UNL1        0.0648
     41 H           4.9936    5.5692    1.7983 H       1  UNL1        0.0848
     42 H           2.2862    1.7247    0.6114 H       1  UNL1        0.0642
     43 H           0.4403   -0.4768   -1.4554 H       1  UNL1        0.0332
     44 H           0.4608    0.7110   -0.1904 H       1  UNL1        0.0332
     45 H           0.7372   -0.7553    1.5907 H       1  UNL1        0.0526
     46 H           2.0919   -2.6269    0.6107 H       1  UNL1        0.0578
     47 H           0.7119   -3.0194    1.6288 H       1  UNL1        0.0578
     48 H          -0.9008   -3.7535   -1.7110 H       1  UNL1        0.0575
     49 H          -1.4154   -4.2251   -0.0878 H       1  UNL1        0.0575
     50 H          -1.4207   -1.5475   -1.4845 H       1  UNL1        0.0487
     51 H          -2.5854   -2.2778   -0.3619 H       1  UNL1        0.0487
     52 H          -3.2695   -2.2886    2.6134 H       1  UNL1        0.0626
     53 H          -5.7318   -2.5580    2.4579 H       1  UNL1        0.0618
     54 H          -7.0245   -1.0889    1.0607 H       1  UNL1        0.0621
     55 H          -5.5529    1.2165   -1.4077 H       1  UNL1        0.0278
     56 H          -6.5043    1.8682    0.0434 H       1  UNL1        0.0278
     57 H          -7.0873    0.4083   -0.7816 H       1  UNL1        0.0278
     58 H          -2.8958    4.1906   -1.4300 H       1  UNL1        0.0864
     59 H          -1.0023    2.4624   -2.1505 H       1  UNL1        0.0864
@<TRIPOS>BOND
     1     1     2    1
     2     2     3   ar
     3     3     4   ar
     4     4     5   ar
     5     5     6    1
     6     6     7   ar
     7     7     8   ar
     8     8     9   ar
     9     9    10   ar
    10     5    11   ar
    11    11    12   ar
    12    12    13    1
    13    13    14    1
    14    14    15    1
    15    15    16    1
    16    16    17    1
    17    17    18    1
    18    18    19    1
    19    19    20   am
    20    20    21    2
    21    20    22    1
    22    22    23   ar
    23    23    24   ar
    24    24    25   ar
    25    25    26   ar
    26    26    27    1
    27    26    28   ar
    28    28    29    1
    29    29    30   ar
    30    30    31   ar
    31    31    32   ar
    32    32    33   ar
    33    12     2   ar
    34    19    14    1
    35    28    22   ar
    36    33    29   ar
    37    10     6   ar
    38     1    34    1
    39     1    35    1
    40     1    36    1
    41     3    37    1
    42     4    38    1
    43     7    39    1
    44     8    40    1
    45     9    41    1
    46    11    42    1
    47    13    43    1
    48    13    44    1
    49    14    45    1
    50    15    46    1
    51    15    47    1
    52    17    48    1
    53    17    49    1
    54    18    50    1
    55    18    51    1
    56    23    52    1
    57    24    53    1
    58    25    54    1
    59    27    55    1
    60    27    56    1
    61    27    57    1
    62    31    58    1
    63    32    59    1
