
     RDKit          3D

 59 63  0  0  0  0  0  0  0  0999 V2000
    2.7536   -2.0238   -2.0886 C   0  0  0  0  0  0  0  0  0  0  0  0
    3.1775   -0.8555   -1.3083 C   0  0  0  0  0  0  0  0  0  0  0  0
    4.5390   -0.5695   -1.3466 C   0  0  0  0  0  0  0  0  0  0  0  0
    5.0906    0.5177   -0.6973 C   0  0  0  0  0  0  0  0  0  0  0  0
    4.2848    1.3703    0.0246 C   0  0  0  0  0  0  0  0  0  0  0  0
    4.8370    2.5078    0.7075 N   0  0  0  0  0  0  0  0  0  0  0  0
    5.9909    2.5159    1.3601 C   0  0  0  0  0  0  0  0  0  0  0  0
    6.2114    3.7670    1.8941 C   0  0  0  0  0  0  0  0  0  0  0  0
    5.1241    4.5230    1.5292 C   0  0  0  0  0  0  0  0  0  0  0  0
    4.3286    3.7108    0.8150 N   0  0  0  0  0  0  0  0  0  0  0  0
    2.9425    1.0847    0.0608 C   0  0  0  0  0  0  0  0  0  0  0  0
    2.3727   -0.0213   -0.5974 C   0  0  0  0  0  0  0  0  0  0  0  0
    0.9403   -0.2826   -0.4752 C   0  0  0  0  0  0  0  0  0  0  0  0
    0.5034   -1.2146    0.5941 C   0  0  2  0  0  0  0  0  0  0  0  0
    0.9817   -2.5987    0.6137 C   0  0  0  0  0  0  0  0  0  0  0  0
    0.5109   -3.4688   -0.3243 O   0  0  0  0  0  0  0  0  0  0  0  0
   -0.8130   -3.4416   -0.6254 C   0  0  0  0  0  0  0  0  0  0  0  0
   -1.5007   -2.1204   -0.5266 C   0  0  0  0  0  0  0  0  0  0  0  0
   -0.9718   -1.2654    0.5149 N   0  0  0  0  0  0  0  0  0  0  0  0
   -1.7800   -0.5307    1.4014 C   0  0  0  0  0  0  0  0  0  0  0  0
   -1.2842    0.1925    2.2793 O   0  0  0  0  0  0  0  0  0  0  0  0
   -3.2353   -0.6368    1.2678 C   0  0  0  0  0  0  0  0  0  0  0  0
   -3.8568   -1.6241    1.9805 C   0  0  0  0  0  0  0  0  0  0  0  0
   -5.2152   -1.7748    1.8966 C   0  0  0  0  0  0  0  0  0  0  0  0
   -5.9405   -0.9264    1.0924 C   0  0  0  0  0  0  0  0  0  0  0  0
   -5.3593    0.0823    0.3561 C   0  0  0  0  0  0  0  0  0  0  0  0
   -6.1656    0.9797   -0.5002 C   0  0  0  0  0  0  0  0  0  0  0  0
   -3.9792    0.1971    0.4725 C   0  0  0  0  0  0  0  0  0  0  0  0
   -3.3197    1.2283   -0.2666 N   0  0  0  0  0  0  0  0  0  0  0  0
   -3.7221    2.4684   -0.3746 N   0  0  0  0  0  0  0  0  0  0  0  0
   -2.8631    3.1372   -1.1362 C   0  0  0  0  0  0  0  0  0  0  0  0
   -1.8783    2.2556   -1.5160 C   0  0  0  0  0  0  0  0  0  0  0  0
   -2.2063    1.0814   -0.9504 N   0  0  0  0  0  0  0  0  0  0  0  0
    1.7132   -2.0851   -2.3481 H   0  0  0  0  0  0  0  0  0  0  0  0
    3.0511   -2.9401   -1.5433 H   0  0  0  0  0  0  0  0  0  0  0  0
    3.3167   -2.0981   -3.0694 H   0  0  0  0  0  0  0  0  0  0  0  0
    5.2171   -1.2171   -1.9063 H   0  0  0  0  0  0  0  0  0  0  0  0
    6.1581    0.7363   -0.7314 H   0  0  0  0  0  0  0  0  0  0  0  0
    6.6741    1.6857    1.4730 H   0  0  0  0  0  0  0  0  0  0  0  0
    7.0406    4.1203    2.4768 H   0  0  0  0  0  0  0  0  0  0  0  0
    4.9936    5.5692    1.7983 H   0  0  0  0  0  0  0  0  0  0  0  0
    2.2862    1.7247    0.6114 H   0  0  0  0  0  0  0  0  0  0  0  0
    0.4403   -0.4768   -1.4554 H   0  0  0  0  0  0  0  0  0  0  0  0
    0.4608    0.7110   -0.1904 H   0  0  0  0  0  0  0  0  0  0  0  0
    0.7372   -0.7553    1.5907 H   0  0  0  0  0  0  0  0  0  0  0  0
    2.0919   -2.6269    0.6107 H   0  0  0  0  0  0  0  0  0  0  0  0
    0.7119   -3.0194    1.6288 H   0  0  0  0  0  0  0  0  0  0  0  0
   -0.9008   -3.7535   -1.7110 H   0  0  0  0  0  0  0  0  0  0  0  0
   -1.4154   -4.2251   -0.0878 H   0  0  0  0  0  0  0  0  0  0  0  0
   -1.4207   -1.5475   -1.4845 H   0  0  0  0  0  0  0  0  0  0  0  0
   -2.5854   -2.2778   -0.3619 H   0  0  0  0  0  0  0  0  0  0  0  0
   -3.2695   -2.2886    2.6134 H   0  0  0  0  0  0  0  0  0  0  0  0
   -5.7318   -2.5580    2.4579 H   0  0  0  0  0  0  0  0  0  0  0  0
   -7.0245   -1.0889    1.0607 H   0  0  0  0  0  0  0  0  0  0  0  0
   -5.5529    1.2165   -1.4077 H   0  0  0  0  0  0  0  0  0  0  0  0
   -6.5043    1.8682    0.0434 H   0  0  0  0  0  0  0  0  0  0  0  0
   -7.0873    0.4083   -0.7816 H   0  0  0  0  0  0  0  0  0  0  0  0
   -2.8958    4.1906   -1.4300 H   0  0  0  0  0  0  0  0  0  0  0  0
   -1.0023    2.4624   -2.1505 H   0  0  0  0  0  0  0  0  0  0  0  0
  1  2  1  0
  2  3  2  0
  3  4  1  0
  4  5  2  0
  5  6  1  0
  6  7  1  0
  7  8  2  0
  8  9  1  0
  9 10  2  0
  5 11  1  0
 11 12  2  0
 12 13  1  0
 13 14  1  0
 14 15  1  0
 15 16  1  0
 16 17  1  0
 17 18  1  0
 18 19  1  0
 19 20  1  0
 20 21  2  0
 20 22  1  0
 22 23  2  0
 23 24  1  0
 24 25  2  0
 25 26  1  0
 26 27  1  0
 26 28  2  0
 28 29  1  0
 29 30  1  0
 30 31  2  0
 31 32  1  0
 32 33  2  0
 12  2  1  0
 19 14  1  0
 28 22  1  0
 33 29  1  0
 10  6  1  0
  1 34  1  0
  1 35  1  0
  1 36  1  0
  3 37  1  0
  4 38  1  0
  7 39  1  0
  8 40  1  0
  9 41  1  0
 11 42  1  0
 13 43  1  0
 13 44  1  0
 14 45  1  1
 15 46  1  0
 15 47  1  0
 17 48  1  0
 17 49  1  0
 18 50  1  0
 18 51  1  0
 23 52  1  0
 24 53  1  0
 25 54  1  0
 27 55  1  0
 27 56  1  0
 27 57  1  0
 31 58  1  0
 32 59  1  0
M  END
$$$$
