@<TRIPOS>MOLECULE
*****
 30 33 0 0 0
SMALL
GASTEIGER

@<TRIPOS>ATOM
      1 BR         -4.1388    3.3614    1.1887 Br      1  UNL1       -0.0503
      2 C          -3.6400    1.6790    0.4536 C.ar    1  UNL1        0.0186
      3 C          -2.3611    1.1866    0.3394 C.ar    1  UNL1       -0.0380
      4 C          -2.0061   -0.0036   -0.1804 C.ar    1  UNL1        0.0113
      5 C          -3.0728   -0.7424   -0.6178 C.ar    1  UNL1        0.0417
      6 N          -2.6675   -2.0129   -1.1705 N.am    1  UNL1       -0.2809
      7 C          -1.2515   -2.0277   -1.0511 C.2     1  UNL1        0.2508
      8 O          -0.5585   -2.9806   -1.4308 O.2     1  UNL1       -0.2698
      9 C          -0.8533   -0.7856   -0.4400 C.2     1  UNL1        0.0708
     10 C           0.3658   -0.4459   -0.1740 C.2     1  UNL1        0.0922
     11 N           1.5413   -1.1945   -0.4161 N.pl3   1  UNL1       -0.3103
     12 C           2.7339   -0.5422   -0.0076 C.ar    1  UNL1        0.0424
     13 C           2.2970    0.6799    0.5197 C.ar    1  UNL1        0.0447
     14 C           3.3514    1.4735    0.9814 C.ar    1  UNL1       -0.0491
     15 C           4.6792    1.1244    0.9380 C.ar    1  UNL1       -0.0610
     16 C           4.9822   -0.0922    0.4012 C.ar    1  UNL1       -0.0600
     17 C           4.0430   -0.9709   -0.0896 C.ar    1  UNL1       -0.0398
     18 C           0.8522    0.7570    0.4267 C.2     1  UNL1        0.2095
     19 O           0.3729    1.7912    0.8632 O.2     1  UNL1       -0.2852
     20 C          -4.4090   -0.3307   -0.5461 C.ar    1  UNL1       -0.0388
     21 C          -4.7067    0.9009   -0.0020 C.ar    1  UNL1       -0.0460
     22 H          -1.7030    1.8909    0.7245 H       1  UNL1        0.0635
     23 H          -3.2488   -2.7784   -1.5769 H       1  UNL1        0.1552
     24 H           1.5125   -2.1384   -0.8560 H       1  UNL1        0.1523
     25 H           3.1136    2.4384    1.4073 H       1  UNL1        0.0625
     26 H           5.4331    1.8003    1.3183 H       1  UNL1        0.0618
     27 H           6.0127   -0.3860    0.3570 H       1  UNL1        0.0618
     28 H           4.2879   -1.9326   -0.5133 H       1  UNL1        0.0636
     29 H          -5.2331   -0.9303   -0.8975 H       1  UNL1        0.0637
     30 H          -5.7287    1.2113    0.0507 H       1  UNL1        0.0629
@<TRIPOS>BOND
     1     1     2    1
     2     2     3   ar
     3     3     4   ar
     4     4     5   ar
     5     5     6    1
     6     6     7   am
     7     7     8    2
     8     7     9    1
     9     9    10    2
    10    10    11    1
    11    11    12    1
    12    12    13   ar
    13    13    14   ar
    14    14    15   ar
    15    15    16   ar
    16    16    17   ar
    17    13    18    1
    18    18    19    2
    19     5    20   ar
    20    20    21   ar
    21    21     2   ar
    22     9     4    1
    23    18    10    1
    24    17    12   ar
    25     3    22    1
    26     6    23    1
    27    11    24    1
    28    14    25    1
    29    15    26    1
    30    16    27    1
    31    17    28    1
    32    20    29    1
    33    21    30    1
