
     RDKit          3D

 30 33  0  0  0  0  0  0  0  0999 V2000
   -4.1388    3.3614    1.1887 Br  0  0  0  0  0  0  0  0  0  0  0  0
   -3.6400    1.6790    0.4536 C   0  0  0  0  0  0  0  0  0  0  0  0
   -2.3611    1.1866    0.3394 C   0  0  0  0  0  0  0  0  0  0  0  0
   -2.0061   -0.0036   -0.1804 C   0  0  0  0  0  0  0  0  0  0  0  0
   -3.0728   -0.7424   -0.6178 C   0  0  0  0  0  0  0  0  0  0  0  0
   -2.6675   -2.0129   -1.1705 N   0  0  0  0  0  0  0  0  0  0  0  0
   -1.2515   -2.0277   -1.0511 C   0  0  0  0  0  0  0  0  0  0  0  0
   -0.5585   -2.9806   -1.4308 O   0  0  0  0  0  0  0  0  0  0  0  0
   -0.8533   -0.7856   -0.4400 C   0  0  0  0  0  0  0  0  0  0  0  0
    0.3658   -0.4459   -0.1740 C   0  0  0  0  0  0  0  0  0  0  0  0
    1.5413   -1.1945   -0.4161 N   0  0  0  0  0  0  0  0  0  0  0  0
    2.7339   -0.5422   -0.0076 C   0  0  0  0  0  0  0  0  0  0  0  0
    2.2970    0.6799    0.5197 C   0  0  0  0  0  0  0  0  0  0  0  0
    3.3514    1.4735    0.9814 C   0  0  0  0  0  0  0  0  0  0  0  0
    4.6792    1.1244    0.9380 C   0  0  0  0  0  0  0  0  0  0  0  0
    4.9822   -0.0922    0.4012 C   0  0  0  0  0  0  0  0  0  0  0  0
    4.0430   -0.9709   -0.0896 C   0  0  0  0  0  0  0  0  0  0  0  0
    0.8522    0.7570    0.4267 C   0  0  0  0  0  0  0  0  0  0  0  0
    0.3729    1.7912    0.8632 O   0  0  0  0  0  0  0  0  0  0  0  0
   -4.4090   -0.3307   -0.5461 C   0  0  0  0  0  0  0  0  0  0  0  0
   -4.7067    0.9009   -0.0020 C   0  0  0  0  0  0  0  0  0  0  0  0
   -1.7030    1.8909    0.7245 H   0  0  0  0  0  0  0  0  0  0  0  0
   -3.2488   -2.7784   -1.5769 H   0  0  0  0  0  0  0  0  0  0  0  0
    1.5125   -2.1384   -0.8560 H   0  0  0  0  0  0  0  0  0  0  0  0
    3.1136    2.4384    1.4073 H   0  0  0  0  0  0  0  0  0  0  0  0
    5.4331    1.8003    1.3183 H   0  0  0  0  0  0  0  0  0  0  0  0
    6.0127   -0.3860    0.3570 H   0  0  0  0  0  0  0  0  0  0  0  0
    4.2879   -1.9326   -0.5133 H   0  0  0  0  0  0  0  0  0  0  0  0
   -5.2331   -0.9303   -0.8975 H   0  0  0  0  0  0  0  0  0  0  0  0
   -5.7287    1.2113    0.0507 H   0  0  0  0  0  0  0  0  0  0  0  0
  1  2  1  0
  2  3  2  0
  3  4  1  0
  4  5  2  0
  5  6  1  0
  6  7  1  0
  7  8  2  0
  7  9  1  0
  9 10  2  0
 10 11  1  0
 11 12  1  0
 12 13  2  0
 13 14  1  0
 14 15  2  0
 15 16  1  0
 16 17  2  0
 13 18  1  0
 18 19  2  0
  5 20  1  0
 20 21  2  0
 21  2  1  0
  9  4  1  0
 18 10  1  0
 17 12  1  0
  3 22  1  0
  6 23  1  0
 11 24  1  0
 14 25  1  0
 15 26  1  0
 16 27  1  0
 17 28  1  0
 20 29  1  0
 21 30  1  0
M  END
$$$$
