@<TRIPOS>MOLECULE
*****
 74 78 0 0 0
SMALL
GASTEIGER

@<TRIPOS>ATOM
      1 C           4.2225   -4.1349   -1.5986 C.3     1  UNL1       -0.0589
      2 C           3.4115   -2.8748   -1.3982 C.3     1  UNL1       -0.0215
      3 C           3.0566   -2.8078    0.0223 C.3     1  UNL1       -0.0589
      4 C           4.1719   -1.6466   -1.9179 C.3     1  UNL1       -0.0133
      5 C           4.4068   -2.0814   -3.3498 C.3     1  UNL1       -0.0473
      6 C           3.1705   -2.8695   -3.6453 C.3     1  UNL1       -0.0434
      7 C           2.2738   -2.7495   -2.3810 C.3     1  UNL1        0.0122
      8 C           1.3104   -3.8383   -2.4540 C.3     1  UNL1       -0.0556
      9 C           1.8134   -1.3583   -2.3870 C.3     1  UNL1        0.1277
     10 O           0.7355   -0.9210   -1.6900 O.3     1  UNL1       -0.4554
     11 C          -0.4050   -0.3136   -2.1010 C.2     1  UNL1        0.3398
     12 O          -0.4061   -0.1644   -3.3393 O.2     1  UNL1       -0.2449
     13 C          -1.5235    0.1395   -1.3151 C.ar    1  UNL1        0.0659
     14 C          -2.6155    0.7172   -1.9468 C.ar    1  UNL1       -0.0053
     15 C          -3.6955    1.1752   -1.2355 C.ar    1  UNL1        0.1320
     16 O          -4.7894    1.7565   -1.9068 O.3     1  UNL1       -0.5059
     17 C          -3.7793    1.0958    0.1644 C.ar    1  UNL1        0.1050
     18 C          -4.9055    1.7076    0.8224 C.2     1  UNL1        0.2044
     19 O          -5.5549    2.6457    0.1845 O.2     1  UNL1       -0.2863
     20 C          -5.4307    1.4335    2.1285 C.ar    1  UNL1        0.0778
     21 C          -5.8566    2.5610    2.8619 C.ar    1  UNL1        0.1285
     22 O          -5.7234    3.8407    2.3197 O.3     1  UNL1       -0.5060
     23 C          -6.4057    2.4491    4.1085 C.ar    1  UNL1       -0.0194
     24 C          -6.5367    1.1956    4.6423 C.ar    1  UNL1       -0.0575
     25 C          -6.1285    0.0821    3.9383 C.ar    1  UNL1       -0.0468
     26 C          -5.5665    0.1825    2.6554 C.ar    1  UNL1        0.0731
     27 C          -5.3719   -1.0724    1.9504 C.2     1  UNL1        0.3376
     28 O          -5.4299   -2.1905    2.5790 O.2     1  UNL1       -0.2451
     29 O          -5.1259   -1.2177    0.6005 O.3     1  UNL1       -0.4771
     30 C          -2.6895    0.5229    0.7767 C.ar    1  UNL1        0.1320
     31 O          -2.6716    0.4052    2.1751 O.3     1  UNL1       -0.5059
     32 C          -1.5875    0.0545    0.0566 C.ar    1  UNL1       -0.0053
     33 C           3.0664   -0.5879   -2.0314 C.3     1  UNL1        0.0642
     34 N           2.9449    0.2163   -0.8548 N.am    1  UNL1       -0.3047
     35 C           3.3873    1.5417   -0.8305 C.2     1  UNL1        0.2444
     36 O           3.9088    2.0309   -1.8931 O.2     1  UNL1       -0.2702
     37 C           3.2845    2.3979    0.3463 C.ar    1  UNL1        0.0369
     38 C           3.8118    3.6776    0.3019 C.ar    1  UNL1       -0.0462
     39 C           3.7686    4.5655    1.3633 C.ar    1  UNL1       -0.0195
     40 C           3.1653    4.1709    2.5532 C.ar    1  UNL1        0.1169
     41 O           3.1100    5.0444    3.6327 O.3     1  UNL1       -0.5068
     42 C           2.6429    2.9035    2.5958 C.ar    1  UNL1       -0.0195
     43 C           2.6845    2.0067    1.5285 C.ar    1  UNL1       -0.0462
     44 H           4.7452   -4.2231   -2.5391 H       1  UNL1        0.0235
     45 H           3.5717   -4.9938   -1.3437 H       1  UNL1        0.0235
     46 H           4.9993   -4.1116   -0.7795 H       1  UNL1        0.0235
     47 H           2.0216   -2.4925    0.2479 H       1  UNL1        0.0235
     48 H           3.7430   -2.1359    0.5435 H       1  UNL1        0.0235
     49 H           3.1631   -3.8086    0.4904 H       1  UNL1        0.0235
     50 H           5.0196   -1.3665   -1.3458 H       1  UNL1        0.0325
     51 H           4.4373   -1.1182   -3.9445 H       1  UNL1        0.0269
     52 H           5.3546   -2.5660   -3.5431 H       1  UNL1        0.0269
     53 H           3.3168   -3.8953   -3.9507 H       1  UNL1        0.0272
     54 H           2.6065   -2.3254   -4.4598 H       1  UNL1        0.0272
     55 H           0.3653   -3.6811   -1.8545 H       1  UNL1        0.0236
     56 H           1.0473   -4.0329   -3.5340 H       1  UNL1        0.0236
     57 H           1.6907   -4.8166   -2.0891 H       1  UNL1        0.0236
     58 H           1.5756   -1.0852   -3.4542 H       1  UNL1        0.0758
     59 H          -2.5912    0.7961   -3.0417 H       1  UNL1        0.0662
     60 H          -4.7842    1.7851   -2.9181 H       1  UNL1        0.2922
     61 H          -6.4300    4.2615    1.7279 H       1  UNL1        0.2922
     62 H          -6.7279    3.3447    4.6557 H       1  UNL1        0.0654
     63 H          -6.9649    1.0278    5.6332 H       1  UNL1        0.0619
     64 H          -6.2263   -0.9180    4.3547 H       1  UNL1        0.0626
     65 H          -4.7662   -2.0723    0.1897 H       1  UNL1        0.2954
     66 H          -2.7252    1.2968    2.6934 H       1  UNL1        0.2922
     67 H          -0.7400   -0.3959    0.5635 H       1  UNL1        0.0662
     68 H           3.4375    0.0714   -2.8572 H       1  UNL1        0.0538
     69 H           2.5191   -0.1680    0.0157 H       1  UNL1        0.1494
     70 H           4.2943    4.0127   -0.6291 H       1  UNL1        0.0626
     71 H           4.1976    5.5615    1.2835 H       1  UNL1        0.0654
     72 H           3.2649    4.7654    4.5903 H       1  UNL1        0.2921
     73 H           2.1664    2.5646    3.5047 H       1  UNL1        0.0654
     74 H           2.2698    1.0282    1.5850 H       1  UNL1        0.0626
@<TRIPOS>BOND
     1     1     2    1
     2     2     3    1
     3     2     4    1
     4     4     5    1
     5     5     6    1
     6     6     7    1
     7     7     8    1
     8     7     9    1
     9     9    10    1
    10    10    11    1
    11    11    12    2
    12    11    13    1
    13    13    14   ar
    14    14    15   ar
    15    15    16    1
    16    15    17   ar
    17    17    18    1
    18    18    19    2
    19    18    20    1
    20    20    21   ar
    21    21    22    1
    22    21    23   ar
    23    23    24   ar
    24    24    25   ar
    25    25    26   ar
    26    26    27    1
    27    27    28    2
    28    27    29    1
    29    17    30   ar
    30    30    31    1
    31    30    32   ar
    32     9    33    1
    33    33    34    1
    34    34    35   am
    35    35    36    2
    36    35    37    1
    37    37    38   ar
    38    38    39   ar
    39    39    40   ar
    40    40    41    1
    41    40    42   ar
    42    42    43   ar
    43     7     2    1
    44    32    13   ar
    45    43    37   ar
    46    33     4    1
    47    26    20   ar
    48     1    44    1
    49     1    45    1
    50     1    46    1
    51     3    47    1
    52     3    48    1
    53     3    49    1
    54     4    50    1
    55     5    51    1
    56     5    52    1
    57     6    53    1
    58     6    54    1
    59     8    55    1
    60     8    56    1
    61     8    57    1
    62     9    58    1
    63    14    59    1
    64    16    60    1
    65    22    61    1
    66    23    62    1
    67    24    63    1
    68    25    64    1
    69    29    65    1
    70    31    66    1
    71    32    67    1
    72    33    68    1
    73    34    69    1
    74    38    70    1
    75    39    71    1
    76    41    72    1
    77    42    73    1
    78    43    74    1
