
     RDKit          3D

 74 78  0  0  0  0  0  0  0  0999 V2000
    4.2225   -4.1349   -1.5986 C   0  0  0  0  0  0  0  0  0  0  0  0
    3.4115   -2.8748   -1.3982 C   0  0  0  0  0  0  0  0  0  0  0  0
    3.0566   -2.8078    0.0223 C   0  0  0  0  0  0  0  0  0  0  0  0
    4.1719   -1.6466   -1.9179 C   0  0  0  0  0  0  0  0  0  0  0  0
    4.4068   -2.0814   -3.3498 C   0  0  0  0  0  0  0  0  0  0  0  0
    3.1705   -2.8695   -3.6453 C   0  0  0  0  0  0  0  0  0  0  0  0
    2.2738   -2.7495   -2.3810 C   0  0  0  0  0  0  0  0  0  0  0  0
    1.3104   -3.8383   -2.4540 C   0  0  0  0  0  0  0  0  0  0  0  0
    1.8134   -1.3583   -2.3870 C   0  0  0  0  0  0  0  0  0  0  0  0
    0.7355   -0.9210   -1.6900 O   0  0  0  0  0  0  0  0  0  0  0  0
   -0.4050   -0.3136   -2.1010 C   0  0  0  0  0  0  0  0  0  0  0  0
   -0.4061   -0.1644   -3.3393 O   0  0  0  0  0  0  0  0  0  0  0  0
   -1.5235    0.1395   -1.3151 C   0  0  0  0  0  0  0  0  0  0  0  0
   -2.6155    0.7172   -1.9468 C   0  0  0  0  0  0  0  0  0  0  0  0
   -3.6955    1.1752   -1.2355 C   0  0  0  0  0  0  0  0  0  0  0  0
   -4.7894    1.7565   -1.9068 O   0  0  0  0  0  0  0  0  0  0  0  0
   -3.7793    1.0958    0.1644 C   0  0  0  0  0  0  0  0  0  0  0  0
   -4.9055    1.7076    0.8224 C   0  0  0  0  0  0  0  0  0  0  0  0
   -5.5549    2.6457    0.1845 O   0  0  0  0  0  0  0  0  0  0  0  0
   -5.4307    1.4335    2.1285 C   0  0  0  0  0  0  0  0  0  0  0  0
   -5.8566    2.5610    2.8619 C   0  0  0  0  0  0  0  0  0  0  0  0
   -5.7234    3.8407    2.3197 O   0  0  0  0  0  0  0  0  0  0  0  0
   -6.4057    2.4491    4.1085 C   0  0  0  0  0  0  0  0  0  0  0  0
   -6.5367    1.1956    4.6423 C   0  0  0  0  0  0  0  0  0  0  0  0
   -6.1285    0.0821    3.9383 C   0  0  0  0  0  0  0  0  0  0  0  0
   -5.5665    0.1825    2.6554 C   0  0  0  0  0  0  0  0  0  0  0  0
   -5.3719   -1.0724    1.9504 C   0  0  0  0  0  0  0  0  0  0  0  0
   -5.4299   -2.1905    2.5790 O   0  0  0  0  0  0  0  0  0  0  0  0
   -5.1259   -1.2177    0.6005 O   0  0  0  0  0  0  0  0  0  0  0  0
   -2.6895    0.5229    0.7767 C   0  0  0  0  0  0  0  0  0  0  0  0
   -2.6716    0.4052    2.1751 O   0  0  0  0  0  0  0  0  0  0  0  0
   -1.5875    0.0545    0.0566 C   0  0  0  0  0  0  0  0  0  0  0  0
    3.0664   -0.5879   -2.0314 C   0  0  0  0  0  0  0  0  0  0  0  0
    2.9449    0.2163   -0.8548 N   0  0  0  0  0  0  0  0  0  0  0  0
    3.3873    1.5417   -0.8305 C   0  0  0  0  0  0  0  0  0  0  0  0
    3.9088    2.0309   -1.8931 O   0  0  0  0  0  0  0  0  0  0  0  0
    3.2845    2.3979    0.3463 C   0  0  0  0  0  0  0  0  0  0  0  0
    3.8118    3.6776    0.3019 C   0  0  0  0  0  0  0  0  0  0  0  0
    3.7686    4.5655    1.3633 C   0  0  0  0  0  0  0  0  0  0  0  0
    3.1653    4.1709    2.5532 C   0  0  0  0  0  0  0  0  0  0  0  0
    3.1100    5.0444    3.6327 O   0  0  0  0  0  0  0  0  0  0  0  0
    2.6429    2.9035    2.5958 C   0  0  0  0  0  0  0  0  0  0  0  0
    2.6845    2.0067    1.5285 C   0  0  0  0  0  0  0  0  0  0  0  0
    4.7452   -4.2231   -2.5391 H   0  0  0  0  0  0  0  0  0  0  0  0
    3.5717   -4.9938   -1.3437 H   0  0  0  0  0  0  0  0  0  0  0  0
    4.9993   -4.1116   -0.7795 H   0  0  0  0  0  0  0  0  0  0  0  0
    2.0216   -2.4925    0.2479 H   0  0  0  0  0  0  0  0  0  0  0  0
    3.7430   -2.1359    0.5435 H   0  0  0  0  0  0  0  0  0  0  0  0
    3.1631   -3.8086    0.4904 H   0  0  0  0  0  0  0  0  0  0  0  0
    5.0196   -1.3665   -1.3458 H   0  0  0  0  0  0  0  0  0  0  0  0
    4.4373   -1.1182   -3.9445 H   0  0  0  0  0  0  0  0  0  0  0  0
    5.3546   -2.5660   -3.5431 H   0  0  0  0  0  0  0  0  0  0  0  0
    3.3168   -3.8953   -3.9507 H   0  0  0  0  0  0  0  0  0  0  0  0
    2.6065   -2.3254   -4.4598 H   0  0  0  0  0  0  0  0  0  0  0  0
    0.3653   -3.6811   -1.8545 H   0  0  0  0  0  0  0  0  0  0  0  0
    1.0473   -4.0329   -3.5340 H   0  0  0  0  0  0  0  0  0  0  0  0
    1.6907   -4.8166   -2.0891 H   0  0  0  0  0  0  0  0  0  0  0  0
    1.5756   -1.0852   -3.4542 H   0  0  0  0  0  0  0  0  0  0  0  0
   -2.5912    0.7961   -3.0417 H   0  0  0  0  0  0  0  0  0  0  0  0
   -4.7842    1.7851   -2.9181 H   0  0  0  0  0  0  0  0  0  0  0  0
   -6.4300    4.2615    1.7279 H   0  0  0  0  0  0  0  0  0  0  0  0
   -6.7279    3.3447    4.6557 H   0  0  0  0  0  0  0  0  0  0  0  0
   -6.9649    1.0278    5.6332 H   0  0  0  0  0  0  0  0  0  0  0  0
   -6.2263   -0.9180    4.3547 H   0  0  0  0  0  0  0  0  0  0  0  0
   -4.7662   -2.0723    0.1897 H   0  0  0  0  0  0  0  0  0  0  0  0
   -2.7252    1.2968    2.6934 H   0  0  0  0  0  0  0  0  0  0  0  0
   -0.7400   -0.3959    0.5635 H   0  0  0  0  0  0  0  0  0  0  0  0
    3.4375    0.0714   -2.8572 H   0  0  0  0  0  0  0  0  0  0  0  0
    2.5191   -0.1680    0.0157 H   0  0  0  0  0  0  0  0  0  0  0  0
    4.2943    4.0127   -0.6291 H   0  0  0  0  0  0  0  0  0  0  0  0
    4.1976    5.5615    1.2835 H   0  0  0  0  0  0  0  0  0  0  0  0
    3.2649    4.7654    4.5903 H   0  0  0  0  0  0  0  0  0  0  0  0
    2.1664    2.5646    3.5047 H   0  0  0  0  0  0  0  0  0  0  0  0
    2.2698    1.0282    1.5850 H   0  0  0  0  0  0  0  0  0  0  0  0
  1  2  1  0
  2  3  1  0
  2  4  1  0
  4  5  1  0
  5  6  1  0
  6  7  1  0
  7  8  1  0
  7  9  1  0
  9 10  1  0
 10 11  1  0
 11 12  2  0
 11 13  1  0
 13 14  2  0
 14 15  1  0
 15 16  1  0
 15 17  2  0
 17 18  1  0
 18 19  2  0
 18 20  1  0
 20 21  2  0
 21 22  1  0
 21 23  1  0
 23 24  2  0
 24 25  1  0
 25 26  2  0
 26 27  1  0
 27 28  2  0
 27 29  1  0
 17 30  1  0
 30 31  1  0
 30 32  2  0
  9 33  1  0
 33 34  1  0
 34 35  1  0
 35 36  2  0
 35 37  1  0
 37 38  2  0
 38 39  1  0
 39 40  2  0
 40 41  1  0
 40 42  1  0
 42 43  2  0
  7  2  1  0
 32 13  1  0
 43 37  1  0
 33  4  1  0
 26 20  1  0
  1 44  1  0
  1 45  1  0
  1 46  1  0
  3 47  1  0
  3 48  1  0
  3 49  1  0
  4 50  1  0
  5 51  1  0
  5 52  1  0
  6 53  1  0
  6 54  1  0
  8 55  1  0
  8 56  1  0
  8 57  1  0
  9 58  1  0
 14 59  1  0
 16 60  1  0
 22 61  1  0
 23 62  1  0
 24 63  1  0
 25 64  1  0
 29 65  1  0
 31 66  1  0
 32 67  1  0
 33 68  1  0
 34 69  1  0
 38 70  1  0
 39 71  1  0
 41 72  1  0
 42 73  1  0
 43 74  1  0
M  END
$$$$
