@<TRIPOS>MOLECULE
*****
 51 53 0 0 0
SMALL
GASTEIGER

@<TRIPOS>ATOM
      1 CA          7.0161    0.9228   -0.0570 C.3     1  ALA1        0.0437
      2 CB          7.9545    1.3812    1.0284 C.3     1  ALA1       -0.0445
      3 C           7.8516    0.1254   -1.0510 C.3     1  ALA1        0.0623
      4 O           7.0627   -0.3030   -2.1166 O.3     1  ALA1       -0.3932
      5 N           5.9847    0.0563    0.4100 N.am    1  ALA1       -0.3061
      6 C           4.6320    0.3104    0.2044 C.2     0  UNK0        0.2528
      7 O           4.3643    1.3650   -0.4271 O.2     0  UNK0       -0.2696
      8 C           3.4555   -0.4975    0.6309 C.ar    0  UNK0        0.0968
      9 C           3.1324   -1.6826    1.3149 C.ar    0  UNK0        0.0583
     10 C           4.3070   -2.4462    1.8131 C.3     0  UNK0       -0.0211
     11 N           1.8478   -1.9332    1.4091 N.ar    0  UNK0       -0.2419
     12 C           0.9521   -1.3057    1.0027 C.ar    0  UNK0        0.1276
     13 S           1.8344    0.1426    0.1871 S.2     0  UNK0       -0.0608
     14 C          -0.5421   -1.4031    0.9981 C.ar    0  UNK0        0.1010
     15 N          -1.2522   -0.4556    0.4113 N.ar    0  UNK0       -0.2121
     16 C          -2.5879   -0.4274    0.3394 C.ar    0  UNK0        0.2201
     17 N          -3.2594    0.6377   -0.3150 N.pl3   0  UNK0       -0.2836
     18 C          -4.6369    0.8323   -0.4865 C.ar    0  UNK0        0.0341
     19 C          -5.1188    1.9454   -1.1612 C.ar    0  UNK0       -0.0375
     20 C          -6.4351    2.2035   -1.3675 C.ar    0  UNK0       -0.0484
     21 C          -6.8718    3.4159   -2.0987 C.3     0  UNK0       -0.0396
     22 C          -7.3870    1.3400   -0.8988 C.ar    0  UNK0       -0.0558
     23 C          -6.9894    0.2138   -0.2200 C.ar    0  UNK0       -0.0484
     24 C          -8.0102   -0.7211    0.2878 C.3     0  UNK0       -0.0396
     25 C          -5.6494    0.0098   -0.0445 C.ar    0  UNK0       -0.0375
     26 N          -3.1897   -1.4699    0.9278 N.ar    0  UNK0       -0.2226
     27 C          -2.5521   -2.4727    1.5442 C.ar    0  UNK0        0.0333
     28 C          -1.1773   -2.4636    1.5958 C.ar    0  UNK0       -0.0154
     29 HA          6.6398    1.8138   -0.5965 H       1  ALA1        0.0518
     30 HB1         8.9327    1.5872    0.5460 H       1  ALA1        0.0248
     31 HB2         7.6457    2.3474    1.4773 H       1  ALA1        0.0248
     32 HB3         8.1153    0.5861    1.7718 H       1  ALA1        0.0248
     33 H1          8.2285   -0.7949   -0.5302 H       1  ALA1        0.0575
     34 H2          8.7179    0.7057   -1.4291 H       1  ALA1        0.0575
     35 H           7.2052   -1.2676   -2.2998 H       1  ALA1        0.2095
     36 H           6.1988   -0.8065    0.9264 H       1  ALA1        0.1494
     37 H           3.9911   -3.3633    2.3588 H       0  UNK0        0.0293
     38 H           4.9504   -2.8226    0.9900 H       0  UNK0        0.0293
     39 H           4.8678   -1.8592    2.5839 H       0  UNK0        0.0293
     40 H          -2.6355    1.3823   -0.7273 H       0  UNK0        0.1550
     41 H          -4.4169    2.6690   -1.5578 H       0  UNK0        0.0639
     42 H          -6.3932    4.3338   -1.6935 H       0  UNK0        0.0278
     43 H          -6.6245    3.3831   -3.1729 H       0  UNK0        0.0278
     44 H          -7.9666    3.5588   -2.0193 H       0  UNK0        0.0278
     45 H          -8.4299    1.5509   -1.0660 H       0  UNK0        0.0623
     46 H          -8.5397   -1.2232   -0.5650 H       0  UNK0        0.0278
     47 H          -7.5363   -1.5316    0.8536 H       0  UNK0        0.0278
     48 H          -8.7290   -0.1959    0.9482 H       0  UNK0        0.0278
     49 H          -5.3960   -0.8867    0.4933 H       0  UNK0        0.0639
     50 H          -3.0409   -3.3099    2.0165 H       0  UNK0        0.0831
     51 H          -0.5203   -3.1772    2.0428 H       0  UNK0        0.0655
@<TRIPOS>BOND
     1     1     2    1
     2     1     3    1
     3     3     4    1
     4     1     5    1
     5     5     6   am
     6     6     7    2
     7     6     8    1
     8     8     9   ar
     9     9    10    1
    10     9    11   ar
    11    11    12   ar
    12    12    13   ar
    13    12    14    1
    14    14    15   ar
    15    15    16   ar
    16    16    17    1
    17    17    18    1
    18    18    19   ar
    19    19    20   ar
    20    20    21    1
    21    20    22   ar
    22    22    23   ar
    23    23    24    1
    24    23    25   ar
    25    16    26   ar
    26    26    27   ar
    27    27    28   ar
    28    13     8   ar
    29    28    14   ar
    30    25    18   ar
    31     1    29    1
    32     2    30    1
    33     2    31    1
    34     2    32    1
    35     3    33    1
    36     3    34    1
    37     4    35    1
    38     5    36    1
    39    10    37    1
    40    10    38    1
    41    10    39    1
    42    17    40    1
    43    19    41    1
    44    21    42    1
    45    21    43    1
    46    21    44    1
    47    22    45    1
    48    24    46    1
    49    24    47    1
    50    24    48    1
    51    25    49    1
    52    27    50    1
    53    28    51    1
