
     RDKit          3D

114122  0  0  0  0  0  0  0  0999 V2000
   -8.9794   -0.0732   -0.1529 C   0  0  2  0  0  0  0  0  0  0  0  0
   -7.8458   -0.6917   -0.8307 N   0  0  0  0  0  0  0  0  0  0  0  0
   -8.0320   -1.5627   -1.8678 C   0  0  0  0  0  0  0  0  0  0  0  0
   -7.0545   -2.1865   -2.5498 N   0  0  0  0  0  0  0  0  0  0  0  0
   -5.7688   -1.9699   -2.2237 C   0  0  0  0  0  0  0  0  0  0  0  0
   -4.6158   -2.4270   -2.6975 N   0  0  0  0  0  0  0  0  0  0  0  0
   -3.5928   -1.8930   -2.0103 N   0  0  0  0  0  0  0  0  0  0  0  0
   -4.1447   -1.0680   -1.0696 C   0  0  0  0  0  0  0  0  0  0  0  0
   -5.5158   -1.0968   -1.1802 C   0  0  0  0  0  0  0  0  0  0  0  0
   -6.5680   -0.4883   -0.5208 C   0  0  0  0  0  0  0  0  0  0  0  0
   -6.1958    0.5180    0.6731 S   0  0  0  0  0  0  0  0  0  0  0  0
   -2.1315   -1.9857   -2.0330 C   0  0  1  0  0  0  0  0  0  0  0  0
   -1.5596   -0.6304   -1.8522 C   0  0  0  0  0  0  0  0  0  0  0  0
   -0.7416   -0.2910   -0.8909 C   0  0  0  0  0  0  0  0  0  0  0  0
   -0.3304   -1.2640    0.0934 N   0  0  0  0  0  0  0  0  0  0  0  0
   -0.8266   -2.5949    0.0011 C   0  0  0  0  0  0  0  0  0  0  0  0
   -1.6532   -2.9189   -0.9784 C   0  0  0  0  0  0  0  0  0  0  0  0
   -2.1563   -4.2601   -1.0722 C   0  0  0  0  0  0  0  0  0  0  0  0
   -3.0246   -4.7325   -2.0427 O   0  0  0  0  0  1  0  0  0  0  0  0
   -1.9202   -5.2712   -0.3084 N   0  0  0  0  0  0  0  0  0  0  0  0
    0.5500   -0.9149    1.1540 C   0  0  2  0  0  0  0  0  0  0  0  0
    1.8507   -0.5873    0.7606 O   0  0  0  0  0  0  0  0  0  0  0  0
    2.5026   -0.4093    1.9557 C   0  0  2  0  0  0  0  0  0  0  0  0
    3.9924   -0.6491    1.9122 C   0  0  0  0  0  0  0  0  0  0  0  0
    4.2556   -1.9426    1.5063 O   0  0  0  0  0  0  0  0  0  0  0  0
    5.7552   -2.5117    1.9712 P   0  0  0  0  0  0  0  0  0  0  0  0
    6.5247   -1.4555    3.0561 O   0  0  0  0  0  1  0  0  0  0  0  0
    5.5193   -3.8000    2.7772 O   0  0  0  0  0  0  0  0  0  0  0  0
    6.7778   -2.9096    0.7258 O   0  0  0  0  0  0  0  0  0  0  0  0
    6.4834   -2.1556   -0.7307 P   0  0  0  0  0  0  0  0  0  0  0  0
    4.9351   -1.5470   -0.8988 O   0  0  0  0  0  0  0  0  0  0  0  0
    6.6529   -3.2084   -1.8266 O   0  0  0  0  0  0  0  0  0  0  0  0
    7.6376   -0.9555   -1.0602 O   0  0  0  0  0  0  0  0  0  0  0  0
    7.4618    0.1454   -0.2296 C   0  0  0  0  0  0  0  0  0  0  0  0
    8.5713    1.1588   -0.4307 C   0  0  1  0  0  0  0  0  0  0  0  0
    9.8248    0.5740   -0.1382 O   0  0  0  0  0  0  0  0  0  0  0  0
   10.6833    1.5432   -0.6222 C   0  0  1  0  0  0  0  0  0  0  0  0
   12.0669    1.0884   -0.6067 N   0  0  0  0  0  0  0  0  0  0  0  0
   12.5463   -0.0789   -1.0642 C   0  0  0  0  0  0  0  0  0  0  0  0
   13.8801   -0.1919   -0.8991 N   0  0  0  0  0  0  0  0  0  0  0  0
   14.2984    0.9439   -0.3101 C   0  0  0  0  0  0  0  0  0  0  0  0
   15.5485    1.4144    0.1099 C   0  0  0  0  0  0  0  0  0  0  0  0
   16.7112    0.5848   -0.0820 N   0  0  0  0  0  0  0  0  0  0  0  0
   15.6687    2.6423    0.6933 N   0  0  0  0  0  0  0  0  0  0  0  0
   14.5350    3.3870    0.8504 C   0  0  0  0  0  0  0  0  0  0  0  0
   13.3187    2.9428    0.4482 N   0  0  0  0  0  0  0  0  0  0  0  0
   13.1646    1.7348   -0.1316 C   0  0  0  0  0  0  0  0  0  0  0  0
   10.1692    1.8297   -1.9960 C   0  0  2  0  0  0  0  0  0  0  0  0
   10.4618    3.1568   -2.2901 O   0  0  0  0  0  1  0  0  0  0  0  0
    8.6631    1.6251   -1.8495 C   0  0  2  0  0  0  0  0  0  0  0  0
    8.0510    2.8839   -2.0066 O   0  0  0  0  0  1  0  0  0  0  0  0
    1.9380   -1.3971    2.9569 C   0  0  1  0  0  0  0  0  0  0  0  0
    1.2567   -0.6704    3.9447 O   0  0  0  0  0  0  0  0  0  0  0  0
    0.8565   -2.0768    2.1058 C   0  0  1  0  0  0  0  0  0  0  0  0
   -0.2475   -2.4207    2.8782 O   0  0  0  0  0  0  0  0  0  0  0  0
   -8.7919    1.3279    0.1974 C   0  0  0  0  0  0  0  0  0  0  0  0
   -9.1541    1.3812    1.4244 O   0  0  0  0  0  0  0  0  0  0  0  0
   -8.3353    2.4573   -0.5275 N   0  0  0  0  0  0  0  0  0  0  0  0
   -7.9217    2.4804   -1.9341 C   0  0  0  0  0  0  0  0  0  0  0  0
   -9.0538    3.0098   -2.8031 C   0  0  0  0  0  0  0  0  0  0  0  0
   -9.5220    4.3008   -2.1647 C   0  0  0  0  0  0  0  0  0  0  0  0
  -10.4181    3.9899   -1.0019 C   0  0  0  0  0  0  0  0  0  0  0  0
   -9.7412    4.1850    0.3386 C   0  0  0  0  0  0  0  0  0  0  0  0
   -8.3217    3.6635    0.3224 C   0  0  0  0  0  0  0  0  0  0  0  0
   -9.5634   -0.9325    0.8640 C   0  0  0  0  0  0  0  0  0  0  0  0
  -10.6635   -1.7656    0.5994 C   0  0  0  0  0  0  0  0  0  0  0  0
  -11.2771   -2.6122    1.4969 C   0  0  0  0  0  0  0  0  0  0  0  0
  -10.7744   -2.6550    2.7780 C   0  0  0  0  0  0  0  0  0  0  0  0
   -9.6794   -1.8617    3.1393 C   0  0  0  0  0  0  0  0  0  0  0  0
   -9.1308   -1.0361    2.1488 C   0  0  0  0  0  0  0  0  0  0  0  0
   -9.7664   -0.0255   -0.9677 H   0  0  0  0  0  0  0  0  0  0  0  0
   -9.0376   -1.8107   -2.2154 H   0  0  0  0  0  0  0  0  0  0  0  0
   -3.6722   -0.4508   -0.3164 H   0  0  0  0  0  0  0  0  0  0  0  0
   -1.8048   -2.3712   -3.0156 H   0  0  0  0  0  0  0  0  0  0  0  0
   -1.9087    0.0355   -2.6172 H   0  0  0  0  0  0  0  0  0  0  0  0
   -0.3766    0.7310   -0.8421 H   0  0  0  0  0  0  0  0  0  0  0  0
   -0.5097   -3.3280    0.7478 H   0  0  0  0  0  0  0  0  0  0  0  0
   -1.2929   -5.1865    0.5039 H   0  0  0  0  0  0  0  0  0  0  0  0
    0.1505   -0.1025    1.7963 H   0  0  0  0  0  0  0  0  0  0  0  0
    2.3022    0.6539    2.2694 H   0  0  0  0  0  0  0  0  0  0  0  0
    4.5322    0.0704    1.2686 H   0  0  0  0  0  0  0  0  0  0  0  0
    4.3414   -0.4874    2.9748 H   0  0  0  0  0  0  0  0  0  0  0  0
    4.8073   -1.3633   -1.8742 H   0  0  0  0  0  0  0  0  0  0  0  0
    6.5215    0.6539   -0.5873 H   0  0  0  0  0  0  0  0  0  0  0  0
    7.4247   -0.1350    0.8364 H   0  0  0  0  0  0  0  0  0  0  0  0
    8.4625    2.0238    0.2350 H   0  0  0  0  0  0  0  0  0  0  0  0
   10.5902    2.4454    0.0208 H   0  0  0  0  0  0  0  0  0  0  0  0
   11.9443   -0.8543   -1.5178 H   0  0  0  0  0  0  0  0  0  0  0  0
   16.8134   -0.1021    0.7192 H   0  0  0  0  0  0  0  0  0  0  0  0
   17.2130    0.8413   -0.9830 H   0  0  0  0  0  0  0  0  0  0  0  0
   14.6823    4.3676    1.3248 H   0  0  0  0  0  0  0  0  0  0  0  0
   10.5392    1.1155   -2.7468 H   0  0  0  0  0  0  0  0  0  0  0  0
    8.2829    0.8928   -2.5883 H   0  0  0  0  0  0  0  0  0  0  0  0
    2.6678   -2.1013    3.3605 H   0  0  0  0  0  0  0  0  0  0  0  0
    0.4983   -1.1883    4.2955 H   0  0  0  0  0  0  0  0  0  0  0  0
    1.3282   -2.9239    1.6011 H   0  0  0  0  0  0  0  0  0  0  0  0
   -0.9320   -1.6857    2.7839 H   0  0  0  0  0  0  0  0  0  0  0  0
   -7.5136    1.5429   -2.3009 H   0  0  0  0  0  0  0  0  0  0  0  0
   -7.0902    3.2053   -2.0512 H   0  0  0  0  0  0  0  0  0  0  0  0
   -9.9120    2.3108   -2.8283 H   0  0  0  0  0  0  0  0  0  0  0  0
   -8.6534    3.2352   -3.7964 H   0  0  0  0  0  0  0  0  0  0  0  0
   -8.6127    4.8184   -1.7580 H   0  0  0  0  0  0  0  0  0  0  0  0
   -9.9854    4.9846   -2.9009 H   0  0  0  0  0  0  0  0  0  0  0  0
  -10.7837    2.9435   -1.1176 H   0  0  0  0  0  0  0  0  0  0  0  0
  -11.3301    4.6206   -1.0036 H   0  0  0  0  0  0  0  0  0  0  0  0
  -10.3081    3.5306    1.0640 H   0  0  0  0  0  0  0  0  0  0  0  0
   -9.8441    5.2119    0.7100 H   0  0  0  0  0  0  0  0  0  0  0  0
   -7.5974    4.3859   -0.0451 H   0  0  0  0  0  0  0  0  0  0  0  0
   -8.0010    3.3209    1.3266 H   0  0  0  0  0  0  0  0  0  0  0  0
  -11.0796   -1.7443   -0.4195 H   0  0  0  0  0  0  0  0  0  0  0  0
  -12.1178   -3.2061    1.1763 H   0  0  0  0  0  0  0  0  0  0  0  0
  -11.2194   -3.3010    3.5145 H   0  0  0  0  0  0  0  0  0  0  0  0
   -9.3036   -1.9145    4.1514 H   0  0  0  0  0  0  0  0  0  0  0  0
   -8.3086   -0.4766    2.5140 H   0  0  0  0  0  0  0  0  0  0  0  0
  1  2  1  0
  2  3  1  0
  3  4  2  0
  4  5  1  0
  5  6  2  0
  6  7  1  0
  7  8  1  0
  8  9  2  0
  9 10  1  0
 10 11  2  0
  7 12  1  0
 12 13  1  0
 13 14  2  0
 14 15  1  0
 15 16  1  0
 16 17  2  0
 17 18  1  0
 18 19  1  0
 18 20  2  3
 15 21  1  0
 21 22  1  0
 22 23  1  0
 23 24  1  0
 24 25  1  0
 25 26  1  0
 26 27  1  0
 26 28  2  0
 26 29  1  0
 29 30  1  0
 30 31  1  0
 30 32  2  0
 30 33  1  0
 33 34  1  0
 34 35  1  0
 35 36  1  0
 36 37  1  0
 37 38  1  0
 38 39  1  0
 39 40  2  0
 40 41  1  0
 41 42  2  0
 42 43  1  0
 42 44  1  0
 44 45  2  0
 45 46  1  0
 46 47  2  0
 37 48  1  0
 48 49  1  0
 48 50  1  0
 50 51  1  0
 23 52  1  0
 52 53  1  0
 52 54  1  0
 54 55  1  0
  1 56  1  0
 56 57  2  0
 56 58  1  0
 58 59  1  0
 59 60  1  0
 60 61  1  0
 61 62  1  0
 62 63  1  0
 63 64  1  0
  1 65  1  0
 65 66  2  0
 66 67  1  0
 67 68  2  0
 68 69  1  0
 69 70  2  0
 10  2  1  0
 17 12  1  0
 54 21  1  0
 64 58  1  0
 70 65  1  0
  9  5  1  0
 50 35  1  0
 47 38  1  0
 47 41  1  0
  1 71  1  6
  3 72  1  0
  8 73  1  0
 12 74  1  6
 13 75  1  0
 14 76  1  0
 16 77  1  0
 20 78  1  0
 21 79  1  1
 23 80  1  1
 24 81  1  0
 24 82  1  0
 31 83  1  0
 34 84  1  0
 34 85  1  0
 35 86  1  1
 37 87  1  1
 39 88  1  0
 43 89  1  0
 43 90  1  0
 45 91  1  0
 48 92  1  6
 50 93  1  6
 52 94  1  1
 53 95  1  0
 54 96  1  6
 55 97  1  0
 59 98  1  0
 59 99  1  0
 60100  1  0
 60101  1  0
 61102  1  0
 61103  1  0
 62104  1  0
 62105  1  0
 63106  1  0
 63107  1  0
 64108  1  0
 64109  1  0
 66110  1  0
 67111  1  0
 68112  1  0
 69113  1  0
 70114  1  0
M  CHG  4  19  -1  27  -1  49  -1  51  -1
M  END
$$$$
