@<TRIPOS>MOLECULE
*****
 114 122 0 0 0
SMALL
GASTEIGER

@<TRIPOS>ATOM
      1 C          -8.9794   -0.0732   -0.1529 C.3     1  UNL1        0.1375
      2 N          -7.8458   -0.6917   -0.8307 N.ar    1  UNL1       -0.3091
      3 C          -8.0320   -1.5627   -1.8678 C.ar    1  UNL1        0.1001
      4 N          -7.0545   -2.1865   -2.5498 N.ar    1  UNL1       -0.2160
      5 C          -5.7688   -1.9699   -2.2237 C.ar    1  UNL1        0.1852
      6 N          -4.6158   -2.4270   -2.6975 N.ar    1  UNL1       -0.1501
      7 N          -3.5928   -1.8930   -2.0103 N.ar    1  UNL1       -0.2574
      8 C          -4.1447   -1.0680   -1.0696 C.ar    1  UNL1        0.0384
      9 C          -5.5158   -1.0968   -1.1802 C.ar    1  UNL1        0.0694
     10 C          -6.5680   -0.4883   -0.5208 C.ar    1  UNL1        0.1012
     11 S          -6.1958    0.5180    0.6731 S.2     1  UNL1       -0.0317
     12 C          -2.1315   -1.9857   -2.0330 C.3     1  UNL1        0.0992
     13 C          -1.5596   -0.6304   -1.8522 C.2     1  UNL1       -0.0413
     14 C          -0.7416   -0.2910   -0.8909 C.2     1  UNL1       -0.0029
     15 N          -0.3304   -1.2640    0.0934 N.pl3   1  UNL1       -0.2846
     16 C          -0.8266   -2.5949    0.0011 C.2     1  UNL1        0.0051
     17 C          -1.6532   -2.9189   -0.9784 C.2     1  UNL1        0.0048
     18 C          -2.1563   -4.2601   -1.0722 C.2     1  UNL1       -0.0145
     19 O          -3.0246   -4.7325   -2.0427 O.co2   1  UNL1       -0.8603
     20 N          -1.9202   -5.2712   -0.3084 N.2     1  UNL1       -0.3148
     21 C           0.5500   -0.9149    1.1540 C.3     1  UNL1        0.1574
     22 O           1.8507   -0.5873    0.7606 O.3     1  UNL1       -0.3476
     23 C           2.5026   -0.4093    1.9557 C.3     1  UNL1        0.1131
     24 C           3.9924   -0.6491    1.9122 C.3     1  UNL1        0.0836
     25 O           4.2556   -1.9426    1.5063 O.3     1  UNL1       -0.3245
     26 P           5.7552   -2.5117    1.9712 P.3     1  UNL1        0.2222
     27 O           6.5247   -1.4555    3.0561 O.co2   1  UNL1       -0.4370
     28 O           5.5193   -3.8000    2.7772 O.2     1  UNL1       -0.5170
     29 O           6.7778   -2.9096    0.7258 O.3     1  UNL1       -0.2292
     30 P           6.4834   -2.1556   -0.7307 P.3     1  UNL1        0.4804
     31 O           4.9351   -1.5470   -0.8988 O.3     1  UNL1       -0.3023
     32 O           6.6529   -3.2084   -1.8266 O.2     1  UNL1       -0.2270
     33 O           7.6376   -0.9555   -1.0602 O.3     1  UNL1       -0.2839
     34 C           7.4618    0.1454   -0.2296 C.3     1  UNL1        0.0843
     35 C           8.5713    1.1588   -0.4307 C.3     1  UNL1        0.0719
     36 O           9.8248    0.5740   -0.1382 O.3     1  UNL1       -0.3532
     37 C          10.6833    1.5432   -0.6222 C.3     1  UNL1        0.1252
     38 N          12.0669    1.0884   -0.6067 N.ar    1  UNL1       -0.2891
     39 C          12.5463   -0.0789   -1.0642 C.ar    1  UNL1        0.1003
     40 N          13.8801   -0.1919   -0.8991 N.ar    1  UNL1       -0.2306
     41 C          14.2984    0.9439   -0.3101 C.ar    1  UNL1        0.1473
     42 C          15.5485    1.4144    0.1099 C.ar    1  UNL1        0.1472
     43 N          16.7112    0.5848   -0.0820 N.pl3   1  UNL1       -0.3413
     44 N          15.6687    2.6423    0.6933 N.ar    1  UNL1       -0.2188
     45 C          14.5350    3.3870    0.8504 C.ar    1  UNL1        0.1205
     46 N          13.3187    2.9428    0.4482 N.ar    1  UNL1       -0.2159
     47 C          13.1646    1.7348   -0.1316 C.ar    1  UNL1        0.1673
     48 C          10.1692    1.8297   -1.9960 C.3     1  UNL1       -0.0899
     49 O          10.4618    3.1568   -2.2901 O.co2   1  UNL1       -0.8511
     50 C           8.6631    1.6251   -1.8495 C.3     1  UNL1       -0.1059
     51 O           8.0510    2.8839   -2.0066 O.co2   1  UNL1       -0.8522
     52 C           1.9380   -1.3971    2.9569 C.3     1  UNL1        0.1133
     53 O           1.2567   -0.6704    3.9447 O.3     1  UNL1       -0.3864
     54 C           0.8565   -2.0768    2.1058 C.3     1  UNL1        0.1265
     55 O          -0.2475   -2.4207    2.8782 O.3     1  UNL1       -0.3849
     56 C          -8.7919    1.3279    0.1974 C.2     1  UNL1        0.2431
     57 O          -9.1541    1.3812    1.4244 O.2     1  UNL1       -0.2729
     58 N          -8.3353    2.4573   -0.5275 N.am    1  UNL1       -0.2995
     59 C          -7.9217    2.4804   -1.9341 C.3     1  UNL1        0.0147
     60 C          -9.0538    3.0098   -2.8031 C.3     1  UNL1       -0.0371
     61 C          -9.5220    4.3008   -2.1647 C.3     1  UNL1       -0.0516
     62 C         -10.4181    3.9899   -1.0019 C.3     1  UNL1       -0.0516
     63 C          -9.7412    4.1850    0.3386 C.3     1  UNL1       -0.0371
     64 C          -8.3217    3.6635    0.3224 C.3     1  UNL1        0.0147
     65 C          -9.5634   -0.9325    0.8640 C.ar    1  UNL1       -0.0158
     66 C         -10.6635   -1.7656    0.5994 C.ar    1  UNL1       -0.0561
     67 C         -11.2771   -2.6122    1.4969 C.ar    1  UNL1       -0.0614
     68 C         -10.7744   -2.6550    2.7780 C.ar    1  UNL1       -0.0617
     69 C          -9.6794   -1.8617    3.1393 C.ar    1  UNL1       -0.0614
     70 C          -9.1308   -1.0361    2.1488 C.ar    1  UNL1       -0.0561
     71 H          -9.7664   -0.0255   -0.9677 H       1  UNL1        0.0676
     72 H          -9.0376   -1.8107   -2.2154 H       1  UNL1        0.1030
     73 H          -3.6722   -0.4508   -0.3164 H       1  UNL1        0.0834
     74 H          -1.8048   -2.3712   -3.0156 H       1  UNL1        0.0640
     75 H          -1.9087    0.0355   -2.6172 H       1  UNL1        0.0609
     76 H          -0.3766    0.7310   -0.8421 H       1  UNL1        0.0782
     77 H          -0.5097   -3.3280    0.7478 H       1  UNL1        0.0788
     78 H          -1.2929   -5.1865    0.5039 H       1  UNL1        0.1853
     79 H           0.1505   -0.1025    1.7963 H       1  UNL1        0.0840
     80 H           2.3022    0.6539    2.2694 H       1  UNL1        0.0647
     81 H           4.5322    0.0704    1.2686 H       1  UNL1        0.0591
     82 H           4.3414   -0.4874    2.9748 H       1  UNL1        0.0591
     83 H           4.8073   -1.3633   -1.8742 H       1  UNL1        0.2220
     84 H           6.5215    0.6539   -0.5873 H       1  UNL1        0.0591
     85 H           7.4247   -0.1350    0.8364 H       1  UNL1        0.0591
     86 H           8.4625    2.0238    0.2350 H       1  UNL1        0.0609
     87 H          10.5902    2.4454    0.0208 H       1  UNL1        0.0827
     88 H          11.9443   -0.8543   -1.5178 H       1  UNL1        0.1030
     89 H          16.8134   -0.1021    0.7192 H       1  UNL1        0.1438
     90 H          17.2130    0.8413   -0.9830 H       1  UNL1        0.1438
     91 H          14.6823    4.3676    1.3248 H       1  UNL1        0.1048
     92 H          10.5392    1.1155   -2.7468 H       1  UNL1        0.0146
     93 H           8.2829    0.8928   -2.5883 H       1  UNL1        0.0128
     94 H           2.6678   -2.1013    3.3605 H       1  UNL1        0.0647
     95 H           0.4983   -1.1883    4.2955 H       1  UNL1        0.2100
     96 H           1.3282   -2.9239    1.6011 H       1  UNL1        0.0663
     97 H          -0.9320   -1.6857    2.7839 H       1  UNL1        0.2101
     98 H          -7.5136    1.5429   -2.3009 H       1  UNL1        0.0464
     99 H          -7.0902    3.2053   -2.0512 H       1  UNL1        0.0464
    100 H          -9.9120    2.3108   -2.8283 H       1  UNL1        0.0280
    101 H          -8.6534    3.2352   -3.7964 H       1  UNL1        0.0280
    102 H          -8.6127    4.8184   -1.7580 H       1  UNL1        0.0266
    103 H          -9.9854    4.9846   -2.9009 H       1  UNL1        0.0266
    104 H         -10.7837    2.9435   -1.1176 H       1  UNL1        0.0266
    105 H         -11.3301    4.6206   -1.0036 H       1  UNL1        0.0266
    106 H         -10.3081    3.5306    1.0640 H       1  UNL1        0.0280
    107 H          -9.8441    5.2119    0.7100 H       1  UNL1        0.0280
    108 H          -7.5974    4.3859   -0.0451 H       1  UNL1        0.0464
    109 H          -8.0010    3.3209    1.3266 H       1  UNL1        0.0464
    110 H         -11.0796   -1.7443   -0.4195 H       1  UNL1        0.0621
    111 H         -12.1178   -3.2061    1.1763 H       1  UNL1        0.0618
    112 H         -11.2194   -3.3010    3.5145 H       1  UNL1        0.0618
    113 H          -9.3036   -1.9145    4.1514 H       1  UNL1        0.0618
    114 H          -8.3086   -0.4766    2.5140 H       1  UNL1        0.0621
@<TRIPOS>UNITY_ATOM_ATTR
19 1
charge -1
27 1
charge -1
49 1
charge -1
51 1
charge -1
@<TRIPOS>BOND
     1     1     2    1
     2     2     3   ar
     3     3     4   ar
     4     4     5   ar
     5     5     6   ar
     6     6     7   ar
     7     7     8   ar
     8     8     9   ar
     9     9    10   ar
    10    10    11    2
    11     7    12    1
    12    12    13    1
    13    13    14    2
    14    14    15    1
    15    15    16    1
    16    16    17    2
    17    17    18    1
    18    18    19    1
    19    18    20    2
    20    15    21    1
    21    21    22    1
    22    22    23    1
    23    23    24    1
    24    24    25    1
    25    25    26    1
    26    26    27    1
    27    26    28    2
    28    26    29    1
    29    29    30    1
    30    30    31    1
    31    30    32    2
    32    30    33    1
    33    33    34    1
    34    34    35    1
    35    35    36    1
    36    36    37    1
    37    37    38    1
    38    38    39   ar
    39    39    40   ar
    40    40    41   ar
    41    41    42   ar
    42    42    43    1
    43    42    44   ar
    44    44    45   ar
    45    45    46   ar
    46    46    47   ar
    47    37    48    1
    48    48    49    1
    49    48    50    1
    50    50    51    1
    51    23    52    1
    52    52    53    1
    53    52    54    1
    54    54    55    1
    55     1    56    1
    56    56    57    2
    57    56    58   am
    58    58    59    1
    59    59    60    1
    60    60    61    1
    61    61    62    1
    62    62    63    1
    63    63    64    1
    64     1    65    1
    65    65    66   ar
    66    66    67   ar
    67    67    68   ar
    68    68    69   ar
    69    69    70   ar
    70    10     2   ar
    71    17    12    1
    72    54    21    1
    73    64    58    1
    74    70    65   ar
    75     9     5   ar
    76    50    35    1
    77    47    38   ar
    78    47    41   ar
    79     1    71    1
    80     3    72    1
    81     8    73    1
    82    12    74    1
    83    13    75    1
    84    14    76    1
    85    16    77    1
    86    20    78    1
    87    21    79    1
    88    23    80    1
    89    24    81    1
    90    24    82    1
    91    31    83    1
    92    34    84    1
    93    34    85    1
    94    35    86    1
    95    37    87    1
    96    39    88    1
    97    43    89    1
    98    43    90    1
    99    45    91    1
   100    48    92    1
   101    50    93    1
   102    52    94    1
   103    53    95    1
   104    54    96    1
   105    55    97    1
   106    59    98    1
   107    59    99    1
   108    60   100    1
   109    60   101    1
   110    61   102    1
   111    61   103    1
   112    62   104    1
   113    62   105    1
   114    63   106    1
   115    63   107    1
   116    64   108    1
   117    64   109    1
   118    66   110    1
   119    67   111    1
   120    68   112    1
   121    69   113    1
   122    70   114    1
