@<TRIPOS>MOLECULE
*****
 60 63 0 0 0
SMALL
GASTEIGER

@<TRIPOS>ATOM
      1 C          -0.4410   -4.6313    0.5567 C.1     1  UNL1       -0.1179
      2 C          -0.2079   -3.5138    0.2087 C.1     1  UNL1       -0.0900
      3 C           0.0673   -2.1089   -0.2479 C.3     1  UNL1        0.0621
      4 N          -1.0738   -1.2872    0.2021 N.3     1  UNL1       -0.2704
      5 C          -2.1743   -1.8312   -0.6150 C.3     1  UNL1        0.0433
      6 C          -3.4948   -1.2899   -0.3311 C.ar    1  UNL1        0.0561
      7 C          -4.3306   -1.8214    0.6501 C.ar    1  UNL1       -0.0385
      8 C          -5.5695   -1.2696    0.8337 C.ar    1  UNL1       -0.0507
      9 C          -6.0009   -0.2085    0.0728 C.ar    1  UNL1        0.0040
     10 C          -7.2497    0.3265    0.2780 C.ar    1  UNL1       -0.0523
     11 C          -7.6881    1.3861   -0.4749 C.ar    1  UNL1       -0.0576
     12 C          -6.8667    1.9338   -1.4615 C.ar    1  UNL1       -0.0180
     13 C          -5.6225    1.3778   -1.6453 C.ar    1  UNL1        0.1427
     14 O          -4.7955    1.9056   -2.6179 O.3     1  UNL1       -0.5046
     15 C          -5.1617    0.3126   -0.9012 C.ar    1  UNL1        0.1126
     16 N          -3.9615   -0.2556   -1.0472 N.ar    1  UNL1       -0.2466
     17 C          -0.8773    0.0552   -0.1185 C.3     1  UNL1        0.1020
     18 C          -1.8942    0.9014    0.5652 C.1     1  UNL1        0.0818
     19 N          -2.6829    1.5649    1.1193 N.1     1  UNL1       -0.1949
     20 C           0.4523    0.6957   -0.0693 C.3     1  UNL1       -0.0099
     21 C           1.2030    0.6757    1.1976 C.3     1  UNL1       -0.0349
     22 C           2.6768    0.4702    0.9482 C.3     1  UNL1       -0.0005
     23 N           3.2417    1.1054   -0.1722 N.3     1  UNL1       -0.2981
     24 C           4.4331    0.5619   -0.7257 C.3     1  UNL1        0.0240
     25 C           5.5250    0.5596    0.2649 C.ar    1  UNL1       -0.0334
     26 C           6.3444    1.6348    0.4798 C.ar    1  UNL1       -0.0573
     27 C           7.3554    1.5578    1.4033 C.ar    1  UNL1       -0.0615
     28 C           7.6047    0.4410    2.1456 C.ar    1  UNL1       -0.0617
     29 C           6.7693   -0.6609    1.9305 C.ar    1  UNL1       -0.0615
     30 C           5.7525   -0.5878    1.0031 C.ar    1  UNL1       -0.0573
     31 C           2.3686    1.6142   -1.1793 C.3     1  UNL1       -0.0005
     32 C           1.2524    0.5357   -1.3231 C.3     1  UNL1       -0.0349
     33 H          -0.6594   -5.6386    0.8876 H       1  UNL1        0.1228
     34 H           0.1502   -2.1577   -1.3412 H       1  UNL1        0.0563
     35 H           1.0081   -1.7854    0.1836 H       1  UNL1        0.0563
     36 H          -2.2126   -2.9385   -0.5026 H       1  UNL1        0.0492
     37 H          -1.9413   -1.6542   -1.6998 H       1  UNL1        0.0492
     38 H          -3.9571   -2.6442    1.2191 H       1  UNL1        0.0636
     39 H          -6.2458   -1.6681    1.5930 H       1  UNL1        0.0625
     40 H          -7.8816   -0.1075    1.0460 H       1  UNL1        0.0624
     41 H          -8.6638    1.8133   -0.3240 H       1  UNL1        0.0619
     42 H          -7.2397    2.7821   -2.0518 H       1  UNL1        0.0655
     43 H          -5.1941    2.2849   -3.4655 H       1  UNL1        0.2922
     44 H          -1.2404    0.1506   -1.2280 H       1  UNL1        0.0623
     45 H           0.1603    1.8557   -0.1610 H       1  UNL1        0.0327
     46 H           0.9030   -0.1515    1.8905 H       1  UNL1        0.0281
     47 H           1.1219    1.6582    1.7294 H       1  UNL1        0.0281
     48 H           3.2582    0.8513    1.8548 H       1  UNL1        0.0427
     49 H           2.9130   -0.6282    0.8845 H       1  UNL1        0.0427
     50 H           4.3051   -0.4168   -1.2218 H       1  UNL1        0.0476
     51 H           4.7361    1.2636   -1.5623 H       1  UNL1        0.0476
     52 H           6.1874    2.5352   -0.0778 H       1  UNL1        0.0621
     53 H           8.0135    2.4294    1.5755 H       1  UNL1        0.0618
     54 H           8.3829    0.3181    2.8864 H       1  UNL1        0.0618
     55 H           6.9083   -1.5934    2.4867 H       1  UNL1        0.0618
     56 H           5.0979   -1.4536    0.8224 H       1  UNL1        0.0621
     57 H           2.9104    1.7346   -2.1199 H       1  UNL1        0.0427
     58 H           1.8851    2.5247   -0.8090 H       1  UNL1        0.0427
     59 H           1.7252   -0.4141   -1.4639 H       1  UNL1        0.0281
     60 H           0.6159    0.8998   -2.1617 H       1  UNL1        0.0281
@<TRIPOS>BOND
     1     1     2    3
     2     2     3    1
     3     3     4    1
     4     4     5    1
     5     5     6    1
     6     6     7   ar
     7     7     8   ar
     8     8     9   ar
     9     9    10   ar
    10    10    11   ar
    11    11    12   ar
    12    12    13   ar
    13    13    14    1
    14    13    15   ar
    15    15    16   ar
    16     4    17    1
    17    17    18    1
    18    18    19    3
    19    17    20    1
    20    20    21    1
    21    21    22    1
    22    22    23    1
    23    23    24    1
    24    24    25    1
    25    25    26   ar
    26    26    27   ar
    27    27    28   ar
    28    28    29   ar
    29    29    30   ar
    30    23    31    1
    31    31    32    1
    32    16     6   ar
    33    32    20    1
    34    15     9   ar
    35    30    25   ar
    36     1    33    1
    37     3    34    1
    38     3    35    1
    39     5    36    1
    40     5    37    1
    41     7    38    1
    42     8    39    1
    43    10    40    1
    44    11    41    1
    45    12    42    1
    46    14    43    1
    47    17    44    1
    48    20    45    1
    49    21    46    1
    50    21    47    1
    51    22    48    1
    52    22    49    1
    53    24    50    1
    54    24    51    1
    55    26    52    1
    56    27    53    1
    57    28    54    1
    58    29    55    1
    59    30    56    1
    60    31    57    1
    61    31    58    1
    62    32    59    1
    63    32    60    1
