
     RDKit          3D

 60 63  0  0  0  0  0  0  0  0999 V2000
   -0.4410   -4.6313    0.5567 C   0  0  0  0  0  0  0  0  0  0  0  0
   -0.2079   -3.5138    0.2087 C   0  0  0  0  0  0  0  0  0  0  0  0
    0.0673   -2.1089   -0.2479 C   0  0  0  0  0  0  0  0  0  0  0  0
   -1.0738   -1.2872    0.2021 N   0  0  0  0  0  0  0  0  0  0  0  0
   -2.1743   -1.8312   -0.6150 C   0  0  0  0  0  0  0  0  0  0  0  0
   -3.4948   -1.2899   -0.3311 C   0  0  0  0  0  0  0  0  0  0  0  0
   -4.3306   -1.8214    0.6501 C   0  0  0  0  0  0  0  0  0  0  0  0
   -5.5695   -1.2696    0.8337 C   0  0  0  0  0  0  0  0  0  0  0  0
   -6.0009   -0.2085    0.0728 C   0  0  0  0  0  0  0  0  0  0  0  0
   -7.2497    0.3265    0.2780 C   0  0  0  0  0  0  0  0  0  0  0  0
   -7.6881    1.3861   -0.4749 C   0  0  0  0  0  0  0  0  0  0  0  0
   -6.8667    1.9338   -1.4615 C   0  0  0  0  0  0  0  0  0  0  0  0
   -5.6225    1.3778   -1.6453 C   0  0  0  0  0  0  0  0  0  0  0  0
   -4.7955    1.9056   -2.6179 O   0  0  0  0  0  0  0  0  0  0  0  0
   -5.1617    0.3126   -0.9012 C   0  0  0  0  0  0  0  0  0  0  0  0
   -3.9615   -0.2556   -1.0472 N   0  0  0  0  0  0  0  0  0  0  0  0
   -0.8773    0.0552   -0.1185 C   0  0  0  0  0  0  0  0  0  0  0  0
   -1.8942    0.9014    0.5652 C   0  0  0  0  0  0  0  0  0  0  0  0
   -2.6829    1.5649    1.1193 N   0  0  0  0  0  0  0  0  0  0  0  0
    0.4523    0.6957   -0.0693 C   0  0  0  0  0  0  0  0  0  0  0  0
    1.2030    0.6757    1.1976 C   0  0  0  0  0  0  0  0  0  0  0  0
    2.6768    0.4702    0.9482 C   0  0  0  0  0  0  0  0  0  0  0  0
    3.2417    1.1054   -0.1722 N   0  0  0  0  0  0  0  0  0  0  0  0
    4.4331    0.5619   -0.7257 C   0  0  0  0  0  0  0  0  0  0  0  0
    5.5250    0.5596    0.2649 C   0  0  0  0  0  0  0  0  0  0  0  0
    6.3444    1.6348    0.4798 C   0  0  0  0  0  0  0  0  0  0  0  0
    7.3554    1.5578    1.4033 C   0  0  0  0  0  0  0  0  0  0  0  0
    7.6047    0.4410    2.1456 C   0  0  0  0  0  0  0  0  0  0  0  0
    6.7693   -0.6609    1.9305 C   0  0  0  0  0  0  0  0  0  0  0  0
    5.7525   -0.5878    1.0031 C   0  0  0  0  0  0  0  0  0  0  0  0
    2.3686    1.6142   -1.1793 C   0  0  0  0  0  0  0  0  0  0  0  0
    1.2524    0.5357   -1.3231 C   0  0  0  0  0  0  0  0  0  0  0  0
   -0.6594   -5.6386    0.8876 H   0  0  0  0  0  0  0  0  0  0  0  0
    0.1502   -2.1577   -1.3412 H   0  0  0  0  0  0  0  0  0  0  0  0
    1.0081   -1.7854    0.1836 H   0  0  0  0  0  0  0  0  0  0  0  0
   -2.2126   -2.9385   -0.5026 H   0  0  0  0  0  0  0  0  0  0  0  0
   -1.9413   -1.6542   -1.6998 H   0  0  0  0  0  0  0  0  0  0  0  0
   -3.9571   -2.6442    1.2191 H   0  0  0  0  0  0  0  0  0  0  0  0
   -6.2458   -1.6681    1.5930 H   0  0  0  0  0  0  0  0  0  0  0  0
   -7.8816   -0.1075    1.0460 H   0  0  0  0  0  0  0  0  0  0  0  0
   -8.6638    1.8133   -0.3240 H   0  0  0  0  0  0  0  0  0  0  0  0
   -7.2397    2.7821   -2.0518 H   0  0  0  0  0  0  0  0  0  0  0  0
   -5.1941    2.2849   -3.4655 H   0  0  0  0  0  0  0  0  0  0  0  0
   -1.2404    0.1506   -1.2280 H   0  0  0  0  0  0  0  0  0  0  0  0
    0.1603    1.8557   -0.1610 H   0  0  0  0  0  0  0  0  0  0  0  0
    0.9030   -0.1515    1.8905 H   0  0  0  0  0  0  0  0  0  0  0  0
    1.1219    1.6582    1.7294 H   0  0  0  0  0  0  0  0  0  0  0  0
    3.2582    0.8513    1.8548 H   0  0  0  0  0  0  0  0  0  0  0  0
    2.9130   -0.6282    0.8845 H   0  0  0  0  0  0  0  0  0  0  0  0
    4.3051   -0.4168   -1.2218 H   0  0  0  0  0  0  0  0  0  0  0  0
    4.7361    1.2636   -1.5623 H   0  0  0  0  0  0  0  0  0  0  0  0
    6.1874    2.5352   -0.0778 H   0  0  0  0  0  0  0  0  0  0  0  0
    8.0135    2.4294    1.5755 H   0  0  0  0  0  0  0  0  0  0  0  0
    8.3829    0.3181    2.8864 H   0  0  0  0  0  0  0  0  0  0  0  0
    6.9083   -1.5934    2.4867 H   0  0  0  0  0  0  0  0  0  0  0  0
    5.0979   -1.4536    0.8224 H   0  0  0  0  0  0  0  0  0  0  0  0
    2.9104    1.7346   -2.1199 H   0  0  0  0  0  0  0  0  0  0  0  0
    1.8851    2.5247   -0.8090 H   0  0  0  0  0  0  0  0  0  0  0  0
    1.7252   -0.4141   -1.4639 H   0  0  0  0  0  0  0  0  0  0  0  0
    0.6159    0.8998   -2.1617 H   0  0  0  0  0  0  0  0  0  0  0  0
  1  2  3  0
  2  3  1  0
  3  4  1  0
  4  5  1  0
  5  6  1  0
  6  7  2  0
  7  8  1  0
  8  9  2  0
  9 10  1  0
 10 11  2  0
 11 12  1  0
 12 13  2  0
 13 14  1  0
 13 15  1  0
 15 16  2  0
  4 17  1  0
 17 18  1  0
 18 19  3  0
 17 20  1  0
 20 21  1  0
 21 22  1  0
 22 23  1  0
 23 24  1  0
 24 25  1  0
 25 26  2  0
 26 27  1  0
 27 28  2  0
 28 29  1  0
 29 30  2  0
 23 31  1  0
 31 32  1  0
 16  6  1  0
 32 20  1  0
 15  9  1  0
 30 25  1  0
  1 33  1  0
  3 34  1  0
  3 35  1  0
  5 36  1  0
  5 37  1  0
  7 38  1  0
  8 39  1  0
 10 40  1  0
 11 41  1  0
 12 42  1  0
 14 43  1  0
 17 44  1  0
 20 45  1  0
 21 46  1  0
 21 47  1  0
 22 48  1  0
 22 49  1  0
 24 50  1  0
 24 51  1  0
 26 52  1  0
 27 53  1  0
 28 54  1  0
 29 55  1  0
 30 56  1  0
 31 57  1  0
 31 58  1  0
 32 59  1  0
 32 60  1  0
M  END
$$$$
