
     RDKit          3D

 38 40  0  0  0  0  0  0  0  0999 V2000
    0.8650    4.2184   -0.6887 O   0  0  0  0  0  0  0  0  0  0  0  0
    0.9535    2.8379   -0.6251 C   0  0  0  0  0  0  0  0  0  0  0  0
    2.1815    2.4822   -0.6093 O   0  0  0  0  0  0  0  0  0  0  0  0
   -0.1367    1.8550   -0.5793 C   0  0  0  0  0  0  0  0  0  0  0  0
   -1.2670    2.4531   -0.6054 O   0  0  0  0  0  0  0  0  0  0  0  0
    0.2370    0.4691   -0.5165 N   0  0  0  0  0  0  0  0  0  0  0  0
    1.6013    0.0854   -0.5090 C   0  0  0  0  0  0  0  0  0  0  0  0
    1.9449    0.0434   -1.8763 C   0  0  0  0  0  0  0  0  0  0  0  0
    3.2274   -0.3051   -2.3232 C   0  0  0  0  0  0  0  0  0  0  0  0
    4.2198   -0.6259   -1.4234 C   0  0  0  0  0  0  0  0  0  0  0  0
    3.9045   -0.5905   -0.0940 C   0  0  0  0  0  0  0  0  0  0  0  0
    2.6476   -0.2471    0.2935 C   0  0  0  0  0  0  0  0  0  0  0  0
    2.2561   -0.1977    1.6835 C   0  0  0  0  0  0  0  0  0  0  0  0
    2.6410   -0.3734    2.9929 O   0  0  0  0  0  0  0  0  0  0  0  0
    1.2874    0.0527    2.4142 O   0  0  0  0  0  0  0  0  0  0  0  0
   -0.9657   -0.2864   -0.5328 C   0  0  0  0  0  0  0  0  0  0  0  0
   -1.1538   -1.0399   -1.7002 C   0  0  0  0  0  0  0  0  0  0  0  0
   -2.2834   -1.8291   -1.8798 C   0  0  0  0  0  0  0  0  0  0  0  0
   -3.2712   -1.9038   -0.9123 C   0  0  0  0  0  0  0  0  0  0  0  0
   -3.1087   -1.1702    0.2431 C   0  0  0  0  0  0  0  0  0  0  0  0
   -1.9799   -0.4014    0.3852 C   0  0  0  0  0  0  0  0  0  0  0  0
   -1.8205    0.3465    1.5116 C   0  0  0  0  0  0  0  0  0  0  0  0
   -2.7403    0.3711    2.5315 C   0  0  0  0  0  0  0  0  0  0  0  0
   -3.8993   -0.4014    2.4217 C   0  0  0  0  0  0  0  0  0  0  0  0
   -4.0443   -1.1605    1.2552 C   0  0  0  0  0  0  0  0  0  0  0  0
    1.5505    4.8482   -0.3139 H   0  0  0  0  0  0  0  0  0  0  0  0
    1.3727    0.2501   -2.7755 H   0  0  0  0  0  0  0  0  0  0  0  0
    3.5895   -0.3668   -3.3450 H   0  0  0  0  0  0  0  0  0  0  0  0
    5.2317   -0.9058   -1.6558 H   0  0  0  0  0  0  0  0  0  0  0  0
    4.5713   -0.8147    0.7234 H   0  0  0  0  0  0  0  0  0  0  0  0
    2.9273   -1.2782    3.4023 H   0  0  0  0  0  0  0  0  0  0  0  0
   -0.5294   -1.1373   -2.5750 H   0  0  0  0  0  0  0  0  0  0  0  0
   -2.5186   -2.4429   -2.7382 H   0  0  0  0  0  0  0  0  0  0  0  0
   -4.1763   -2.4911   -0.9716 H   0  0  0  0  0  0  0  0  0  0  0  0
   -0.9912    0.9787    1.6692 H   0  0  0  0  0  0  0  0  0  0  0  0
   -2.6915    0.9355    3.4593 H   0  0  0  0  0  0  0  0  0  0  0  0
   -4.7019   -0.4671    3.1623 H   0  0  0  0  0  0  0  0  0  0  0  0
   -4.9305   -1.7907    1.1014 H   0  0  0  0  0  0  0  0  0  0  0  0
  1  2  1  0
  2  3  2  0
  2  4  1  0
  4  5  2  0
  4  6  1  0
  6  7  1  0
  7  8  2  0
  8  9  1  0
  9 10  2  0
 10 11  1  0
 11 12  2  0
 12 13  1  0
 13 14  1  0
 13 15  2  0
  6 16  1  0
 16 17  2  0
 17 18  1  0
 18 19  2  0
 19 20  1  0
 20 21  2  0
 21 22  1  0
 22 23  2  0
 23 24  1  0
 24 25  2  0
 12  7  1  0
 21 16  1  0
 25 20  1  0
  1 26  1  0
  8 27  1  0
  9 28  1  0
 10 29  1  0
 11 30  1  0
 14 31  1  0
 17 32  1  0
 18 33  1  0
 19 34  1  0
 22 35  1  0
 23 36  1  0
 24 37  1  0
 25 38  1  0
M  END
$$$$
