
     RDKit          3D

 67 70  0  0  0  0  0  0  0  0999 V2000
    5.5250   -1.9321   -1.6321 O   0  0  0  0  0  0  0  0  0  0  0  0
    4.5991   -2.0387   -0.6265 C   0  0  0  0  0  0  0  0  0  0  0  0
    4.5173   -0.8123    0.2758 C   0  0  1  0  0  0  0  0  0  0  0  0
    5.7398   -0.6359    1.1278 C   0  0  1  0  0  0  0  0  0  0  0  0
    5.9798   -1.8849    1.7448 O   0  0  0  0  0  0  0  0  0  0  0  0
    6.9346   -0.1659    0.3654 C   0  0  2  0  0  0  0  0  0  0  0  0
    7.9509    0.2041    1.2689 O   0  0  0  0  0  0  0  0  0  0  0  0
    6.5238    1.0690   -0.3993 C   0  0  1  0  0  0  0  0  0  0  0  0
    7.5677    1.4407   -1.2571 O   0  0  0  0  0  0  0  0  0  0  0  0
    5.3173    0.8601   -1.2319 C   0  0  0  0  0  0  0  0  0  0  0  0
    4.1502    0.3550   -0.4975 N   0  0  0  0  0  0  0  0  0  0  0  0
    3.6218    1.4188    0.3346 C   0  0  0  0  0  0  0  0  0  0  0  0
    2.2822    1.0338    0.8774 C   0  0  0  0  0  0  0  0  0  0  0  0
    1.3803    0.7981   -0.3208 C   0  0  0  0  0  0  0  0  0  0  0  0
   -0.0066    0.4302    0.1752 C   0  0  0  0  0  0  0  0  0  0  0  0
   -0.8365    0.2266   -1.0571 C   0  0  0  0  0  0  0  0  0  0  0  0
   -2.1397   -0.0943   -0.8925 O   0  0  0  0  0  0  0  0  0  0  0  0
   -2.9044    0.8102   -0.2041 C   0  0  0  0  0  0  0  0  0  0  0  0
   -4.3344    0.3111   -0.1622 C   0  0  0  0  0  0  0  0  0  0  0  0
   -4.8916    0.1607   -1.5748 C   0  0  0  0  0  0  0  0  0  0  0  0
   -6.2718   -0.4022   -1.4820 C   0  0  0  0  0  0  0  0  0  0  0  0
   -7.1194    0.5440   -0.6656 C   0  0  0  0  0  0  0  0  0  0  0  0
   -6.5880    0.6266    0.7395 C   0  0  0  0  0  0  0  0  0  0  0  0
   -6.6209   -0.7543    1.3444 C   0  0  0  0  0  0  0  0  0  0  0  0
   -5.7057   -1.6612    0.5514 C   0  0  0  0  0  0  0  0  0  0  0  0
   -6.1783   -1.7877   -0.8796 C   0  0  0  0  0  0  0  0  0  0  0  0
   -4.3291   -1.0314    0.5436 C   0  0  0  0  0  0  0  0  0  0  0  0
   -5.2061    1.2292    0.6859 C   0  0  0  0  0  0  0  0  0  0  0  0
    6.2114   -2.6349   -1.5014 H   0  0  0  0  0  0  0  0  0  0  0  0
    4.7654   -2.9520    0.0086 H   0  0  0  0  0  0  0  0  0  0  0  0
    3.5758   -2.1734   -1.0616 H   0  0  0  0  0  0  0  0  0  0  0  0
    3.6837   -1.0359    0.9665 H   0  0  0  0  0  0  0  0  0  0  0  0
    5.5107    0.0937    1.9144 H   0  0  0  0  0  0  0  0  0  0  0  0
    6.7940   -1.8307    2.3343 H   0  0  0  0  0  0  0  0  0  0  0  0
    7.3893   -0.9360   -0.2930 H   0  0  0  0  0  0  0  0  0  0  0  0
    8.7901    0.2813    0.7155 H   0  0  0  0  0  0  0  0  0  0  0  0
    6.3587    1.8830    0.3388 H   0  0  0  0  0  0  0  0  0  0  0  0
    7.1962    1.7670   -2.1363 H   0  0  0  0  0  0  0  0  0  0  0  0
    4.9773    1.8854   -1.5865 H   0  0  0  0  0  0  0  0  0  0  0  0
    5.4668    0.2792   -2.1385 H   0  0  0  0  0  0  0  0  0  0  0  0
    3.5034    2.3594   -0.2621 H   0  0  0  0  0  0  0  0  0  0  0  0
    4.3135    1.5704    1.1892 H   0  0  0  0  0  0  0  0  0  0  0  0
    2.2994    0.1522    1.5159 H   0  0  0  0  0  0  0  0  0  0  0  0
    1.8571    1.8529    1.5213 H   0  0  0  0  0  0  0  0  0  0  0  0
    1.7306   -0.0771   -0.9029 H   0  0  0  0  0  0  0  0  0  0  0  0
    1.3509    1.6834   -0.9873 H   0  0  0  0  0  0  0  0  0  0  0  0
   -0.3585    1.3229    0.7480 H   0  0  0  0  0  0  0  0  0  0  0  0
    0.1093   -0.4570    0.8139 H   0  0  0  0  0  0  0  0  0  0  0  0
   -0.2888   -0.4789   -1.7089 H   0  0  0  0  0  0  0  0  0  0  0  0
   -0.8094    1.2227   -1.5952 H   0  0  0  0  0  0  0  0  0  0  0  0
   -2.8580    1.7876   -0.7512 H   0  0  0  0  0  0  0  0  0  0  0  0
   -2.5952    0.9797    0.8458 H   0  0  0  0  0  0  0  0  0  0  0  0
   -4.1954   -0.4937   -2.1194 H   0  0  0  0  0  0  0  0  0  0  0  0
   -4.8700    1.1879   -2.0206 H   0  0  0  0  0  0  0  0  0  0  0  0
   -6.7055   -0.4176   -2.4958 H   0  0  0  0  0  0  0  0  0  0  0  0
   -8.1976    0.2968   -0.7310 H   0  0  0  0  0  0  0  0  0  0  0  0
   -7.0071    1.5455   -1.1590 H   0  0  0  0  0  0  0  0  0  0  0  0
   -7.2552    1.2748    1.3436 H   0  0  0  0  0  0  0  0  0  0  0  0
   -7.6692   -1.1095    1.2654 H   0  0  0  0  0  0  0  0  0  0  0  0
   -6.2716   -0.7477    2.3802 H   0  0  0  0  0  0  0  0  0  0  0  0
   -5.6449   -2.6378    1.0357 H   0  0  0  0  0  0  0  0  0  0  0  0
   -7.1385   -2.3487   -0.9557 H   0  0  0  0  0  0  0  0  0  0  0  0
   -5.4174   -2.3521   -1.4427 H   0  0  0  0  0  0  0  0  0  0  0  0
   -3.9927   -0.8279    1.5787 H   0  0  0  0  0  0  0  0  0  0  0  0
   -3.5651   -1.6769    0.0593 H   0  0  0  0  0  0  0  0  0  0  0  0
   -5.2798    2.2439    0.2886 H   0  0  0  0  0  0  0  0  0  0  0  0
   -4.7209    1.2011    1.7065 H   0  0  0  0  0  0  0  0  0  0  0  0
  1  2  1  0
  2  3  1  0
  3  4  1  0
  4  5  1  0
  4  6  1  0
  6  7  1  0
  6  8  1  0
  8  9  1  0
  8 10  1  0
 10 11  1  0
 11 12  1  0
 12 13  1  0
 13 14  1  0
 14 15  1  0
 15 16  1  0
 16 17  1  0
 17 18  1  0
 18 19  1  0
 19 20  1  0
 20 21  1  0
 21 22  1  0
 22 23  1  0
 23 24  1  0
 24 25  1  0
 25 26  1  0
 25 27  1  0
 23 28  1  0
 11  3  1  0
 27 19  1  0
 28 19  1  0
 26 21  1  0
  1 29  1  0
  2 30  1  0
  2 31  1  0
  3 32  1  1
  4 33  1  1
  5 34  1  0
  6 35  1  6
  7 36  1  0
  8 37  1  1
  9 38  1  0
 10 39  1  0
 10 40  1  0
 12 41  1  0
 12 42  1  0
 13 43  1  0
 13 44  1  0
 14 45  1  0
 14 46  1  0
 15 47  1  0
 15 48  1  0
 16 49  1  0
 16 50  1  0
 18 51  1  0
 18 52  1  0
 20 53  1  0
 20 54  1  0
 21 55  1  0
 22 56  1  0
 22 57  1  0
 23 58  1  0
 24 59  1  0
 24 60  1  0
 25 61  1  0
 26 62  1  0
 26 63  1  0
 27 64  1  0
 27 65  1  0
 28 66  1  0
 28 67  1  0
M  END
$$$$
