@<TRIPOS>MOLECULE
*****
 67 70 0 0 0
SMALL
GASTEIGER

@<TRIPOS>ATOM
      1 O           5.5250   -1.9321   -1.6321 O.3     1  UNL1       -0.3934
      2 C           4.5991   -2.0387   -0.6265 C.3     1  UNL1        0.0622
      3 C           4.5173   -0.8123    0.2758 C.3     1  UNL1        0.0621
      4 C           5.7398   -0.6359    1.1278 C.3     1  UNL1        0.1011
      5 O           5.9798   -1.8849    1.7448 O.3     1  UNL1       -0.3875
      6 C           6.9346   -0.1659    0.3654 C.3     1  UNL1        0.1095
      7 O           7.9509    0.2041    1.2689 O.3     1  UNL1       -0.3866
      8 C           6.5238    1.0690   -0.3993 C.3     1  UNL1        0.0962
      9 O           7.5677    1.4407   -1.2571 O.3     1  UNL1       -0.3879
     10 C           5.3173    0.8601   -1.2319 C.3     1  UNL1        0.0279
     11 N           4.1502    0.3550   -0.4975 N.3     1  UNL1       -0.2923
     12 C           3.6218    1.4188    0.3346 C.3     1  UNL1       -0.0006
     13 C           2.2822    1.0338    0.8774 C.3     1  UNL1       -0.0401
     14 C           1.3803    0.7981   -0.3208 C.3     1  UNL1       -0.0498
     15 C          -0.0066    0.4302    0.1752 C.3     1  UNL1       -0.0294
     16 C          -0.8365    0.2266   -1.0571 C.3     1  UNL1        0.0477
     17 O          -2.1397   -0.0943   -0.8925 O.3     1  UNL1       -0.3792
     18 C          -2.9044    0.8102   -0.2041 C.3     1  UNL1        0.0533
     19 C          -4.3344    0.3111   -0.1622 C.3     1  UNL1       -0.0051
     20 C          -4.8916    0.1607   -1.5748 C.3     1  UNL1       -0.0424
     21 C          -6.2718   -0.4022   -1.4820 C.3     1  UNL1       -0.0400
     22 C          -7.1194    0.5440   -0.6656 C.3     1  UNL1       -0.0473
     23 C          -6.5880    0.6266    0.7395 C.3     1  UNL1       -0.0400
     24 C          -6.6209   -0.7543    1.3444 C.3     1  UNL1       -0.0473
     25 C          -5.7057   -1.6612    0.5514 C.3     1  UNL1       -0.0400
     26 C          -6.1783   -1.7877   -0.8796 C.3     1  UNL1       -0.0473
     27 C          -4.3291   -1.0314    0.5436 C.3     1  UNL1       -0.0424
     28 C          -5.2061    1.2292    0.6859 C.3     1  UNL1       -0.0424
     29 H           6.2114   -2.6349   -1.5014 H       1  UNL1        0.2095
     30 H           4.7654   -2.9520    0.0086 H       1  UNL1        0.0573
     31 H           3.5758   -2.1734   -1.0616 H       1  UNL1        0.0573
     32 H           3.6837   -1.0359    0.9665 H       1  UNL1        0.0511
     33 H           5.5107    0.0937    1.9144 H       1  UNL1        0.0636
     34 H           6.7940   -1.8307    2.3343 H       1  UNL1        0.2100
     35 H           7.3893   -0.9360   -0.2930 H       1  UNL1        0.0646
     36 H           8.7901    0.2813    0.7155 H       1  UNL1        0.2100
     37 H           6.3587    1.8830    0.3388 H       1  UNL1        0.0633
     38 H           7.1962    1.7670   -2.1363 H       1  UNL1        0.2099
     39 H           4.9773    1.8854   -1.5865 H       1  UNL1        0.0453
     40 H           5.4668    0.2792   -2.1385 H       1  UNL1        0.0453
     41 H           3.5034    2.3594   -0.2621 H       1  UNL1        0.0427
     42 H           4.3135    1.5704    1.1892 H       1  UNL1        0.0427
     43 H           2.2994    0.1522    1.5159 H       1  UNL1        0.0278
     44 H           1.8571    1.8529    1.5213 H       1  UNL1        0.0278
     45 H           1.7306   -0.0771   -0.9029 H       1  UNL1        0.0266
     46 H           1.3509    1.6834   -0.9873 H       1  UNL1        0.0266
     47 H          -0.3585    1.3229    0.7480 H       1  UNL1        0.0287
     48 H           0.1093   -0.4570    0.8139 H       1  UNL1        0.0287
     49 H          -0.2888   -0.4789   -1.7089 H       1  UNL1        0.0560
     50 H          -0.8094    1.2227   -1.5952 H       1  UNL1        0.0560
     51 H          -2.8580    1.7876   -0.7512 H       1  UNL1        0.0565
     52 H          -2.5952    0.9797    0.8458 H       1  UNL1        0.0565
     53 H          -4.1954   -0.4937   -2.1194 H       1  UNL1        0.0274
     54 H          -4.8700    1.1879   -2.0206 H       1  UNL1        0.0274
     55 H          -6.7055   -0.4176   -2.4958 H       1  UNL1        0.0301
     56 H          -8.1976    0.2968   -0.7310 H       1  UNL1        0.0271
     57 H          -7.0071    1.5455   -1.1590 H       1  UNL1        0.0271
     58 H          -7.2552    1.2748    1.3436 H       1  UNL1        0.0301
     59 H          -7.6692   -1.1095    1.2654 H       1  UNL1        0.0271
     60 H          -6.2716   -0.7477    2.3802 H       1  UNL1        0.0271
     61 H          -5.6449   -2.6378    1.0357 H       1  UNL1        0.0301
     62 H          -7.1385   -2.3487   -0.9557 H       1  UNL1        0.0271
     63 H          -5.4174   -2.3521   -1.4427 H       1  UNL1        0.0271
     64 H          -3.9927   -0.8279    1.5787 H       1  UNL1        0.0274
     65 H          -3.5651   -1.6769    0.0593 H       1  UNL1        0.0274
     66 H          -5.2798    2.2439    0.2886 H       1  UNL1        0.0274
     67 H          -4.7209    1.2011    1.7065 H       1  UNL1        0.0274
@<TRIPOS>BOND
     1     1     2    1
     2     2     3    1
     3     3     4    1
     4     4     5    1
     5     4     6    1
     6     6     7    1
     7     6     8    1
     8     8     9    1
     9     8    10    1
    10    10    11    1
    11    11    12    1
    12    12    13    1
    13    13    14    1
    14    14    15    1
    15    15    16    1
    16    16    17    1
    17    17    18    1
    18    18    19    1
    19    19    20    1
    20    20    21    1
    21    21    22    1
    22    22    23    1
    23    23    24    1
    24    24    25    1
    25    25    26    1
    26    25    27    1
    27    23    28    1
    28    11     3    1
    29    27    19    1
    30    28    19    1
    31    26    21    1
    32     1    29    1
    33     2    30    1
    34     2    31    1
    35     3    32    1
    36     4    33    1
    37     5    34    1
    38     6    35    1
    39     7    36    1
    40     8    37    1
    41     9    38    1
    42    10    39    1
    43    10    40    1
    44    12    41    1
    45    12    42    1
    46    13    43    1
    47    13    44    1
    48    14    45    1
    49    14    46    1
    50    15    47    1
    51    15    48    1
    52    16    49    1
    53    16    50    1
    54    18    51    1
    55    18    52    1
    56    20    53    1
    57    20    54    1
    58    21    55    1
    59    22    56    1
    60    22    57    1
    61    23    58    1
    62    24    59    1
    63    24    60    1
    64    25    61    1
    65    26    62    1
    66    26    63    1
    67    27    64    1
    68    27    65    1
    69    28    66    1
    70    28    67    1
