
     RDKit          3D

 59 60  0  0  0  0  0  0  0  0999 V2000
    0.0000    0.0000    0.0000 Na  0  0  0  0  0 15  0  0  0  0  0  0
    1.1857   -1.9662    0.7272 C   0  0  1  0  0  0  0  0  0  0  0  0
    1.2378   -0.7137    1.5519 C   0  0  0  0  0  0  0  0  0  0  0  0
    0.1327    0.1593    1.0529 C   0  0  1  0  0  0  0  0  0  0  0  0
    0.5693    1.4459    0.7803 O   0  0  0  0  0  0  0  0  0  0  0  0
   -0.4039   -0.5132   -0.2018 C   0  0  2  0  0  0  0  0  0  0  0  0
   -1.6756   -1.1761    0.1065 C   0  0  0  0  0  0  0  0  0  0  0  0
   -2.7478   -0.8387   -0.6196 C   0  0  0  0  0  0  0  0  0  0  0  0
   -4.1185   -1.4033   -0.4481 C   0  0  1  0  0  0  0  0  0  0  0  0
   -4.0976   -2.5813    0.2812 O   0  0  0  0  0  0  0  0  0  0  0  0
   -5.0005   -0.3367    0.2141 C   0  0  0  0  0  0  0  0  0  0  0  0
   -6.3710   -0.9072    0.3831 C   0  0  0  0  0  0  0  0  0  0  0  0
   -4.9521    0.8785   -0.6629 C   0  0  0  0  0  0  0  0  0  0  0  0
   -5.8039    1.9105   -0.0326 C   0  0  0  0  0  0  0  0  0  0  0  0
   -6.4938    2.7712    0.4769 C   0  0  0  0  0  0  0  0  0  0  0  0
   -7.3122    3.8307    1.0862 C   0  0  0  0  0  0  0  0  0  0  0  0
    0.6729   -1.4693   -0.6171 C   0  0  1  0  0  0  0  0  0  0  0  0
    1.8918   -0.7317   -1.0872 C   0  0  0  0  0  0  0  0  0  0  0  0
    1.9554    0.3192   -1.9708 C   0  0  0  0  0  0  0  0  0  0  0  0
    3.2103    0.8325   -2.2223 C   0  0  0  0  0  0  0  0  0  0  0  0
    4.3352    0.3120   -1.6146 C   0  0  0  0  0  0  0  0  0  0  0  0
    4.2565   -0.7570   -0.7175 C   0  0  0  0  0  0  0  0  0  0  0  0
    5.4149   -1.3469   -0.0494 C   0  0  0  0  0  0  0  0  0  0  0  0
    6.6389   -0.4997    0.0176 C   0  0  0  0  0  0  0  0  0  0  0  0
    6.4978    0.7967    0.7441 C   0  0  0  0  0  0  0  0  0  0  0  0
    7.8282    1.5071    0.7090 C   0  0  0  0  0  0  0  0  0  0  0  0
    7.8752    2.5975   -0.1447 O   0  0  0  0  0  1  0  0  0  0  0  0
    8.7624    1.0589    1.4424 O   0  0  0  0  0  0  0  0  0  0  0  0
    2.9942   -1.2998   -0.4421 C   0  0  0  0  0  0  0  0  0  0  0  0
    2.5113   -2.3425    0.3730 O   0  0  0  0  0  0  0  0  0  0  0  0
    0.6006   -2.7830    1.1466 H   0  0  0  0  0  0  0  0  0  0  0  0
    1.1484   -0.9172    2.6367 H   0  0  0  0  0  0  0  0  0  0  0  0
    2.2033   -0.1995    1.3273 H   0  0  0  0  0  0  0  0  0  0  0  0
   -0.7118    0.2505    1.7794 H   0  0  0  0  0  0  0  0  0  0  0  0
   -0.1947    2.0893    0.8245 H   0  0  0  0  0  0  0  0  0  0  0  0
   -0.4877    0.2567   -0.9732 H   0  0  0  0  0  0  0  0  0  0  0  0
   -1.8154   -1.9208    0.8789 H   0  0  0  0  0  0  0  0  0  0  0  0
   -2.6213   -0.0944   -1.4112 H   0  0  0  0  0  0  0  0  0  0  0  0
   -4.5327   -1.5471   -1.4633 H   0  0  0  0  0  0  0  0  0  0  0  0
   -3.3140   -3.1001   -0.0254 H   0  0  0  0  0  0  0  0  0  0  0  0
   -4.5990   -0.0897    1.2252 H   0  0  0  0  0  0  0  0  0  0  0  0
   -7.0561   -0.1822    0.8895 H   0  0  0  0  0  0  0  0  0  0  0  0
   -6.2912   -1.7805    1.0645 H   0  0  0  0  0  0  0  0  0  0  0  0
   -6.8137   -1.2632   -0.5595 H   0  0  0  0  0  0  0  0  0  0  0  0
   -5.2519    0.6537   -1.6924 H   0  0  0  0  0  0  0  0  0  0  0  0
   -3.8833    1.2477   -0.6266 H   0  0  0  0  0  0  0  0  0  0  0  0
   -6.7102    4.3743    1.8406 H   0  0  0  0  0  0  0  0  0  0  0  0
   -8.2580    3.4221    1.4553 H   0  0  0  0  0  0  0  0  0  0  0  0
   -7.5966    4.5915    0.3010 H   0  0  0  0  0  0  0  0  0  0  0  0
    0.3752   -2.2616   -1.3014 H   0  0  0  0  0  0  0  0  0  0  0  0
    1.0549    0.7005   -2.4274 H   0  0  0  0  0  0  0  0  0  0  0  0
    3.2529    1.6664   -2.9249 H   0  0  0  0  0  0  0  0  0  0  0  0
    5.3096    0.7445   -1.8404 H   0  0  0  0  0  0  0  0  0  0  0  0
    5.6921   -2.2749   -0.5898 H   0  0  0  0  0  0  0  0  0  0  0  0
    5.1006   -1.6211    0.9935 H   0  0  0  0  0  0  0  0  0  0  0  0
    7.4161   -1.1039    0.5484 H   0  0  0  0  0  0  0  0  0  0  0  0
    7.0610   -0.3627   -1.0178 H   0  0  0  0  0  0  0  0  0  0  0  0
    6.2615    0.5274    1.8166 H   0  0  0  0  0  0  0  0  0  0  0  0
    5.6678    1.4406    0.4181 H   0  0  0  0  0  0  0  0  0  0  0  0
  2  3  1  0
  3  4  1  0
  4  5  1  0
  4  6  1  0
  6  7  1  0
  7  8  2  0
  8  9  1  0
  9 10  1  0
  9 11  1  0
 11 12  1  0
 11 13  1  0
 13 14  1  0
 14 15  3  0
 15 16  1  0
  6 17  1  0
 17 18  1  0
 18 19  2  0
 19 20  1  0
 20 21  2  0
 21 22  1  0
 22 23  1  0
 23 24  1  0
 24 25  1  0
 25 26  1  0
 26 27  1  0
 26 28  2  0
 22 29  2  0
 29 30  1  0
 17  2  1  0
 29 18  1  0
 30  2  1  0
  2 31  1  1
  3 32  1  0
  3 33  1  0
  4 34  1  1
  5 35  1  0
  6 36  1  6
  7 37  1  0
  8 38  1  0
  9 39  1  6
 10 40  1  0
 11 41  1  0
 12 42  1  0
 12 43  1  0
 12 44  1  0
 13 45  1  0
 13 46  1  0
 16 47  1  0
 16 48  1  0
 16 49  1  0
 17 50  1  6
 19 51  1  0
 20 52  1  0
 21 53  1  0
 23 54  1  0
 23 55  1  0
 24 56  1  0
 24 57  1  0
 25 58  1  0
 25 59  1  0
M  CHG  2   1   1  27  -1
M  END
$$$$
