@<TRIPOS>MOLECULE
*****
 59 60 0 0 0
SMALL
GASTEIGER

@<TRIPOS>ATOM
      1 NA          0.0000    0.0000    0.0000 Na      1  UNL1        0.0000
      2 C           1.1857   -1.9662    0.7272 C.3     2  UNL2        0.0000
      3 C           1.2378   -0.7137    1.5519 C.3     2  UNL2        0.0000
      4 C           0.1327    0.1593    1.0529 C.3     2  UNL2        0.0000
      5 O           0.5693    1.4459    0.7803 O.3     2  UNL2        0.0000
      6 C          -0.4039   -0.5132   -0.2018 C.3     2  UNL2        0.0000
      7 C          -1.6756   -1.1761    0.1065 C.2     2  UNL2        0.0000
      8 C          -2.7478   -0.8387   -0.6196 C.2     2  UNL2        0.0000
      9 C          -4.1185   -1.4033   -0.4481 C.3     2  UNL2        0.0000
     10 O          -4.0976   -2.5813    0.2812 O.3     2  UNL2        0.0000
     11 C          -5.0005   -0.3367    0.2141 C.3     2  UNL2        0.0000
     12 C          -6.3710   -0.9072    0.3831 C.3     2  UNL2        0.0000
     13 C          -4.9521    0.8785   -0.6629 C.3     2  UNL2        0.0000
     14 C          -5.8039    1.9105   -0.0326 C.1     2  UNL2        0.0000
     15 C          -6.4938    2.7712    0.4769 C.1     2  UNL2        0.0000
     16 C          -7.3122    3.8307    1.0862 C.3     2  UNL2        0.0000
     17 C           0.6729   -1.4693   -0.6171 C.3     2  UNL2        0.0000
     18 C           1.8918   -0.7317   -1.0872 C.ar    2  UNL2        0.0000
     19 C           1.9554    0.3192   -1.9708 C.ar    2  UNL2        0.0000
     20 C           3.2103    0.8325   -2.2223 C.ar    2  UNL2        0.0000
     21 C           4.3352    0.3120   -1.6146 C.ar    2  UNL2        0.0000
     22 C           4.2565   -0.7570   -0.7175 C.ar    2  UNL2        0.0000
     23 C           5.4149   -1.3469   -0.0494 C.3     2  UNL2        0.0000
     24 C           6.6389   -0.4997    0.0176 C.3     2  UNL2        0.0000
     25 C           6.4978    0.7967    0.7441 C.3     2  UNL2        0.0000
     26 C           7.8282    1.5071    0.7090 C.2     2  UNL2        0.0000
     27 O           7.8752    2.5975   -0.1447 O.co2   2  UNL2       -0.5000
     28 O           8.7624    1.0589    1.4424 O.co2   2  UNL2       -0.5000
     29 C           2.9942   -1.2998   -0.4421 C.ar    2  UNL2        0.0000
     30 O           2.5113   -2.3425    0.3730 O.3     2  UNL2        0.0000
     31 H           0.6006   -2.7830    1.1466 H       2  UNL2        0.0000
     32 H           1.1484   -0.9172    2.6367 H       2  UNL2        0.0000
     33 H           2.2033   -0.1995    1.3273 H       2  UNL2        0.0000
     34 H          -0.7118    0.2505    1.7794 H       2  UNL2        0.0000
     35 H          -0.1947    2.0893    0.8245 H       2  UNL2        0.0000
     36 H          -0.4877    0.2567   -0.9732 H       2  UNL2        0.0000
     37 H          -1.8154   -1.9208    0.8789 H       2  UNL2        0.0000
     38 H          -2.6213   -0.0944   -1.4112 H       2  UNL2        0.0000
     39 H          -4.5327   -1.5471   -1.4633 H       2  UNL2        0.0000
     40 H          -3.3140   -3.1001   -0.0254 H       2  UNL2        0.0000
     41 H          -4.5990   -0.0897    1.2252 H       2  UNL2        0.0000
     42 H          -7.0561   -0.1822    0.8895 H       2  UNL2        0.0000
     43 H          -6.2912   -1.7805    1.0645 H       2  UNL2        0.0000
     44 H          -6.8137   -1.2632   -0.5595 H       2  UNL2        0.0000
     45 H          -5.2519    0.6537   -1.6924 H       2  UNL2        0.0000
     46 H          -3.8833    1.2477   -0.6266 H       2  UNL2        0.0000
     47 H          -6.7102    4.3743    1.8406 H       2  UNL2        0.0000
     48 H          -8.2580    3.4221    1.4553 H       2  UNL2        0.0000
     49 H          -7.5966    4.5915    0.3010 H       2  UNL2        0.0000
     50 H           0.3752   -2.2616   -1.3014 H       2  UNL2        0.0000
     51 H           1.0549    0.7005   -2.4274 H       2  UNL2        0.0000
     52 H           3.2529    1.6664   -2.9249 H       2  UNL2        0.0000
     53 H           5.3096    0.7445   -1.8404 H       2  UNL2        0.0000
     54 H           5.6921   -2.2749   -0.5898 H       2  UNL2        0.0000
     55 H           5.1006   -1.6211    0.9935 H       2  UNL2        0.0000
     56 H           7.4161   -1.1039    0.5484 H       2  UNL2        0.0000
     57 H           7.0610   -0.3627   -1.0178 H       2  UNL2        0.0000
     58 H           6.2615    0.5274    1.8166 H       2  UNL2        0.0000
     59 H           5.6678    1.4406    0.4181 H       2  UNL2        0.0000
@<TRIPOS>UNITY_ATOM_ATTR
1 1
charge 1
27 1
charge -1
@<TRIPOS>BOND
     1     2     3    1
     2     3     4    1
     3     4     5    1
     4     4     6    1
     5     6     7    1
     6     7     8    2
     7     8     9    1
     8     9    10    1
     9     9    11    1
    10    11    12    1
    11    11    13    1
    12    13    14    1
    13    14    15    3
    14    15    16    1
    15     6    17    1
    16    17    18    1
    17    18    19   ar
    18    19    20   ar
    19    20    21   ar
    20    21    22   ar
    21    22    23    1
    22    23    24    1
    23    24    25    1
    24    25    26    1
    25    26    27   ar
    26    26    28   ar
    27    22    29   ar
    28    29    30    1
    29    17     2    1
    30    29    18   ar
    31    30     2    1
    32     2    31    1
    33     3    32    1
    34     3    33    1
    35     4    34    1
    36     5    35    1
    37     6    36    1
    38     7    37    1
    39     8    38    1
    40     9    39    1
    41    10    40    1
    42    11    41    1
    43    12    42    1
    44    12    43    1
    45    12    44    1
    46    13    45    1
    47    13    46    1
    48    16    47    1
    49    16    48    1
    50    16    49    1
    51    17    50    1
    52    19    51    1
    53    20    52    1
    54    21    53    1
    55    23    54    1
    56    23    55    1
    57    24    56    1
    58    24    57    1
    59    25    58    1
    60    25    59    1
