@<TRIPOS>MOLECULE
*****
 35 37 0 0 0
SMALL
GASTEIGER

@<TRIPOS>ATOM
      1 O          -1.2551   -0.3097   -0.2172 O.2     1  UNL1       -0.2260
      2 C          -1.1556   -1.2336   -1.0327 C.2     1  UNL1        0.4059
      3 N          -2.3335   -1.8073   -1.5666 N.am    1  UNL1       -0.2767
      4 C          -3.6223   -1.3319   -1.1746 C.3     1  UNL1        0.0400
      5 C          -3.6223   -0.2369   -0.2066 C.ar    1  UNL1       -0.0302
      6 C          -3.6027    1.0694   -0.6600 C.ar    1  UNL1       -0.0571
      7 C          -3.6030    2.1436    0.2197 C.ar    1  UNL1       -0.0615
      8 C          -3.6228    1.9515    1.5841 C.ar    1  UNL1       -0.0617
      9 C          -3.6424    0.6519    2.0426 C.ar    1  UNL1       -0.0615
     10 C          -3.6421   -0.4158    1.1612 C.ar    1  UNL1       -0.0571
     11 O           0.1192   -1.6560   -1.3781 O.3     1  UNL1       -0.4115
     12 C           1.2733   -1.0999   -0.8603 C.ar    1  UNL1        0.1333
     13 C           1.8490   -0.0348   -1.5122 C.ar    1  UNL1       -0.0186
     14 C           3.0147    0.5524   -1.0188 C.ar    1  UNL1       -0.0490
     15 C           3.6233    0.0893    0.1281 C.ar    1  UNL1        0.0029
     16 C           4.8599    0.7296    0.6315 C.ar    1  UNL1        0.1018
     17 C           5.5271    0.2764    1.8258 C.ar    1  UNL1        0.0237
     18 S           6.8482    1.3134    1.9559 S.2     1  UNL1        0.0288
     19 N           6.4533    2.2971    0.4224 N.ar    1  UNL1       -0.1100
     20 N           5.4501    1.7241    0.0758 N.ar    1  UNL1       -0.1412
     21 C           3.0512   -0.9703    0.7772 C.ar    1  UNL1       -0.0490
     22 C           1.8781   -1.5648    0.2848 C.ar    1  UNL1       -0.0186
     23 H          -2.2831   -2.5871   -2.2556 H       1  UNL1        0.1523
     24 H          -4.1934   -1.0744   -2.1147 H       1  UNL1        0.0513
     25 H          -4.2154   -2.1875   -0.7352 H       1  UNL1        0.0513
     26 H          -3.5867    1.2847   -1.7152 H       1  UNL1        0.0621
     27 H          -3.5873    3.1727   -0.1536 H       1  UNL1        0.0618
     28 H          -3.6227    2.8072    2.2635 H       1  UNL1        0.0618
     29 H          -3.6580    0.4681    3.0922 H       1  UNL1        0.0618
     30 H          -3.6575   -1.4456    1.5159 H       1  UNL1        0.0621
     31 H           1.3712    0.3263   -2.4097 H       1  UNL1        0.0654
     32 H           3.4557    1.4014   -1.5564 H       1  UNL1        0.0625
     33 H           5.1761   -0.5543    2.4327 H       1  UNL1        0.0731
     34 H           3.5052   -1.3625    1.6867 H       1  UNL1        0.0625
     35 H           1.4507   -2.3869    0.8050 H       1  UNL1        0.0654
@<TRIPOS>BOND
     1     1     2    2
     2     2     3   am
     3     3     4    1
     4     4     5    1
     5     5     6   ar
     6     6     7   ar
     7     7     8   ar
     8     8     9   ar
     9     9    10   ar
    10     2    11    1
    11    11    12    1
    12    12    13   ar
    13    13    14   ar
    14    14    15   ar
    15    15    16    1
    16    16    17   ar
    17    17    18   ar
    18    18    19   ar
    19    19    20   ar
    20    15    21   ar
    21    21    22   ar
    22    10     5   ar
    23    22    12   ar
    24    20    16   ar
    25     3    23    1
    26     4    24    1
    27     4    25    1
    28     6    26    1
    29     7    27    1
    30     8    28    1
    31     9    29    1
    32    10    30    1
    33    13    31    1
    34    14    32    1
    35    17    33    1
    36    21    34    1
    37    22    35    1
