
     RDKit          3D

 35 37  0  0  0  0  0  0  0  0999 V2000
   -1.2551   -0.3097   -0.2172 O   0  0  0  0  0  0  0  0  0  0  0  0
   -1.1556   -1.2336   -1.0327 C   0  0  0  0  0  0  0  0  0  0  0  0
   -2.3335   -1.8073   -1.5666 N   0  0  0  0  0  0  0  0  0  0  0  0
   -3.6223   -1.3319   -1.1746 C   0  0  0  0  0  0  0  0  0  0  0  0
   -3.6223   -0.2369   -0.2066 C   0  0  0  0  0  0  0  0  0  0  0  0
   -3.6027    1.0694   -0.6600 C   0  0  0  0  0  0  0  0  0  0  0  0
   -3.6030    2.1436    0.2197 C   0  0  0  0  0  0  0  0  0  0  0  0
   -3.6228    1.9515    1.5841 C   0  0  0  0  0  0  0  0  0  0  0  0
   -3.6424    0.6519    2.0426 C   0  0  0  0  0  0  0  0  0  0  0  0
   -3.6421   -0.4158    1.1612 C   0  0  0  0  0  0  0  0  0  0  0  0
    0.1192   -1.6560   -1.3781 O   0  0  0  0  0  0  0  0  0  0  0  0
    1.2733   -1.0999   -0.8603 C   0  0  0  0  0  0  0  0  0  0  0  0
    1.8490   -0.0348   -1.5122 C   0  0  0  0  0  0  0  0  0  0  0  0
    3.0147    0.5524   -1.0188 C   0  0  0  0  0  0  0  0  0  0  0  0
    3.6233    0.0893    0.1281 C   0  0  0  0  0  0  0  0  0  0  0  0
    4.8599    0.7296    0.6315 C   0  0  0  0  0  0  0  0  0  0  0  0
    5.5271    0.2764    1.8258 C   0  0  0  0  0  0  0  0  0  0  0  0
    6.8482    1.3134    1.9559 S   0  0  0  0  0  0  0  0  0  0  0  0
    6.4533    2.2971    0.4224 N   0  0  0  0  0  0  0  0  0  0  0  0
    5.4501    1.7241    0.0758 N   0  0  0  0  0  0  0  0  0  0  0  0
    3.0512   -0.9703    0.7772 C   0  0  0  0  0  0  0  0  0  0  0  0
    1.8781   -1.5648    0.2848 C   0  0  0  0  0  0  0  0  0  0  0  0
   -2.2831   -2.5871   -2.2556 H   0  0  0  0  0  0  0  0  0  0  0  0
   -4.1934   -1.0744   -2.1147 H   0  0  0  0  0  0  0  0  0  0  0  0
   -4.2154   -2.1875   -0.7352 H   0  0  0  0  0  0  0  0  0  0  0  0
   -3.5867    1.2847   -1.7152 H   0  0  0  0  0  0  0  0  0  0  0  0
   -3.5873    3.1727   -0.1536 H   0  0  0  0  0  0  0  0  0  0  0  0
   -3.6227    2.8072    2.2635 H   0  0  0  0  0  0  0  0  0  0  0  0
   -3.6580    0.4681    3.0922 H   0  0  0  0  0  0  0  0  0  0  0  0
   -3.6575   -1.4456    1.5159 H   0  0  0  0  0  0  0  0  0  0  0  0
    1.3712    0.3263   -2.4097 H   0  0  0  0  0  0  0  0  0  0  0  0
    3.4557    1.4014   -1.5564 H   0  0  0  0  0  0  0  0  0  0  0  0
    5.1761   -0.5543    2.4327 H   0  0  0  0  0  0  0  0  0  0  0  0
    3.5052   -1.3625    1.6867 H   0  0  0  0  0  0  0  0  0  0  0  0
    1.4507   -2.3869    0.8050 H   0  0  0  0  0  0  0  0  0  0  0  0
  1  2  2  0
  2  3  1  0
  3  4  1  0
  4  5  1  0
  5  6  2  0
  6  7  1  0
  7  8  2  0
  8  9  1  0
  9 10  2  0
  2 11  1  0
 11 12  1  0
 12 13  2  0
 13 14  1  0
 14 15  2  0
 15 16  1  0
 16 17  2  0
 17 18  1  0
 18 19  1  0
 19 20  2  0
 15 21  1  0
 21 22  2  0
 10  5  1  0
 22 12  1  0
 20 16  1  0
  3 23  1  0
  4 24  1  0
  4 25  1  0
  6 26  1  0
  7 27  1  0
  8 28  1  0
  9 29  1  0
 10 30  1  0
 13 31  1  0
 14 32  1  0
 17 33  1  0
 21 34  1  0
 22 35  1  0
M  END
$$$$
