
     RDKit          3D

 63 67  0  0  0  0  0  0  0  0999 V2000
   -6.0883    5.4766    0.5286 F   0  0  0  0  0  0  0  0  0  0  0  0
   -5.3416    4.3520    0.4660 C   0  0  0  0  0  0  0  0  0  0  0  0
   -5.2419    3.4633    1.5166 C   0  0  0  0  0  0  0  0  0  0  0  0
   -4.4797    2.3137    1.4550 C   0  0  0  0  0  0  0  0  0  0  0  0
   -3.7743    2.0063    0.3133 C   0  0  0  0  0  0  0  0  0  0  0  0
   -3.8845    2.9068   -0.7309 C   0  0  0  0  0  0  0  0  0  0  0  0
   -4.6356    4.0616   -0.7015 C   0  0  0  0  0  0  0  0  0  0  0  0
   -2.9412    0.7764    0.2083 C   0  0  0  0  0  0  0  0  0  0  0  0
   -2.2408    0.4331    1.4657 C   0  0  0  0  0  0  0  0  0  0  0  0
   -1.4057   -0.8213    1.3316 C   0  0  0  0  0  0  0  0  0  0  0  0
   -0.3601   -0.6619    0.2715 C   0  0  0  0  0  0  0  0  0  0  0  0
    0.4938   -1.7931    0.0751 N   0  0  0  0  0  0  0  0  0  0  0  0
    1.3987   -2.0972    1.1247 C   0  0  0  0  0  0  0  0  0  0  0  0
    2.6905   -1.3101    1.0669 C   0  0  0  0  0  0  0  0  0  0  0  0
    3.2659   -1.5887   -0.3157 C   0  0  0  0  0  0  0  0  0  0  0  0
    2.3399   -1.0116   -1.2961 C   0  0  0  0  0  0  0  0  0  0  0  0
    1.0592   -1.8632   -1.2494 C   0  0  0  0  0  0  0  0  0  0  0  0
    4.6550   -1.2813   -0.4054 N   0  0  0  0  0  0  0  0  0  0  0  0
    5.7065   -2.1346   -0.5325 C   0  0  0  0  0  0  0  0  0  0  0  0
    5.6475   -3.3950   -0.5967 O   0  0  0  0  0  0  0  0  0  0  0  0
    6.8850   -1.4892   -0.5874 N   0  0  0  0  0  0  0  0  0  0  0  0
    6.6180   -0.1845   -0.4957 C   0  0  0  0  0  0  0  0  0  0  0  0
    7.4739    0.8939   -0.5022 C   0  0  0  0  0  0  0  0  0  0  0  0
    6.9357    2.1640   -0.3916 C   0  0  0  0  0  0  0  0  0  0  0  0
    5.5757    2.3461   -0.2775 C   0  0  0  0  0  0  0  0  0  0  0  0
    4.7670    1.2115   -0.2777 C   0  0  0  0  0  0  0  0  0  0  0  0
    5.2397   -0.0759   -0.3843 C   0  0  0  0  0  0  0  0  0  0  0  0
   -3.7960   -0.2954   -0.3329 C   0  0  0  0  0  0  0  0  0  0  0  0
   -4.5197   -1.1250    0.5235 C   0  0  0  0  0  0  0  0  0  0  0  0
   -5.3180   -2.1223    0.0617 C   0  0  0  0  0  0  0  0  0  0  0  0
   -5.4611   -2.3757   -1.2992 C   0  0  0  0  0  0  0  0  0  0  0  0
   -6.2637   -3.3763   -1.7276 F   0  0  0  0  0  0  0  0  0  0  0  0
   -4.7440   -1.5526   -2.1289 C   0  0  0  0  0  0  0  0  0  0  0  0
   -3.9284   -0.5364   -1.7043 C   0  0  0  0  0  0  0  0  0  0  0  0
   -5.8087    3.7400    2.3922 H   0  0  0  0  0  0  0  0  0  0  0  0
   -4.4540    1.6764    2.3114 H   0  0  0  0  0  0  0  0  0  0  0  0
   -3.3516    2.7325   -1.6758 H   0  0  0  0  0  0  0  0  0  0  0  0
   -4.6899    4.7369   -1.5485 H   0  0  0  0  0  0  0  0  0  0  0  0
   -2.1815    1.0191   -0.5698 H   0  0  0  0  0  0  0  0  0  0  0  0
   -2.9036    0.3451    2.3505 H   0  0  0  0  0  0  0  0  0  0  0  0
   -1.5597    1.2824    1.7090 H   0  0  0  0  0  0  0  0  0  0  0  0
   -0.9088   -1.0740    2.2974 H   0  0  0  0  0  0  0  0  0  0  0  0
   -2.0801   -1.7004    1.1055 H   0  0  0  0  0  0  0  0  0  0  0  0
    0.2687    0.1959    0.5186 H   0  0  0  0  0  0  0  0  0  0  0  0
   -0.8909   -0.5159   -0.7176 H   0  0  0  0  0  0  0  0  0  0  0  0
    0.9364   -1.8429    2.0971 H   0  0  0  0  0  0  0  0  0  0  0  0
    1.6577   -3.1744    1.2012 H   0  0  0  0  0  0  0  0  0  0  0  0
    3.3838   -1.7338    1.7978 H   0  0  0  0  0  0  0  0  0  0  0  0
    2.5305   -0.2365    1.2445 H   0  0  0  0  0  0  0  0  0  0  0  0
    3.1672   -2.7066   -0.4076 H   0  0  0  0  0  0  0  0  0  0  0  0
    1.9409   -0.0180   -0.9548 H   0  0  0  0  0  0  0  0  0  0  0  0
    2.6616   -1.0071   -2.3486 H   0  0  0  0  0  0  0  0  0  0  0  0
    0.3332   -1.3784   -1.9421 H   0  0  0  0  0  0  0  0  0  0  0  0
    1.2876   -2.8795   -1.5697 H   0  0  0  0  0  0  0  0  0  0  0  0
    7.8310   -1.9080   -0.6825 H   0  0  0  0  0  0  0  0  0  0  0  0
    8.5402    0.7792   -0.5906 H   0  0  0  0  0  0  0  0  0  0  0  0
    7.5997    2.9953   -0.3970 H   0  0  0  0  0  0  0  0  0  0  0  0
    5.1728    3.3492   -0.1918 H   0  0  0  0  0  0  0  0  0  0  0  0
    3.7250    1.3774   -0.1883 H   0  0  0  0  0  0  0  0  0  0  0  0
   -4.4308   -0.9557    1.5744 H   0  0  0  0  0  0  0  0  0  0  0  0
   -5.8958   -2.7867    0.7241 H   0  0  0  0  0  0  0  0  0  0  0  0
   -4.8417   -1.7339   -3.2010 H   0  0  0  0  0  0  0  0  0  0  0  0
   -3.3664    0.1083   -2.3663 H   0  0  0  0  0  0  0  0  0  0  0  0
  1  2  1  0
  2  3  2  0
  3  4  1  0
  4  5  2  0
  5  6  1  0
  6  7  2  0
  5  8  1  0
  8  9  1  0
  9 10  1  0
 10 11  1  0
 11 12  1  0
 12 13  1  0
 13 14  1  0
 14 15  1  0
 15 16  1  0
 16 17  1  0
 15 18  1  0
 18 19  1  0
 19 20  2  0
 19 21  1  0
 21 22  1  0
 22 23  2  0
 23 24  1  0
 24 25  2  0
 25 26  1  0
 26 27  2  0
  8 28  1  0
 28 29  2  0
 29 30  1  0
 30 31  2  0
 31 32  1  0
 31 33  1  0
 33 34  2  0
  7  2  1  0
 17 12  1  0
 27 18  1  0
 34 28  1  0
 27 22  1  0
  3 35  1  0
  4 36  1  0
  6 37  1  0
  7 38  1  0
  8 39  1  0
  9 40  1  0
  9 41  1  0
 10 42  1  0
 10 43  1  0
 11 44  1  0
 11 45  1  0
 13 46  1  0
 13 47  1  0
 14 48  1  0
 14 49  1  0
 15 50  1  0
 16 51  1  0
 16 52  1  0
 17 53  1  0
 17 54  1  0
 21 55  1  0
 23 56  1  0
 24 57  1  0
 25 58  1  0
 26 59  1  0
 29 60  1  0
 30 61  1  0
 33 62  1  0
 34 63  1  0
M  END
$$$$
