@<TRIPOS>MOLECULE
*****
 69 73 0 0 0
SMALL
GASTEIGER

@<TRIPOS>ATOM
      1 O           6.0812    2.4974    0.8211 O.2     1  UNL1       -0.2522
      2 P           6.4600    2.8801   -0.5898 P.3     1  UNL1        0.4007
      3 O           7.2491    4.3721   -0.5189 O.3     1  UNL1       -0.3199
      4 O           7.5237    1.7543   -1.2182 O.3     1  UNL1       -0.3199
      5 C           4.9802    3.0712   -1.6283 C.3     1  UNL1        0.3711
      6 F           5.2918    2.5519   -2.8742 F       1  UNL1       -0.1866
      7 F           4.6322    4.4058   -1.6906 F       1  UNL1       -0.1866
      8 C           3.8417    2.2813   -1.0923 C.ar    1  UNL1        0.0328
      9 C           2.5508    2.7158   -1.2060 C.ar    1  UNL1       -0.0521
     10 C           1.4923    1.9389   -0.6853 C.ar    1  UNL1       -0.0580
     11 C           1.7099    0.7611   -0.0666 C.ar    1  UNL1       -0.0447
     12 C           0.7428   -0.0816    0.5768 C.3     1  UNL1        0.0022
     13 C          -0.2275   -0.9008   -0.1953 C.3     1  UNL1        0.0987
     14 C          -1.2688   -0.1363   -0.9614 C.3     1  UNL1        0.0022
     15 C          -2.2618    0.6157   -0.2219 C.ar    1  UNL1       -0.0447
     16 C          -2.1059    1.8063    0.3887 C.ar    1  UNL1       -0.0580
     17 C          -3.1783    2.4684    1.0301 C.ar    1  UNL1       -0.0521
     18 C          -4.4290    1.9008    1.0458 C.ar    1  UNL1        0.0328
     19 C          -5.5689    2.5974    1.7252 C.3     1  UNL1        0.3711
     20 F          -5.9436    1.8471    2.8382 F       1  UNL1       -0.1866
     21 F          -5.1509    3.8276    2.1799 F       1  UNL1       -0.1866
     22 P          -6.9759    2.8461    0.6428 P.3     1  UNL1        0.4007
     23 O          -8.2459    2.9007    1.4863 O.2     1  UNL1       -0.2522
     24 O          -7.1860    1.6375   -0.4918 O.3     1  UNL1       -0.3199
     25 O          -6.8871    4.3582   -0.1454 O.3     1  UNL1       -0.3199
     26 C          -4.6061    0.6941    0.4320 C.ar    1  UNL1       -0.0521
     27 C          -3.5588    0.0663   -0.1848 C.ar    1  UNL1       -0.0580
     28 C           0.3463   -1.8383   -1.2006 C.ar    1  UNL1       -0.0165
     29 C          -0.1463   -3.1219   -1.2643 C.ar    1  UNL1       -0.0534
     30 C           0.3041   -4.0627   -2.1990 C.ar    1  UNL1       -0.0233
     31 C           1.2820   -3.6838   -3.0919 C.ar    1  UNL1        0.1584
     32 F           1.7084   -4.6055   -3.9901 F       1  UNL1       -0.2025
     33 C           1.7725   -2.4144   -3.0347 C.ar    1  UNL1        0.1587
     34 F           2.7407   -2.0625   -3.9301 F       1  UNL1       -0.2025
     35 C           1.3133   -1.4802   -2.0943 C.ar    1  UNL1       -0.0181
     36 N          -0.8296   -1.7510    0.8616 N.ar    1  UNL1       -0.2329
     37 N          -2.0336   -1.6341    1.2969 N.ar    1  UNL1       -0.0637
     38 N          -2.2500   -2.5128    2.2380 N.ar    1  UNL1       -0.1294
     39 C          -1.1268   -3.2348    2.4194 C.ar    1  UNL1        0.1127
     40 C          -0.8155   -4.2759    3.2749 C.ar    1  UNL1       -0.0324
     41 C           0.4460   -4.8323    3.2330 C.ar    1  UNL1       -0.0596
     42 C           1.3506   -4.3186    2.3285 C.ar    1  UNL1       -0.0596
     43 C           1.0752   -3.2878    1.4667 C.ar    1  UNL1       -0.0344
     44 C          -0.2082   -2.7318    1.5193 C.ar    1  UNL1        0.0900
     45 C           3.0532    0.3513    0.0282 C.ar    1  UNL1       -0.0580
     46 C           4.0896    1.0838   -0.4669 C.ar    1  UNL1       -0.0521
     47 H           7.9798    4.3784    0.1442 H       1  UNL1        0.2199
     48 H           7.5061    0.8939   -0.7374 H       1  UNL1        0.2199
     49 H           2.3689    3.6587   -1.6996 H       1  UNL1        0.0622
     50 H           0.5139    2.3515   -0.8409 H       1  UNL1        0.0620
     51 H           0.0651    0.5333    1.2871 H       1  UNL1        0.0340
     52 H           1.2389   -0.7574    1.3504 H       1  UNL1        0.0340
     53 H          -1.7522   -0.9020   -1.6550 H       1  UNL1        0.0340
     54 H          -0.6941    0.4953   -1.6942 H       1  UNL1        0.0340
     55 H          -1.1764    2.3335    0.4453 H       1  UNL1        0.0620
     56 H          -3.0477    3.4192    1.5161 H       1  UNL1        0.0622
     57 H          -6.5478    1.7639   -1.2389 H       1  UNL1        0.2199
     58 H          -6.5815    4.2183   -1.0806 H       1  UNL1        0.2199
     59 H          -5.5878    0.1985    0.4173 H       1  UNL1        0.0622
     60 H          -3.7559   -0.8968   -0.6781 H       1  UNL1        0.0620
     61 H          -0.9308   -3.5158   -0.6107 H       1  UNL1        0.0622
     62 H          -0.0927   -5.0614   -2.2329 H       1  UNL1        0.0647
     63 H           1.7535   -0.5121   -2.1714 H       1  UNL1        0.0651
     64 H          -1.5540   -4.6608    3.9802 H       1  UNL1        0.0640
     65 H           0.7021   -5.6505    3.9004 H       1  UNL1        0.0618
     66 H           2.3423   -4.7588    2.2982 H       1  UNL1        0.0618
     67 H           1.7975   -2.9052    0.7669 H       1  UNL1        0.0639
     68 H           3.2792   -0.6060    0.5252 H       1  UNL1        0.0620
     69 H           5.1408    0.7183   -0.3688 H       1  UNL1        0.0622
@<TRIPOS>BOND
     1     1     2    2
     2     2     3    1
     3     2     4    1
     4     2     5    1
     5     5     6    1
     6     5     7    1
     7     5     8    1
     8     8     9   ar
     9     9    10   ar
    10    10    11   ar
    11    11    12    1
    12    12    13    1
    13    13    14    1
    14    14    15    1
    15    15    16   ar
    16    16    17   ar
    17    17    18   ar
    18    18    19    1
    19    19    20    1
    20    19    21    1
    21    19    22    1
    22    22    23    2
    23    22    24    1
    24    22    25    1
    25    18    26   ar
    26    26    27   ar
    27    13    28    1
    28    28    29   ar
    29    29    30   ar
    30    30    31   ar
    31    31    32    1
    32    31    33   ar
    33    33    34    1
    34    33    35   ar
    35    13    36    1
    36    36    37   ar
    37    37    38   ar
    38    38    39   ar
    39    39    40   ar
    40    40    41   ar
    41    41    42   ar
    42    42    43   ar
    43    43    44   ar
    44    11    45   ar
    45    45    46   ar
    46    46     8   ar
    47    27    15   ar
    48    35    28   ar
    49    44    36   ar
    50    44    39   ar
    51     3    47    1
    52     4    48    1
    53     9    49    1
    54    10    50    1
    55    12    51    1
    56    12    52    1
    57    14    53    1
    58    14    54    1
    59    16    55    1
    60    17    56    1
    61    24    57    1
    62    25    58    1
    63    26    59    1
    64    27    60    1
    65    29    61    1
    66    30    62    1
    67    35    63    1
    68    40    64    1
    69    41    65    1
    70    42    66    1
    71    43    67    1
    72    45    68    1
    73    46    69    1
