@<TRIPOS>MOLECULE
*****
 105 111 0 0 0
SMALL
GASTEIGER

@<TRIPOS>ATOM
      1 C           8.5261   -3.1552    1.1047 C.1     1  UNL1       -0.1139
      2 C           7.5948   -2.7773    0.6847 C.1     1  UNL1       -0.0696
      3 C           6.3465   -2.2566    0.0956 C.ar    1  UNL1        0.0271
      4 C           5.4170   -2.9016   -0.5763 C.ar    1  UNL1       -0.0250
      5 C           4.5623   -2.2518   -1.5052 C.ar    1  UNL1        0.0354
      6 N           3.5305   -2.9091   -2.2089 N.pl3   1  UNL1       -0.2835
      7 C           2.4227   -1.9760   -2.5019 C.ar    1  UNL1        0.2226
      8 N           2.2491   -1.4188   -3.7192 N.ar    1  UNL1       -0.2225
      9 C           1.2533   -0.4406   -3.9261 C.ar    1  UNL1        0.0362
     10 C           0.4936   -0.0765   -2.8508 C.ar    1  UNL1        0.0186
     11 C           0.6444   -0.6626   -1.5212 C.ar    1  UNL1        0.2249
     12 O          -0.0366   -0.4157   -0.4742 O.3     1  UNL1       -0.4373
     13 C          -0.8885    0.1348    0.3020 C.ar    1  UNL1        0.1381
     14 C          -1.6915    1.2446    0.2483 C.ar    1  UNL1       -0.0169
     15 C          -2.6647    1.7158    1.1579 C.ar    1  UNL1       -0.0363
     16 C          -2.7714    0.7997    2.3270 C.ar    1  UNL1        0.0427
     17 N          -4.0176    0.9282    3.0658 N.am    1  UNL1       -0.2686
     18 C          -5.1764    0.9529    2.4005 C.2     1  UNL1        0.3092
     19 O          -4.8343    0.9366    0.9664 O.2     1  UNL1       -0.2521
     20 N          -6.5224    0.9816    2.4532 N.am    1  UNL1       -0.2538
     21 C          -7.5697    1.0011    1.5481 C.ar    1  UNL1        0.1299
     22 C          -8.8341    1.4713    2.0781 C.ar    1  UNL1        0.0021
     23 C          -9.7504    1.3799    1.0656 C.ar    1  UNL1        0.0706
     24 C         -11.2120    1.5735    1.1810 C.3     1  UNL1        0.0063
     25 C         -11.5241    3.0378    1.3008 C.3     1  UNL1       -0.0546
     26 C         -11.6620    0.8525    2.4811 C.3     1  UNL1       -0.0546
     27 C         -12.0055    0.9847    0.0559 C.3     1  UNL1       -0.0546
     28 N          -9.0939    0.9212    0.0519 N.ar    1  UNL1       -0.1691
     29 N          -7.7610    0.6715    0.3217 N.ar    1  UNL1       -0.2181
     30 C          -7.0805   -0.0201   -0.7357 C.ar    1  UNL1        0.0674
     31 C          -6.0211    0.5989   -1.5360 C.ar    1  UNL1       -0.0359
     32 C          -5.6613   -0.1762   -2.7312 C.ar    1  UNL1       -0.0568
     33 C          -6.3144   -1.3378   -2.9585 C.ar    1  UNL1       -0.0503
     34 C          -6.1184   -1.8593   -4.4390 C.3     1  UNL1       -0.0397
     35 C          -7.2393   -1.9262   -2.2635 C.ar    1  UNL1       -0.0568
     36 C          -7.5717   -1.1226   -1.0898 C.ar    1  UNL1       -0.0359
     37 C          -1.9931   -0.2329    2.3999 C.ar    1  UNL1        0.0069
     38 C          -2.0907   -1.0511    3.6184 C.ar    1  UNL1       -0.0521
     39 C          -1.3054   -2.0707    3.7715 C.ar    1  UNL1       -0.0611
     40 C          -0.3535   -2.4614    2.8340 C.ar    1  UNL1       -0.0611
     41 C          -0.2277   -1.7497    1.6897 C.ar    1  UNL1       -0.0505
     42 C          -1.0851   -0.6256    1.5161 C.ar    1  UNL1        0.0262
     43 N           1.6622   -1.5818   -1.5926 N.ar    1  UNL1       -0.1789
     44 C           4.7251   -0.8633   -1.7590 C.ar    1  UNL1       -0.0283
     45 C           5.6602   -0.1932   -1.0864 C.ar    1  UNL1        0.0396
     46 C           6.1694    1.2236   -1.5095 C.2     1  UNL1        0.2444
     47 O           5.5106    2.0171   -2.0846 O.2     1  UNL1       -0.2702
     48 N           7.5291    1.3816   -1.1545 N.am    1  UNL1       -0.3075
     49 C           8.5498    2.3692   -1.2904 C.3     1  UNL1        0.0333
     50 C           9.4421    2.0466   -2.4925 C.3     1  UNL1       -0.0454
     51 C           9.3898    2.1501    0.0006 C.3     1  UNL1        0.0172
     52 N           9.7856    0.8728    0.2863 N.3     1  UNL1       -0.2963
     53 C          10.6059   -0.0288   -0.2965 C.3     1  UNL1        0.0225
     54 C          11.9397   -0.2321    0.4637 C.3     1  UNL1        0.0604
     55 O          11.8223    0.0720    1.7753 O.3     1  UNL1       -0.3772
     56 C          10.6051   -0.2470    2.3011 C.3     1  UNL1        0.0604
     57 C           9.4279    0.4418    1.6534 C.3     1  UNL1        0.0225
     58 C           6.3972   -0.8504   -0.2062 C.ar    1  UNL1       -0.0341
     59 H           9.6290   -3.5817    1.5869 H       1  UNL1        0.1232
     60 H           5.3307   -3.9650   -0.5016 H       1  UNL1        0.0648
     61 H           3.5331   -3.8207   -2.5594 H       1  UNL1        0.1550
     62 H           1.1137    0.0146   -4.8686 H       1  UNL1        0.0832
     63 H          -0.2737    0.6908   -2.8272 H       1  UNL1        0.0686
     64 H          -1.5406    1.8617   -0.6961 H       1  UNL1        0.0655
     65 H          -3.2445    2.5445    1.1052 H       1  UNL1        0.0637
     66 H          -4.0766    0.9660    4.1124 H       1  UNL1        0.1564
     67 H          -6.7884    0.9873    3.5552 H       1  UNL1        0.1578
     68 H          -9.0512    1.8520    3.0243 H       1  UNL1        0.0671
     69 H         -10.9048    3.4687    2.1728 H       1  UNL1        0.0239
     70 H         -11.2943    3.5728    0.3909 H       1  UNL1        0.0239
     71 H         -12.5969    3.2008    1.5239 H       1  UNL1        0.0239
     72 H         -12.4941    0.1967    2.1938 H       1  UNL1        0.0239
     73 H         -12.0563    1.5828    3.1565 H       1  UNL1        0.0239
     74 H         -10.8152    0.3216    2.9323 H       1  UNL1        0.0239
     75 H         -13.1150    1.1719    0.3746 H       1  UNL1        0.0239
     76 H         -11.8041    1.4275   -0.8991 H       1  UNL1        0.0239
     77 H         -11.8610   -0.1639    0.0629 H       1  UNL1        0.0239
     78 H          -5.6154    1.4939   -1.2934 H       1  UNL1        0.0639
     79 H          -4.8887    0.2045   -3.3464 H       1  UNL1        0.0621
     80 H          -5.1159   -2.1308   -4.5726 H       1  UNL1        0.0278
     81 H          -6.4530   -0.9802   -5.0794 H       1  UNL1        0.0278
     82 H          -6.8679   -2.6557   -4.5972 H       1  UNL1        0.0278
     83 H          -7.7542   -2.8265   -2.4482 H       1  UNL1        0.0621
     84 H          -8.3759   -1.6374   -0.4615 H       1  UNL1        0.0639
     85 H          -2.8777   -0.7471    4.3383 H       1  UNL1        0.0624
     86 H          -1.3385   -2.7260    4.6521 H       1  UNL1        0.0618
     87 H           0.2929   -3.2707    3.0482 H       1  UNL1        0.0618
     88 H           0.4690   -1.9792    0.9376 H       1  UNL1        0.0625
     89 H           4.1321   -0.3748   -2.4879 H       1  UNL1        0.0644
     90 H           7.9659    0.4901   -0.6530 H       1  UNL1        0.1493
     91 H           8.2550    3.3738   -1.3281 H       1  UNL1        0.0508
     92 H           8.8634    2.5756   -3.3503 H       1  UNL1        0.0248
     93 H          10.4129    2.5248   -2.4886 H       1  UNL1        0.0248
     94 H           9.3805    0.9946   -2.7810 H       1  UNL1        0.0248
     95 H          10.2561    2.8450   -0.0923 H       1  UNL1        0.0445
     96 H           8.6781    2.5425    0.7986 H       1  UNL1        0.0445
     97 H          10.0757   -1.0712   -0.2131 H       1  UNL1        0.0449
     98 H          10.8628    0.0232   -1.3574 H       1  UNL1        0.0449
     99 H          12.6729    0.3936   -0.1319 H       1  UNL1        0.0572
    100 H          12.2121   -1.3028    0.3310 H       1  UNL1        0.0572
    101 H          10.5810    0.0470    3.3773 H       1  UNL1        0.0572
    102 H          10.4505   -1.3637    2.3564 H       1  UNL1        0.0572
    103 H           9.1491    1.2586    2.2871 H       1  UNL1        0.0449
    104 H           8.6587   -0.3636    1.5650 H       1  UNL1        0.0449
    105 H           7.0450   -0.2750    0.4606 H       1  UNL1        0.0637
@<TRIPOS>BOND
     1     1     2    3
     2     2     3    1
     3     3     4   ar
     4     4     5   ar
     5     5     6    1
     6     6     7    1
     7     7     8   ar
     8     8     9   ar
     9     9    10   ar
    10    10    11   ar
    11    11    12    1
    12    12    13    1
    13    13    14   ar
    14    14    15   ar
    15    15    16   ar
    16    16    17    1
    17    17    18   am
    18    18    19    2
    19    18    20   am
    20    20    21    1
    21    21    22   ar
    22    22    23   ar
    23    23    24    1
    24    24    25    1
    25    24    26    1
    26    24    27    1
    27    23    28   ar
    28    28    29   ar
    29    29    30    1
    30    30    31   ar
    31    31    32   ar
    32    32    33   ar
    33    33    34    1
    34    33    35   ar
    35    35    36   ar
    36    16    37   ar
    37    37    38   ar
    38    38    39   ar
    39    39    40   ar
    40    40    41   ar
    41    41    42   ar
    42    11    43   ar
    43     5    44   ar
    44    44    45   ar
    45    45    46    1
    46    46    47    2
    47    46    48   am
    48    48    49    1
    49    49    50    1
    50    49    51    1
    51    51    52    1
    52    52    53    1
    53    53    54    1
    54    54    55    1
    55    55    56    1
    56    56    57    1
    57    45    58   ar
    58    58     3   ar
    59    43     7   ar
    60    57    52    1
    61    42    13   ar
    62    29    21   ar
    63    36    30   ar
    64    42    37   ar
    65     1    59    1
    66     4    60    1
    67     6    61    1
    68     9    62    1
    69    10    63    1
    70    14    64    1
    71    15    65    1
    72    17    66    1
    73    20    67    1
    74    22    68    1
    75    25    69    1
    76    25    70    1
    77    25    71    1
    78    26    72    1
    79    26    73    1
    80    26    74    1
    81    27    75    1
    82    27    76    1
    83    27    77    1
    84    31    78    1
    85    32    79    1
    86    34    80    1
    87    34    81    1
    88    34    82    1
    89    35    83    1
    90    36    84    1
    91    38    85    1
    92    39    86    1
    93    40    87    1
    94    41    88    1
    95    44    89    1
    96    48    90    1
    97    49    91    1
    98    50    92    1
    99    50    93    1
   100    50    94    1
   101    51    95    1
   102    51    96    1
   103    53    97    1
   104    53    98    1
   105    54    99    1
   106    54   100    1
   107    56   101    1
   108    56   102    1
   109    57   103    1
   110    57   104    1
   111    58   105    1
