@<TRIPOS>MOLECULE
*****
 49 52 0 0 0
SMALL
GASTEIGER

@<TRIPOS>ATOM
      1 O           4.5048   -1.2199    0.8772 O.2     1  UNL1       -0.2450
      2 C           5.5996   -0.6341    0.8673 C.2     1  UNL1        0.3402
      3 O           6.7409   -1.4068    1.0183 O.3     1  UNL1       -0.4770
      4 C           5.7602    0.8000    0.7086 C.ar    1  UNL1        0.1012
      5 C           7.0222    1.3650    0.7098 C.ar    1  UNL1        0.0657
      6 N           7.1544    2.6947    0.5617 N.ar    1  UNL1       -0.1568
      7 N           6.0695    3.4597    0.4148 N.ar    1  UNL1       -0.1558
      8 C           4.8333    2.9290    0.4111 C.ar    1  UNL1        0.0720
      9 C           4.6338    1.5740    0.5585 C.ar    1  UNL1        0.0702
     10 N           3.3738    0.9325    0.5665 N.am    1  UNL1       -0.2671
     11 C           2.7366    0.4388   -0.6135 C.2     1  UNL1        0.3065
     12 O           3.3592    0.6024   -1.6903 O.2     1  UNL1       -0.2523
     13 N           1.4741   -0.2022   -0.5944 N.am    1  UNL1       -0.2848
     14 C           0.6657   -0.4456    0.5892 C.3     1  UNL1        0.0193
     15 C          -0.3719   -1.4343    0.1858 C.3     1  UNL1       -0.0203
     16 C          -1.7504   -1.1182    0.7836 C.3     1  UNL1       -0.0416
     17 C          -2.6086   -0.8478   -0.4311 C.3     1  UNL1       -0.0147
     18 C          -3.7983   -0.0535   -0.1961 C.ar    1  UNL1       -0.0326
     19 C          -3.7561    1.3440   -0.1998 C.ar    1  UNL1       -0.0578
     20 C          -4.8481    2.1267    0.0204 C.ar    1  UNL1       -0.0615
     21 C          -6.0699    1.5351    0.2616 C.ar    1  UNL1       -0.0612
     22 C          -6.1421    0.1793    0.2712 C.ar    1  UNL1       -0.0498
     23 C          -5.0229   -0.6323    0.0455 C.ar    1  UNL1        0.0582
     24 C          -5.2279   -2.0936    0.0764 C.3     1  UNL1        0.4177
     25 F          -4.8916   -2.6927   -1.1250 F       1  UNL1       -0.1659
     26 F          -6.5934   -2.3727    0.2282 F       1  UNL1       -0.1659
     27 F          -4.5965   -2.7406    1.0956 F       1  UNL1       -0.1659
     28 C          -1.5821   -0.1304   -1.3174 C.3     1  UNL1       -0.0416
     29 C          -0.5037   -1.2247   -1.3045 C.3     1  UNL1       -0.0203
     30 C           0.8197   -0.7050   -1.7836 C.3     1  UNL1        0.0193
     31 H           6.7608   -2.4144    0.9652 H       1  UNL1        0.2954
     32 H           7.9251    0.7815    0.8258 H       1  UNL1        0.0857
     33 H           3.9773    3.5734    0.2904 H       1  UNL1        0.0867
     34 H           2.8566    0.7971    1.4647 H       1  UNL1        0.1564
     35 H           0.2609    0.4923    1.0166 H       1  UNL1        0.0468
     36 H           1.3571   -0.9611    1.3167 H       1  UNL1        0.0468
     37 H          -0.0893   -2.4852    0.3936 H       1  UNL1        0.0319
     38 H          -2.0484   -1.9762    1.3812 H       1  UNL1        0.0274
     39 H          -1.6025   -0.1932    1.3861 H       1  UNL1        0.0274
     40 H          -2.7873   -1.8348   -0.9081 H       1  UNL1        0.0349
     41 H          -2.8183    1.8164   -0.3848 H       1  UNL1        0.0620
     42 H          -4.8220    3.2099    0.0190 H       1  UNL1        0.0618
     43 H          -6.9628    2.1160    0.4414 H       1  UNL1        0.0618
     44 H          -7.1196   -0.2789    0.4643 H       1  UNL1        0.0623
     45 H          -1.9556    0.0780   -2.3118 H       1  UNL1        0.0274
     46 H          -1.1504    0.7126   -0.7688 H       1  UNL1        0.0274
     47 H          -0.8404   -2.1328   -1.8245 H       1  UNL1        0.0319
     48 H           1.4146   -1.5004   -2.2888 H       1  UNL1        0.0468
     49 H           0.6598    0.1727   -2.4737 H       1  UNL1        0.0468
@<TRIPOS>BOND
     1     1     2    2
     2     2     3    1
     3     2     4    1
     4     4     5   ar
     5     5     6   ar
     6     6     7   ar
     7     7     8   ar
     8     8     9   ar
     9     9    10    1
    10    10    11   am
    11    11    12    2
    12    11    13   am
    13    13    14    1
    14    14    15    1
    15    15    16    1
    16    16    17    1
    17    17    18    1
    18    18    19   ar
    19    19    20   ar
    20    20    21   ar
    21    21    22   ar
    22    22    23   ar
    23    23    24    1
    24    24    25    1
    25    24    26    1
    26    24    27    1
    27    17    28    1
    28    28    29    1
    29    29    30    1
    30     9     4   ar
    31    30    13    1
    32    29    15    1
    33    23    18   ar
    34     3    31    1
    35     5    32    1
    36     8    33    1
    37    10    34    1
    38    14    35    1
    39    14    36    1
    40    15    37    1
    41    16    38    1
    42    16    39    1
    43    17    40    1
    44    19    41    1
    45    20    42    1
    46    21    43    1
    47    22    44    1
    48    28    45    1
    49    28    46    1
    50    29    47    1
    51    30    48    1
    52    30    49    1
