@<TRIPOS>MOLECULE
*****
 42 44 0 0 0
SMALL
GASTEIGER

@<TRIPOS>ATOM
      1 C          -6.5923   -0.9124    1.1407 C.3     1  UNL1        0.0016
      2 N          -5.4795   -0.2806    0.4309 N.am    1  UNL1       -0.3007
      3 C          -4.9123   -0.9186   -0.6989 C.2     1  UNL1        0.3251
      4 O          -5.4111   -2.0221   -1.0396 O.2     1  UNL1       -0.2505
      5 N          -3.8308   -0.3593   -1.4306 N.am    1  UNL1       -0.1635
      6 O          -3.3255   -1.0116   -2.5267 O.3     1  UNL1       -0.2909
      7 C          -3.1782    0.8887   -1.1038 C.3     1  UNL1        0.0676
      8 C          -2.0201    0.6901   -0.1765 C.2     1  UNL1       -0.0124
      9 C          -0.8062    1.0587   -0.5673 C.2     1  UNL1       -0.0470
     10 C           0.3333    0.8781    0.3072 C.ar    1  UNL1        0.0203
     11 C           1.6167    1.2469   -0.0527 C.ar    1  UNL1       -0.0087
     12 C           2.6981    1.0733    0.7835 C.ar    1  UNL1        0.1292
     13 O           3.9708    1.4583    0.3812 O.3     1  UNL1       -0.4560
     14 C           4.7812    0.5356   -0.2880 C.ar    1  UNL1        0.1286
     15 C           4.3164   -0.7398   -0.5423 C.ar    1  UNL1       -0.0166
     16 C           5.1480   -1.6064   -1.2007 C.ar    1  UNL1       -0.0230
     17 C           6.4173   -1.2620   -1.6161 C.ar    1  UNL1        0.1236
     18 F           7.2302   -2.1506   -2.2743 F       1  UNL1       -0.2055
     19 C           6.8732    0.0122   -1.3584 C.ar    1  UNL1       -0.0230
     20 C           6.0546    0.9024   -0.6972 C.ar    1  UNL1       -0.0166
     21 C           2.5086    0.5099    2.0338 C.ar    1  UNL1       -0.0158
     22 C           1.2362    0.1417    2.3965 C.ar    1  UNL1       -0.0159
     23 C           0.1337    0.3170    1.5482 C.ar    1  UNL1        0.1283
     24 O          -1.1292   -0.0537    1.9203 O.3     1  UNL1       -0.4870
     25 C          -2.2900    0.0942    1.1435 C.3     1  UNL1        0.1126
     26 H          -6.3895   -0.9487    2.2270 H       1  UNL1        0.0426
     27 H          -7.4928   -0.2812    1.0011 H       1  UNL1        0.0426
     28 H          -6.8163   -1.8965    0.7127 H       1  UNL1        0.0426
     29 H          -5.1189    0.6383    0.7675 H       1  UNL1        0.1500
     30 H          -3.8368   -0.6348   -3.2997 H       1  UNL1        0.2417
     31 H          -2.8296    1.3888   -2.0265 H       1  UNL1        0.0537
     32 H          -3.9302    1.5557   -0.6305 H       1  UNL1        0.0537
     33 H          -0.6842    1.4878   -1.5306 H       1  UNL1        0.0626
     34 H           1.7950    1.6881   -1.0201 H       1  UNL1        0.0661
     35 H           3.3050   -1.0311   -0.2173 H       1  UNL1        0.0655
     36 H           4.7847   -2.6125   -1.4027 H       1  UNL1        0.0647
     37 H           7.8635    0.3103   -1.6721 H       1  UNL1        0.0647
     38 H           6.4268    1.8995   -0.5021 H       1  UNL1        0.0655
     39 H           3.3457    0.3688    2.6969 H       1  UNL1        0.0655
     40 H           1.0123   -0.3068    3.3631 H       1  UNL1        0.0655
     41 H          -2.8175   -0.8804    1.0744 H       1  UNL1        0.0745
     42 H          -2.9604    0.7647    1.7632 H       1  UNL1        0.0745
@<TRIPOS>BOND
     1     1     2    1
     2     2     3   am
     3     3     4    2
     4     3     5   am
     5     5     6    1
     6     5     7    1
     7     7     8    1
     8     8     9    2
     9     9    10    1
    10    10    11   ar
    11    11    12   ar
    12    12    13    1
    13    13    14    1
    14    14    15   ar
    15    15    16   ar
    16    16    17   ar
    17    17    18    1
    18    17    19   ar
    19    19    20   ar
    20    12    21   ar
    21    21    22   ar
    22    22    23   ar
    23    23    24    1
    24    24    25    1
    25    25     8    1
    26    23    10   ar
    27    20    14   ar
    28     1    26    1
    29     1    27    1
    30     1    28    1
    31     2    29    1
    32     6    30    1
    33     7    31    1
    34     7    32    1
    35     9    33    1
    36    11    34    1
    37    15    35    1
    38    16    36    1
    39    19    37    1
    40    20    38    1
    41    21    39    1
    42    22    40    1
    43    25    41    1
    44    25    42    1
