
     RDKit          3D

 76 81  0  0  0  0  0  0  0  0999 V2000
    7.5540    0.7608   -1.4855 C   0  0  0  0  0  0  0  0  0  0  0  0
    7.1978    1.9647   -0.7672 N   0  0  0  0  0  0  0  0  0  0  0  0
    6.6642    1.6670    0.5309 C   0  0  1  0  0  0  0  0  0  0  0  0
    6.4244    2.9650    1.3019 C   0  0  0  0  0  0  0  0  0  0  0  0
    5.4117    0.8680    0.4972 C   0  0  0  0  0  0  0  0  0  0  0  0
    4.9582    0.5344    1.6431 O   0  0  0  0  0  0  0  0  0  0  0  0
    4.7427    0.4887   -0.6783 N   0  0  0  0  0  0  0  0  0  0  0  0
    3.5571   -0.2684   -0.5501 C   0  0  0  0  0  0  0  0  0  0  0  0
    3.4801   -1.6436   -0.5388 C   0  0  0  0  0  0  0  0  0  0  0  0
    2.2721   -2.2773   -0.3866 C   0  0  0  0  0  0  0  0  0  0  0  0
    1.1390   -1.5263   -0.2456 C   0  0  0  0  0  0  0  0  0  0  0  0
   -0.1845   -2.1079   -0.0649 C   0  0  0  0  0  0  0  0  0  0  0  0
   -0.8396   -2.8640   -0.9961 C   0  0  0  0  0  0  0  0  0  0  0  0
   -0.4219   -3.2472   -2.3401 C   0  0  0  0  0  0  0  0  0  0  0  0
   -0.2727   -2.3086   -3.3021 C   0  0  0  0  0  0  0  0  0  0  0  0
    0.1177   -2.6579   -4.5741 C   0  0  0  0  0  0  0  0  0  0  0  0
    0.3685   -3.9948   -4.8957 C   0  0  0  0  0  0  0  0  0  0  0  0
    0.2095   -4.8891   -3.9172 N   0  0  0  0  0  0  0  0  0  0  0  0
   -0.1702   -4.5815   -2.6667 C   0  0  0  0  0  0  0  0  0  0  0  0
   -0.3269   -5.5310   -1.6710 O   0  0  0  0  0  0  0  0  0  0  0  0
   -0.1134   -6.9029   -1.8319 C   0  0  0  0  0  0  0  0  0  0  0  0
   -2.0289   -3.2185   -0.4253 N   0  0  0  0  0  0  0  0  0  0  0  0
   -2.1034   -2.6980    0.8150 C   0  0  0  0  0  0  0  0  0  0  0  0
   -3.0555   -2.7244    1.8426 C   0  0  0  0  0  0  0  0  0  0  0  0
   -2.8503   -2.0809    3.0384 C   0  0  0  0  0  0  0  0  0  0  0  0
   -3.8820   -2.1195    4.1361 C   0  0  0  0  0  0  0  0  0  0  0  0
   -1.6676   -1.3941    3.2125 C   0  0  0  0  0  0  0  0  0  0  0  0
   -0.7163   -1.3643    2.1925 C   0  0  0  0  0  0  0  0  0  0  0  0
   -0.9701   -2.0116    1.0445 N   0  0  0  0  0  0  0  0  0  0  0  0
    1.2203   -0.1605   -0.2585 C   0  0  0  0  0  0  0  0  0  0  0  0
    0.0377    0.6968   -0.1075 C   0  0  0  0  0  0  0  0  0  0  0  0
   -0.9310    1.3783    0.0260 C   0  0  0  0  0  0  0  0  0  0  0  0
   -2.1190    2.2038    0.2127 C   0  0  0  0  0  0  0  0  0  0  0  0
   -3.3502    1.7371   -0.1953 C   0  0  0  0  0  0  0  0  0  0  0  0
   -4.4990    2.4841   -0.0624 C   0  0  0  0  0  0  0  0  0  0  0  0
   -4.4437    3.7624    0.5023 C   0  0  0  0  0  0  0  0  0  0  0  0
   -3.1943    4.2092    0.9045 C   0  0  0  0  0  0  0  0  0  0  0  0
   -3.0874    5.4762    1.4789 C   0  0  0  0  0  0  0  0  0  0  0  0
   -4.2392    6.2086    1.6113 C   0  0  0  0  0  0  0  0  0  0  0  0
   -5.4633    5.7343    1.2012 C   0  0  0  0  0  0  0  0  0  0  0  0
   -6.4880    6.4392    1.3425 O   0  0  0  0  0  0  0  0  0  0  0  0
   -5.5488    4.4953    0.6426 N   0  0  0  0  0  0  0  0  0  0  0  0
   -6.8523    4.0128    0.2223 C   0  0  0  0  0  0  0  0  0  0  0  0
   -2.0444    3.4504    0.7663 C   0  0  0  0  0  0  0  0  0  0  0  0
    2.4212    0.4218   -0.4097 N   0  0  0  0  0  0  0  0  0  0  0  0
    8.6768    0.6329   -1.4535 H   0  0  0  0  0  0  0  0  0  0  0  0
    7.1840   -0.1616   -0.9652 H   0  0  0  0  0  0  0  0  0  0  0  0
    7.2637    0.8006   -2.5587 H   0  0  0  0  0  0  0  0  0  0  0  0
    8.0653    2.5291   -0.6471 H   0  0  0  0  0  0  0  0  0  0  0  0
    7.4074    1.0880    1.1025 H   0  0  0  0  0  0  0  0  0  0  0  0
    7.2101    3.7104    1.1074 H   0  0  0  0  0  0  0  0  0  0  0  0
    5.4259    3.4049    1.0732 H   0  0  0  0  0  0  0  0  0  0  0  0
    6.4046    2.7628    2.3902 H   0  0  0  0  0  0  0  0  0  0  0  0
    5.0930    0.7534   -1.6010 H   0  0  0  0  0  0  0  0  0  0  0  0
    4.4059   -2.1850   -0.6545 H   0  0  0  0  0  0  0  0  0  0  0  0
    2.2068   -3.3463   -0.3781 H   0  0  0  0  0  0  0  0  0  0  0  0
   -0.4774   -1.2666   -3.0227 H   0  0  0  0  0  0  0  0  0  0  0  0
    0.2364   -1.9201   -5.3275 H   0  0  0  0  0  0  0  0  0  0  0  0
    0.6801   -4.2619   -5.9197 H   0  0  0  0  0  0  0  0  0  0  0  0
    0.1065   -7.0755   -2.8946 H   0  0  0  0  0  0  0  0  0  0  0  0
    0.6954   -7.3157   -1.2089 H   0  0  0  0  0  0  0  0  0  0  0  0
   -1.0494   -7.4097   -1.4788 H   0  0  0  0  0  0  0  0  0  0  0  0
   -3.9837   -3.2743    1.6809 H   0  0  0  0  0  0  0  0  0  0  0  0
   -4.5042   -1.2223    4.1699 H   0  0  0  0  0  0  0  0  0  0  0  0
   -4.5351   -3.0125    3.9930 H   0  0  0  0  0  0  0  0  0  0  0  0
   -3.3244   -2.3191    5.0830 H   0  0  0  0  0  0  0  0  0  0  0  0
   -1.5184   -0.8917    4.1594 H   0  0  0  0  0  0  0  0  0  0  0  0
    0.1932   -0.8292    2.3478 H   0  0  0  0  0  0  0  0  0  0  0  0
   -3.3661    0.7405   -0.6318 H   0  0  0  0  0  0  0  0  0  0  0  0
   -5.4578    2.1099   -0.3811 H   0  0  0  0  0  0  0  0  0  0  0  0
   -2.1029    5.8385    1.7985 H   0  0  0  0  0  0  0  0  0  0  0  0
   -4.2025    7.2088    2.0585 H   0  0  0  0  0  0  0  0  0  0  0  0
   -7.2659    3.2576    0.9559 H   0  0  0  0  0  0  0  0  0  0  0  0
   -7.5659    4.8585    0.1197 H   0  0  0  0  0  0  0  0  0  0  0  0
   -6.7439    3.5938   -0.7987 H   0  0  0  0  0  0  0  0  0  0  0  0
   -1.0698    3.8153    1.0869 H   0  0  0  0  0  0  0  0  0  0  0  0
  1  2  1  0
  2  3  1  0
  3  4  1  0
  3  5  1  0
  5  6  2  0
  5  7  1  0
  7  8  1  0
  8  9  2  0
  9 10  1  0
 10 11  2  0
 11 12  1  0
 12 13  2  0
 13 14  1  0
 14 15  2  0
 15 16  1  0
 16 17  2  0
 17 18  1  0
 18 19  2  0
 19 20  1  0
 20 21  1  0
 13 22  1  0
 22 23  2  0
 23 24  1  0
 24 25  2  0
 25 26  1  0
 25 27  1  0
 27 28  2  0
 28 29  1  0
 11 30  1  0
 30 31  1  0
 31 32  3  0
 32 33  1  0
 33 34  2  0
 34 35  1  0
 35 36  2  0
 36 37  1  0
 37 38  1  0
 38 39  2  0
 39 40  1  0
 40 41  2  0
 40 42  1  0
 42 43  1  0
 37 44  2  0
 30 45  2  0
 45  8  1  0
 29 12  1  0
 44 33  1  0
 19 14  1  0
 29 23  1  0
 42 36  1  0
  1 46  1  0
  1 47  1  0
  1 48  1  0
  2 49  1  0
  3 50  1  1
  4 51  1  0
  4 52  1  0
  4 53  1  0
  7 54  1  0
  9 55  1  0
 10 56  1  0
 15 57  1  0
 16 58  1  0
 17 59  1  0
 21 60  1  0
 21 61  1  0
 21 62  1  0
 24 63  1  0
 26 64  1  0
 26 65  1  0
 26 66  1  0
 27 67  1  0
 28 68  1  0
 34 69  1  0
 35 70  1  0
 38 71  1  0
 39 72  1  0
 43 73  1  0
 43 74  1  0
 43 75  1  0
 44 76  1  0
M  END
$$$$
