@<TRIPOS>MOLECULE
*****
 76 81 0 0 0
SMALL
GASTEIGER

@<TRIPOS>ATOM
      1 C           7.5540    0.7608   -1.4855 C.3     1  UNL1       -0.0151
      2 N           7.1978    1.9647   -0.7672 N.3     1  UNL1       -0.3089
      3 C           6.6642    1.6670    0.5309 C.3     1  UNL1        0.0820
      4 C           6.4244    2.9650    1.3019 C.3     1  UNL1       -0.0411
      5 C           5.4117    0.8680    0.4972 C.2     1  UNL1        0.2350
      6 O           4.9582    0.5344    1.6431 O.2     1  UNL1       -0.2737
      7 N           4.7427    0.4887   -0.6783 N.am    1  UNL1       -0.2691
      8 C           3.5571   -0.2684   -0.5501 C.ar    1  UNL1        0.1263
      9 C           3.4801   -1.6436   -0.5388 C.ar    1  UNL1       -0.0208
     10 C           2.2721   -2.2773   -0.3866 C.ar    1  UNL1       -0.0466
     11 C           1.1390   -1.5263   -0.2456 C.ar    1  UNL1        0.0349
     12 C          -0.1845   -2.1079   -0.0649 C.ar    1  UNL1        0.0838
     13 C          -0.8396   -2.8640   -0.9961 C.ar    1  UNL1        0.1028
     14 C          -0.4219   -3.2472   -2.3401 C.ar    1  UNL1        0.0639
     15 C          -0.2727   -2.3086   -3.3021 C.ar    1  UNL1       -0.0460
     16 C           0.1177   -2.6579   -4.5741 C.ar    1  UNL1       -0.0427
     17 C           0.3685   -3.9948   -4.8957 C.ar    1  UNL1        0.0314
     18 N           0.2095   -4.8891   -3.9172 N.ar    1  UNL1       -0.2208
     19 C          -0.1702   -4.5815   -2.6667 C.ar    1  UNL1        0.2239
     20 O          -0.3269   -5.5310   -1.6710 O.3     1  UNL1       -0.4792
     21 C          -0.1134   -6.9029   -1.8319 C.3     1  UNL1        0.0804
     22 N          -2.0289   -3.2185   -0.4253 N.ar    1  UNL1       -0.2270
     23 C          -2.1034   -2.6980    0.8150 C.ar    1  UNL1        0.1390
     24 C          -3.0555   -2.7244    1.8426 C.ar    1  UNL1       -0.0158
     25 C          -2.8503   -2.0809    3.0384 C.ar    1  UNL1       -0.0456
     26 C          -3.8820   -2.1195    4.1361 C.3     1  UNL1       -0.0395
     27 C          -1.6676   -1.3941    3.2125 C.ar    1  UNL1       -0.0421
     28 C          -0.7163   -1.3643    2.1925 C.ar    1  UNL1        0.0120
     29 N          -0.9701   -2.0116    1.0445 N.ar    1  UNL1       -0.2986
     30 C           1.2203   -0.1605   -0.2585 C.ar    1  UNL1        0.1250
     31 C           0.0377    0.6968   -0.1075 C.1     1  UNL1       -0.0404
     32 C          -0.9310    1.3783    0.0260 C.1     1  UNL1       -0.0595
     33 C          -2.1190    2.2038    0.2127 C.ar    1  UNL1        0.0260
     34 C          -3.3502    1.7371   -0.1953 C.ar    1  UNL1       -0.0443
     35 C          -4.4990    2.4841   -0.0624 C.ar    1  UNL1       -0.0364
     36 C          -4.4437    3.7624    0.5023 C.ar    1  UNL1        0.0518
     37 C          -3.1943    4.2092    0.9045 C.ar    1  UNL1       -0.0001
     38 C          -3.0874    5.4762    1.4789 C.ar    1  UNL1       -0.0475
     39 C          -4.2392    6.2086    1.6113 C.ar    1  UNL1        0.0036
     40 C          -5.4633    5.7343    1.2012 C.ar    1  UNL1        0.2515
     41 O          -6.4880    6.4392    1.3425 O.2     1  UNL1       -0.2677
     42 N          -5.5488    4.4953    0.6426 N.ar    1  UNL1       -0.3112
     43 C          -6.8523    4.0128    0.2223 C.3     1  UNL1        0.0153
     44 C          -2.0444    3.4504    0.7663 C.ar    1  UNL1       -0.0372
     45 N           2.4212    0.4218   -0.4097 N.ar    1  UNL1       -0.2229
     46 H           8.6768    0.6329   -1.4535 H       1  UNL1        0.0388
     47 H           7.1840   -0.1616   -0.9652 H       1  UNL1        0.0388
     48 H           7.2637    0.8006   -2.5587 H       1  UNL1        0.0388
     49 H           8.0653    2.5291   -0.6471 H       1  UNL1        0.1223
     50 H           7.4074    1.0880    1.1025 H       1  UNL1        0.0554
     51 H           7.2101    3.7104    1.1074 H       1  UNL1        0.0249
     52 H           5.4259    3.4049    1.0732 H       1  UNL1        0.0249
     53 H           6.4046    2.7628    2.3902 H       1  UNL1        0.0249
     54 H           5.0930    0.7534   -1.6010 H       1  UNL1        0.1563
     55 H           4.4059   -2.1850   -0.6545 H       1  UNL1        0.0652
     56 H           2.2068   -3.3463   -0.3781 H       1  UNL1        0.0626
     57 H          -0.4774   -1.2666   -3.0227 H       1  UNL1        0.0626
     58 H           0.2364   -1.9201   -5.3275 H       1  UNL1        0.0633
     59 H           0.6801   -4.2619   -5.9197 H       1  UNL1        0.0831
     60 H           0.1065   -7.0755   -2.8946 H       1  UNL1        0.0660
     61 H           0.6954   -7.3157   -1.2089 H       1  UNL1        0.0660
     62 H          -1.0494   -7.4097   -1.4788 H       1  UNL1        0.0660
     63 H          -3.9837   -3.2743    1.6809 H       1  UNL1        0.0657
     64 H          -4.5042   -1.2223    4.1699 H       1  UNL1        0.0278
     65 H          -4.5351   -3.0125    3.9930 H       1  UNL1        0.0278
     66 H          -3.3244   -2.3191    5.0830 H       1  UNL1        0.0278
     67 H          -1.5184   -0.8917    4.1594 H       1  UNL1        0.0635
     68 H           0.1932   -0.8292    2.3478 H       1  UNL1        0.0813
     69 H          -3.3661    0.7405   -0.6318 H       1  UNL1        0.0630
     70 H          -5.4578    2.1099   -0.3811 H       1  UNL1        0.0639
     71 H          -2.1029    5.8385    1.7985 H       1  UNL1        0.0626
     72 H          -4.2025    7.2088    2.0585 H       1  UNL1        0.0672
     73 H          -7.2659    3.2576    0.9559 H       1  UNL1        0.0457
     74 H          -7.5659    4.8585    0.1197 H       1  UNL1        0.0457
     75 H          -6.7439    3.5938   -0.7987 H       1  UNL1        0.0457
     76 H          -1.0698    3.8153    1.0869 H       1  UNL1        0.0636
@<TRIPOS>BOND
     1     1     2    1
     2     2     3    1
     3     3     4    1
     4     3     5    1
     5     5     6    2
     6     5     7   am
     7     7     8    1
     8     8     9   ar
     9     9    10   ar
    10    10    11   ar
    11    11    12    1
    12    12    13   ar
    13    13    14    1
    14    14    15   ar
    15    15    16   ar
    16    16    17   ar
    17    17    18   ar
    18    18    19   ar
    19    19    20    1
    20    20    21    1
    21    13    22   ar
    22    22    23   ar
    23    23    24   ar
    24    24    25   ar
    25    25    26    1
    26    25    27   ar
    27    27    28   ar
    28    28    29   ar
    29    11    30   ar
    30    30    31    1
    31    31    32    3
    32    32    33    1
    33    33    34   ar
    34    34    35   ar
    35    35    36   ar
    36    36    37   ar
    37    37    38   ar
    38    38    39   ar
    39    39    40   ar
    40    40    41    2
    41    40    42   ar
    42    42    43    1
    43    37    44   ar
    44    30    45   ar
    45    45     8   ar
    46    29    12   ar
    47    44    33   ar
    48    19    14   ar
    49    29    23   ar
    50    42    36   ar
    51     1    46    1
    52     1    47    1
    53     1    48    1
    54     2    49    1
    55     3    50    1
    56     4    51    1
    57     4    52    1
    58     4    53    1
    59     7    54    1
    60     9    55    1
    61    10    56    1
    62    15    57    1
    63    16    58    1
    64    17    59    1
    65    21    60    1
    66    21    61    1
    67    21    62    1
    68    24    63    1
    69    26    64    1
    70    26    65    1
    71    26    66    1
    72    27    67    1
    73    28    68    1
    74    34    69    1
    75    35    70    1
    76    38    71    1
    77    39    72    1
    78    43    73    1
    79    43    74    1
    80    43    75    1
    81    44    76    1
