
     RDKit          3D

 50 50  0  0  0  0  0  0  0  0999 V2000
   -2.7198    2.7190   -0.4593 C   0  0  0  0  0  0  0  0  0  0  0  0
   -3.5682    1.4967   -0.1888 C   0  0  0  0  0  0  0  0  0  0  0  0
   -2.9538    0.3074    0.0080 C   0  0  0  0  0  0  0  0  0  0  0  0
   -1.4993    0.3668   -0.0611 C   0  0  0  0  0  0  0  0  0  0  0  0
   -0.5832   -0.5874    0.1414 C   0  0  0  0  0  0  0  0  0  0  0  0
    0.7730   -0.2548   -0.0009 C   0  0  0  0  0  0  0  0  0  0  0  0
    1.3013   -1.5205    1.2039 C   0  0  0  0  0  0  0  0  0  0  0  0
    1.9299    0.0290   -0.1223 C   0  0  0  0  0  0  0  0  0  0  0  0
    3.2268    0.4549   -0.2994 C   0  0  0  0  0  0  0  0  0  0  0  0
    4.3147   -0.3113    0.0158 C   0  0  0  0  0  0  0  0  0  0  0  0
    5.6805    0.1567   -0.1926 C   0  0  0  0  0  0  0  0  0  0  0  0
    6.0026    1.4548   -0.7654 C   0  0  0  0  0  0  0  0  0  0  0  0
    6.6449   -0.6682    0.1878 C   0  0  0  0  0  0  0  0  0  0  0  0
    8.0496   -0.3774    0.0482 C   0  0  0  0  0  0  0  0  0  0  0  0
    8.4917    0.6602   -0.5028 O   0  0  0  0  0  0  0  0  0  0  0  0
    8.9872   -1.2671    0.5460 O   0  0  0  0  0  0  0  0  0  0  0  0
   -3.7340   -0.9106    0.1342 C   0  0  0  0  0  0  0  0  0  0  0  0
   -3.8637   -1.4357    1.5591 C   0  0  0  0  0  0  0  0  0  0  0  0
   -3.1935   -2.0250   -0.7739 C   0  0  0  0  0  0  0  0  0  0  0  0
   -5.1821   -0.7550   -0.3671 C   0  0  0  0  0  0  0  0  0  0  0  0
   -5.8116    0.4772    0.1630 C   0  0  0  0  0  0  0  0  0  0  0  0
   -5.0014    1.7022    0.0076 C   0  0  0  0  0  0  0  0  0  0  0  0
   -3.3863    3.5669   -0.6275 H   0  0  0  0  0  0  0  0  0  0  0  0
   -1.9708    2.8896    0.3132 H   0  0  0  0  0  0  0  0  0  0  0  0
   -2.1831    2.5434   -1.4268 H   0  0  0  0  0  0  0  0  0  0  0  0
   -1.0174    1.3170   -0.3130 H   0  0  0  0  0  0  0  0  0  0  0  0
   -1.0002   -1.5347    0.3846 H   0  0  0  0  0  0  0  0  0  0  0  0
    1.2220   -2.3123    0.5415 H   0  0  0  0  0  0  0  0  0  0  0  0
    2.1486   -1.0589    1.5937 H   0  0  0  0  0  0  0  0  0  0  0  0
    0.4492   -1.2989    1.8503 H   0  0  0  0  0  0  0  0  0  0  0  0
    1.4279    1.2769   -0.6832 H   0  0  0  0  0  0  0  0  0  0  0  0
    3.5618    1.4207   -0.6850 H   0  0  0  0  0  0  0  0  0  0  0  0
    4.1078   -1.2834    0.4354 H   0  0  0  0  0  0  0  0  0  0  0  0
    5.1865    2.2220   -0.7837 H   0  0  0  0  0  0  0  0  0  0  0  0
    6.8054    1.9573   -0.1136 H   0  0  0  0  0  0  0  0  0  0  0  0
    6.4843    1.4260   -1.7581 H   0  0  0  0  0  0  0  0  0  0  0  0
    6.3587   -1.6560    0.6362 H   0  0  0  0  0  0  0  0  0  0  0  0
    9.8485   -0.9585    1.0257 H   0  0  0  0  0  0  0  0  0  0  0  0
   -4.8431   -1.1547    1.9855 H   0  0  0  0  0  0  0  0  0  0  0  0
   -3.0199   -1.1053    2.1640 H   0  0  0  0  0  0  0  0  0  0  0  0
   -3.8267   -2.5388    1.4780 H   0  0  0  0  0  0  0  0  0  0  0  0
   -4.0183   -2.3428   -1.5008 H   0  0  0  0  0  0  0  0  0  0  0  0
   -2.4261   -1.5483   -1.4384 H   0  0  0  0  0  0  0  0  0  0  0  0
   -2.7720   -2.8887   -0.2126 H   0  0  0  0  0  0  0  0  0  0  0  0
   -5.1689   -0.7637   -1.4947 H   0  0  0  0  0  0  0  0  0  0  0  0
   -5.7433   -1.6255    0.0155 H   0  0  0  0  0  0  0  0  0  0  0  0
   -6.1642    0.3479    1.2016 H   0  0  0  0  0  0  0  0  0  0  0  0
   -6.7532    0.6518   -0.4495 H   0  0  0  0  0  0  0  0  0  0  0  0
   -5.4206    2.4177   -0.7630 H   0  0  0  0  0  0  0  0  0  0  0  0
   -5.1781    2.3213    0.9722 H   0  0  0  0  0  0  0  0  0  0  0  0
  1  2  1  0
  2  3  2  0
  3  4  1  0
  4  5  2  0
  5  6  1  0
  6  7  1  0
  6  8  2  0
  8  9  1  0
  9 10  2  0
 10 11  1  0
 11 12  1  0
 11 13  2  0
 13 14  1  0
 14 15  2  0
 14 16  1  0
  3 17  1  0
 17 18  1  0
 17 19  1  0
 17 20  1  0
 20 21  1  0
 21 22  1  0
 22  2  1  0
  1 23  1  0
  1 24  1  0
  1 25  1  0
  4 26  1  0
  5 27  1  0
  7 28  1  0
  7 29  1  0
  7 30  1  0
  8 31  1  0
  9 32  1  0
 10 33  1  0
 12 34  1  0
 12 35  1  0
 12 36  1  0
 13 37  1  0
 16 38  1  0
 18 39  1  0
 18 40  1  0
 18 41  1  0
 19 42  1  0
 19 43  1  0
 19 44  1  0
 20 45  1  0
 20 46  1  0
 21 47  1  0
 21 48  1  0
 22 49  1  0
 22 50  1  0
M  END
$$$$
