@<TRIPOS>MOLECULE
*****
 50 50 0 0 0
SMALL
GASTEIGER

@<TRIPOS>ATOM
      1 C          -2.7198    2.7190   -0.4593 C.3     1  UNL1       -0.0432
      2 C          -3.5682    1.4967   -0.1888 C.2     1  UNL1       -0.0689
      3 C          -2.9538    0.3074    0.0080 C.2     1  UNL1       -0.0427
      4 C          -1.4993    0.3668   -0.0611 C.2     1  UNL1       -0.0579
      5 C          -0.5832   -0.5874    0.1414 C.2     1  UNL1       -0.0586
      6 C           0.7730   -0.2548   -0.0009 C.2     1  UNL1       -0.0504
      7 C           1.3013   -1.5205    1.2039 C.3     1  UNL1       -0.0397
      8 C           1.9299    0.0290   -0.1223 C.2     1  UNL1       -0.0588
      9 C           3.2268    0.4549   -0.2994 C.2     1  UNL1       -0.0613
     10 C           4.3147   -0.3113    0.0158 C.2     1  UNL1       -0.0586
     11 C           5.6805    0.1567   -0.1926 C.2     1  UNL1       -0.0437
     12 C           6.0026    1.4548   -0.7654 C.3     1  UNL1       -0.0395
     13 C           6.6449   -0.6682    0.1878 C.2     1  UNL1        0.0252
     14 C           8.0496   -0.3774    0.0482 C.2     1  UNL1        0.3298
     15 O           8.4917    0.6602   -0.5028 O.2     1  UNL1       -0.2458
     16 O           8.9872   -1.2671    0.5460 O.3     1  UNL1       -0.4775
     17 C          -3.7340   -0.9106    0.1342 C.3     1  UNL1       -0.0099
     18 C          -3.8637   -1.4357    1.5591 C.3     1  UNL1       -0.0558
     19 C          -3.1935   -2.0250   -0.7739 C.3     1  UNL1       -0.0558
     20 C          -5.1821   -0.7550   -0.3671 C.3     1  UNL1       -0.0436
     21 C          -5.8116    0.4772    0.1630 C.3     1  UNL1       -0.0486
     22 C          -5.0014    1.7022    0.0076 C.3     1  UNL1       -0.0314
     23 H          -3.3863    3.5669   -0.6275 H       1  UNL1        0.0275
     24 H          -1.9708    2.8896    0.3132 H       1  UNL1        0.0275
     25 H          -2.1831    2.5434   -1.4268 H       1  UNL1        0.0275
     26 H          -1.0174    1.3170   -0.3130 H       1  UNL1        0.0621
     27 H          -1.0002   -1.5347    0.3846 H       1  UNL1        0.0620
     28 H           1.2220   -2.3123    0.5415 H       1  UNL1        0.0278
     29 H           2.1486   -1.0589    1.5937 H       1  UNL1        0.0278
     30 H           0.4492   -1.2989    1.8503 H       1  UNL1        0.0278
     31 H           1.4279    1.2769   -0.6832 H       1  UNL1        0.0620
     32 H           3.5618    1.4207   -0.6850 H       1  UNL1        0.0618
     33 H           4.1078   -1.2834    0.4354 H       1  UNL1        0.0620
     34 H           5.1865    2.2220   -0.7837 H       1  UNL1        0.0278
     35 H           6.8054    1.9573   -0.1136 H       1  UNL1        0.0278
     36 H           6.4843    1.4260   -1.7581 H       1  UNL1        0.0278
     37 H           6.3587   -1.6560    0.6362 H       1  UNL1        0.0691
     38 H           9.8485   -0.9585    1.0257 H       1  UNL1        0.2954
     39 H          -4.8431   -1.1547    1.9855 H       1  UNL1        0.0238
     40 H          -3.0199   -1.1053    2.1640 H       1  UNL1        0.0238
     41 H          -3.8267   -2.5388    1.4780 H       1  UNL1        0.0238
     42 H          -4.0183   -2.3428   -1.5008 H       1  UNL1        0.0238
     43 H          -2.4261   -1.5483   -1.4384 H       1  UNL1        0.0238
     44 H          -2.7720   -2.8887   -0.2126 H       1  UNL1        0.0238
     45 H          -5.1689   -0.7637   -1.4947 H       1  UNL1        0.0274
     46 H          -5.7433   -1.6255    0.0155 H       1  UNL1        0.0274
     47 H          -6.1642    0.3479    1.2016 H       1  UNL1        0.0269
     48 H          -6.7532    0.6518   -0.4495 H       1  UNL1        0.0269
     49 H          -5.4206    2.4177   -0.7630 H       1  UNL1        0.0310
     50 H          -5.1781    2.3213    0.9722 H       1  UNL1        0.0310
@<TRIPOS>BOND
     1     1     2    1
     2     2     3    2
     3     3     4    1
     4     4     5    2
     5     5     6    1
     6     6     7    1
     7     6     8    2
     8     8     9    1
     9     9    10    2
    10    10    11    1
    11    11    12    1
    12    11    13    2
    13    13    14    1
    14    14    15    2
    15    14    16    1
    16     3    17    1
    17    17    18    1
    18    17    19    1
    19    17    20    1
    20    20    21    1
    21    21    22    1
    22    22     2    1
    23     1    23    1
    24     1    24    1
    25     1    25    1
    26     4    26    1
    27     5    27    1
    28     7    28    1
    29     7    29    1
    30     7    30    1
    31     8    31    1
    32     9    32    1
    33    10    33    1
    34    12    34    1
    35    12    35    1
    36    12    36    1
    37    13    37    1
    38    16    38    1
    39    18    39    1
    40    18    40    1
    41    18    41    1
    42    19    42    1
    43    19    43    1
    44    19    44    1
    45    20    45    1
    46    20    46    1
    47    21    47    1
    48    21    48    1
    49    22    49    1
    50    22    50    1
