@<TRIPOS>MOLECULE
*****
 72 75 0 0 0
SMALL
GASTEIGER

@<TRIPOS>ATOM
      1 C           7.3192   -0.3769   -1.7120 C.3     1  UNL1       -0.0444
      2 C           7.4435    1.0858   -1.3024 C.3     1  UNL1        0.0317
      3 C           8.8534    1.3152   -0.8528 C.3     1  UNL1       -0.0444
      4 N           6.4641    1.4041   -0.2764 N.ar    1  UNL1       -0.3121
      5 C           5.3705    0.6485   -0.1136 C.ar    1  UNL1        0.0159
      6 C           4.4088    0.9122    0.8519 C.ar    1  UNL1       -0.0015
      7 C           3.2238    0.0479    0.9885 C.ar    1  UNL1       -0.0165
      8 C           2.0386    0.5910    1.4225 C.ar    1  UNL1       -0.0537
      9 C           0.8987   -0.2049    1.5619 C.ar    1  UNL1       -0.0562
     10 C           0.9526   -1.5463    1.2644 C.ar    1  UNL1       -0.0271
     11 C          -0.2482   -2.3974    1.4098 C.3     1  UNL1        0.0515
     12 C          -0.0121   -3.7787    0.7976 C.3     1  UNL1       -0.0421
     13 N          -1.4036   -1.7647    0.8627 N.am    1  UNL1       -0.2605
     14 C          -1.5066   -1.3627   -0.5361 C.3     1  UNL1        0.0224
     15 C          -2.1878   -0.0100   -0.5495 C.3     1  UNL1        0.0076
     16 C          -3.6490   -0.1241   -0.0462 C.3     1  UNL1        0.1440
     17 C          -4.4063   -0.6309   -1.2174 C.3     1  UNL1        0.0199
     18 C          -5.8554   -0.8495   -1.1083 C.3     1  UNL1        0.0645
     19 C          -6.3027   -1.3897   -2.4904 C.3     1  UNL1       -0.0362
     20 C          -6.3467   -1.8091   -0.0918 C.3     1  UNL1       -0.0362
     21 O          -6.5877    0.3464   -0.9816 O.3     1  UNL1       -0.3890
     22 C          -4.0858    1.2337    0.3635 C.ar    1  UNL1       -0.0040
     23 C          -3.3840    2.3415   -0.0555 C.ar    1  UNL1       -0.0548
     24 C          -3.8015    3.5882    0.3650 C.ar    1  UNL1       -0.0614
     25 C          -4.8928    3.7793    1.1883 C.ar    1  UNL1       -0.0617
     26 C          -5.5665    2.6421    1.5843 C.ar    1  UNL1       -0.0614
     27 C          -5.1789    1.3865    1.1856 C.ar    1  UNL1       -0.0548
     28 O          -3.6260   -0.9402    1.0780 O.3     1  UNL1       -0.4387
     29 C          -2.5282   -1.4930    1.6695 C.2     1  UNL1        0.4042
     30 O          -2.5164   -1.7537    2.8961 O.2     1  UNL1       -0.2262
     31 C           2.1367   -2.0737    0.8339 C.ar    1  UNL1       -0.0562
     32 C           3.2826   -1.2854    0.6913 C.ar    1  UNL1       -0.0537
     33 C           4.6133    2.0042    1.6636 C.ar    1  UNL1       -0.0475
     34 C           5.7480    2.8015    1.5064 C.ar    1  UNL1        0.0036
     35 C           6.6590    2.4774    0.5260 C.ar    1  UNL1        0.2515
     36 O           7.6910    3.1611    0.3466 O.2     1  UNL1       -0.2677
     37 H           6.5890   -0.4800   -2.5268 H       1  UNL1        0.0249
     38 H           7.1026   -0.9554   -0.8121 H       1  UNL1        0.0249
     39 H           8.2994   -0.7557   -2.1063 H       1  UNL1        0.0249
     40 H           7.2574    1.7443   -2.1717 H       1  UNL1        0.0523
     41 H           9.5165    0.5663   -1.3379 H       1  UNL1        0.0249
     42 H           8.9481    1.1785    0.2467 H       1  UNL1        0.0249
     43 H           9.2490    2.3110   -1.1822 H       1  UNL1        0.0249
     44 H           5.1945   -0.2252   -0.7538 H       1  UNL1        0.0816
     45 H           1.9672    1.6454    1.6640 H       1  UNL1        0.0624
     46 H          -0.0356    0.2393    1.9081 H       1  UNL1        0.0621
     47 H          -0.4317   -2.5987    2.4899 H       1  UNL1        0.0549
     48 H           0.3873   -3.7101   -0.2160 H       1  UNL1        0.0251
     49 H          -0.9214   -4.4028    0.8946 H       1  UNL1        0.0251
     50 H           0.7606   -4.2698    1.4340 H       1  UNL1        0.0251
     51 H          -0.5280   -1.2339   -0.9990 H       1  UNL1        0.0467
     52 H          -2.0644   -2.1460   -1.0477 H       1  UNL1        0.0467
     53 H          -1.6536    0.6211    0.1833 H       1  UNL1        0.0322
     54 H          -2.1811    0.4179   -1.5588 H       1  UNL1        0.0322
     55 H          -3.9152   -1.5506   -1.6560 H       1  UNL1        0.0335
     56 H          -4.2501    0.1321   -2.0418 H       1  UNL1        0.0335
     57 H          -5.5041   -2.1004   -2.7874 H       1  UNL1        0.0257
     58 H          -7.2238   -2.0102   -2.3677 H       1  UNL1        0.0257
     59 H          -6.4167   -0.5815   -3.2137 H       1  UNL1        0.0257
     60 H          -6.5225   -2.7924   -0.5772 H       1  UNL1        0.0257
     61 H          -5.6357   -2.0383    0.7362 H       1  UNL1        0.0257
     62 H          -7.3562   -1.5231    0.3285 H       1  UNL1        0.0257
     63 H          -6.6575    0.8000   -1.8794 H       1  UNL1        0.2101
     64 H          -2.5098    2.2307   -0.7122 H       1  UNL1        0.0622
     65 H          -3.2587    4.4662    0.0429 H       1  UNL1        0.0618
     66 H          -5.2164    4.7507    1.5141 H       1  UNL1        0.0618
     67 H          -6.4426    2.7531    2.2415 H       1  UNL1        0.0618
     68 H          -5.7353    0.5044    1.5391 H       1  UNL1        0.0622
     69 H           2.2253   -3.1045    0.5925 H       1  UNL1        0.0621
     70 H           4.2023   -1.7303    0.3496 H       1  UNL1        0.0624
     71 H           3.8650    2.2210    2.4252 H       1  UNL1        0.0626
     72 H           5.8783    3.6511    2.1598 H       1  UNL1        0.0672
@<TRIPOS>BOND
     1     1     2    1
     2     2     3    1
     3     2     4    1
     4     4     5   ar
     5     5     6   ar
     6     6     7    1
     7     7     8   ar
     8     8     9   ar
     9     9    10   ar
    10    10    11    1
    11    11    12    1
    12    11    13    1
    13    13    14    1
    14    14    15    1
    15    15    16    1
    16    16    17    1
    17    17    18    1
    18    18    19    1
    19    18    20    1
    20    18    21    1
    21    16    22    1
    22    22    23   ar
    23    23    24   ar
    24    24    25   ar
    25    25    26   ar
    26    26    27   ar
    27    16    28    1
    28    28    29    1
    29    29    30    2
    30    10    31   ar
    31    31    32   ar
    32     6    33   ar
    33    33    34   ar
    34    34    35   ar
    35    35    36    2
    36    35     4   ar
    37    32     7   ar
    38    29    13   am
    39    27    22   ar
    40     1    37    1
    41     1    38    1
    42     1    39    1
    43     2    40    1
    44     3    41    1
    45     3    42    1
    46     3    43    1
    47     5    44    1
    48     8    45    1
    49     9    46    1
    50    11    47    1
    51    12    48    1
    52    12    49    1
    53    12    50    1
    54    14    51    1
    55    14    52    1
    56    15    53    1
    57    15    54    1
    58    17    55    1
    59    17    56    1
    60    19    57    1
    61    19    58    1
    62    19    59    1
    63    20    60    1
    64    20    61    1
    65    20    62    1
    66    21    63    1
    67    23    64    1
    68    24    65    1
    69    25    66    1
    70    26    67    1
    71    27    68    1
    72    31    69    1
    73    32    70    1
    74    33    71    1
    75    34    72    1
