
     RDKit          3D

 72 75  0  0  0  0  0  0  0  0999 V2000
    7.3192   -0.3769   -1.7120 C   0  0  0  0  0  0  0  0  0  0  0  0
    7.4435    1.0858   -1.3024 C   0  0  0  0  0  0  0  0  0  0  0  0
    8.8534    1.3152   -0.8528 C   0  0  0  0  0  0  0  0  0  0  0  0
    6.4641    1.4041   -0.2764 N   0  0  0  0  0  0  0  0  0  0  0  0
    5.3705    0.6485   -0.1136 C   0  0  0  0  0  0  0  0  0  0  0  0
    4.4088    0.9122    0.8519 C   0  0  0  0  0  0  0  0  0  0  0  0
    3.2238    0.0479    0.9885 C   0  0  0  0  0  0  0  0  0  0  0  0
    2.0386    0.5910    1.4225 C   0  0  0  0  0  0  0  0  0  0  0  0
    0.8987   -0.2049    1.5619 C   0  0  0  0  0  0  0  0  0  0  0  0
    0.9526   -1.5463    1.2644 C   0  0  0  0  0  0  0  0  0  0  0  0
   -0.2482   -2.3974    1.4098 C   0  0  2  0  0  0  0  0  0  0  0  0
   -0.0121   -3.7787    0.7976 C   0  0  0  0  0  0  0  0  0  0  0  0
   -1.4036   -1.7647    0.8627 N   0  0  0  0  0  0  0  0  0  0  0  0
   -1.5066   -1.3627   -0.5361 C   0  0  0  0  0  0  0  0  0  0  0  0
   -2.1878   -0.0100   -0.5495 C   0  0  0  0  0  0  0  0  0  0  0  0
   -3.6490   -0.1241   -0.0462 C   0  0  2  0  0  0  0  0  0  0  0  0
   -4.4063   -0.6309   -1.2174 C   0  0  0  0  0  0  0  0  0  0  0  0
   -5.8554   -0.8495   -1.1083 C   0  0  0  0  0  0  0  0  0  0  0  0
   -6.3027   -1.3897   -2.4904 C   0  0  0  0  0  0  0  0  0  0  0  0
   -6.3467   -1.8091   -0.0918 C   0  0  0  0  0  0  0  0  0  0  0  0
   -6.5877    0.3464   -0.9816 O   0  0  0  0  0  0  0  0  0  0  0  0
   -4.0858    1.2337    0.3635 C   0  0  0  0  0  0  0  0  0  0  0  0
   -3.3840    2.3415   -0.0555 C   0  0  0  0  0  0  0  0  0  0  0  0
   -3.8015    3.5882    0.3650 C   0  0  0  0  0  0  0  0  0  0  0  0
   -4.8928    3.7793    1.1883 C   0  0  0  0  0  0  0  0  0  0  0  0
   -5.5665    2.6421    1.5843 C   0  0  0  0  0  0  0  0  0  0  0  0
   -5.1789    1.3865    1.1856 C   0  0  0  0  0  0  0  0  0  0  0  0
   -3.6260   -0.9402    1.0780 O   0  0  0  0  0  0  0  0  0  0  0  0
   -2.5282   -1.4930    1.6695 C   0  0  0  0  0  0  0  0  0  0  0  0
   -2.5164   -1.7537    2.8961 O   0  0  0  0  0  0  0  0  0  0  0  0
    2.1367   -2.0737    0.8339 C   0  0  0  0  0  0  0  0  0  0  0  0
    3.2826   -1.2854    0.6913 C   0  0  0  0  0  0  0  0  0  0  0  0
    4.6133    2.0042    1.6636 C   0  0  0  0  0  0  0  0  0  0  0  0
    5.7480    2.8015    1.5064 C   0  0  0  0  0  0  0  0  0  0  0  0
    6.6590    2.4774    0.5260 C   0  0  0  0  0  0  0  0  0  0  0  0
    7.6910    3.1611    0.3466 O   0  0  0  0  0  0  0  0  0  0  0  0
    6.5890   -0.4800   -2.5268 H   0  0  0  0  0  0  0  0  0  0  0  0
    7.1026   -0.9554   -0.8121 H   0  0  0  0  0  0  0  0  0  0  0  0
    8.2994   -0.7557   -2.1063 H   0  0  0  0  0  0  0  0  0  0  0  0
    7.2574    1.7443   -2.1717 H   0  0  0  0  0  0  0  0  0  0  0  0
    9.5165    0.5663   -1.3379 H   0  0  0  0  0  0  0  0  0  0  0  0
    8.9481    1.1785    0.2467 H   0  0  0  0  0  0  0  0  0  0  0  0
    9.2490    2.3110   -1.1822 H   0  0  0  0  0  0  0  0  0  0  0  0
    5.1945   -0.2252   -0.7538 H   0  0  0  0  0  0  0  0  0  0  0  0
    1.9672    1.6454    1.6640 H   0  0  0  0  0  0  0  0  0  0  0  0
   -0.0356    0.2393    1.9081 H   0  0  0  0  0  0  0  0  0  0  0  0
   -0.4317   -2.5987    2.4899 H   0  0  0  0  0  0  0  0  0  0  0  0
    0.3873   -3.7101   -0.2160 H   0  0  0  0  0  0  0  0  0  0  0  0
   -0.9214   -4.4028    0.8946 H   0  0  0  0  0  0  0  0  0  0  0  0
    0.7606   -4.2698    1.4340 H   0  0  0  0  0  0  0  0  0  0  0  0
   -0.5280   -1.2339   -0.9990 H   0  0  0  0  0  0  0  0  0  0  0  0
   -2.0644   -2.1460   -1.0477 H   0  0  0  0  0  0  0  0  0  0  0  0
   -1.6536    0.6211    0.1833 H   0  0  0  0  0  0  0  0  0  0  0  0
   -2.1811    0.4179   -1.5588 H   0  0  0  0  0  0  0  0  0  0  0  0
   -3.9152   -1.5506   -1.6560 H   0  0  0  0  0  0  0  0  0  0  0  0
   -4.2501    0.1321   -2.0418 H   0  0  0  0  0  0  0  0  0  0  0  0
   -5.5041   -2.1004   -2.7874 H   0  0  0  0  0  0  0  0  0  0  0  0
   -7.2238   -2.0102   -2.3677 H   0  0  0  0  0  0  0  0  0  0  0  0
   -6.4167   -0.5815   -3.2137 H   0  0  0  0  0  0  0  0  0  0  0  0
   -6.5225   -2.7924   -0.5772 H   0  0  0  0  0  0  0  0  0  0  0  0
   -5.6357   -2.0383    0.7362 H   0  0  0  0  0  0  0  0  0  0  0  0
   -7.3562   -1.5231    0.3285 H   0  0  0  0  0  0  0  0  0  0  0  0
   -6.6575    0.8000   -1.8794 H   0  0  0  0  0  0  0  0  0  0  0  0
   -2.5098    2.2307   -0.7122 H   0  0  0  0  0  0  0  0  0  0  0  0
   -3.2587    4.4662    0.0429 H   0  0  0  0  0  0  0  0  0  0  0  0
   -5.2164    4.7507    1.5141 H   0  0  0  0  0  0  0  0  0  0  0  0
   -6.4426    2.7531    2.2415 H   0  0  0  0  0  0  0  0  0  0  0  0
   -5.7353    0.5044    1.5391 H   0  0  0  0  0  0  0  0  0  0  0  0
    2.2253   -3.1045    0.5925 H   0  0  0  0  0  0  0  0  0  0  0  0
    4.2023   -1.7303    0.3496 H   0  0  0  0  0  0  0  0  0  0  0  0
    3.8650    2.2210    2.4252 H   0  0  0  0  0  0  0  0  0  0  0  0
    5.8783    3.6511    2.1598 H   0  0  0  0  0  0  0  0  0  0  0  0
  1  2  1  0
  2  3  1  0
  2  4  1  0
  4  5  1  0
  5  6  2  0
  6  7  1  0
  7  8  2  0
  8  9  1  0
  9 10  2  0
 10 11  1  0
 11 12  1  0
 11 13  1  0
 13 14  1  0
 14 15  1  0
 15 16  1  0
 16 17  1  6
 17 18  1  0
 18 19  1  0
 18 20  1  0
 18 21  1  0
 16 22  1  0
 22 23  2  0
 23 24  1  0
 24 25  2  0
 25 26  1  0
 26 27  2  0
 16 28  1  0
 28 29  1  0
 29 30  2  0
 10 31  1  0
 31 32  2  0
  6 33  1  0
 33 34  2  0
 34 35  1  0
 35 36  2  0
 35  4  1  0
 32  7  1  0
 29 13  1  0
 27 22  1  0
  1 37  1  0
  1 38  1  0
  1 39  1  0
  2 40  1  0
  3 41  1  0
  3 42  1  0
  3 43  1  0
  5 44  1  0
  8 45  1  0
  9 46  1  0
 11 47  1  1
 12 48  1  0
 12 49  1  0
 12 50  1  0
 14 51  1  0
 14 52  1  0
 15 53  1  0
 15 54  1  0
 17 55  1  0
 17 56  1  0
 19 57  1  0
 19 58  1  0
 19 59  1  0
 20 60  1  0
 20 61  1  0
 20 62  1  0
 21 63  1  0
 23 64  1  0
 24 65  1  0
 25 66  1  0
 26 67  1  0
 27 68  1  0
 31 69  1  0
 32 70  1  0
 33 71  1  0
 34 72  1  0
M  END
$$$$
