@<TRIPOS>MOLECULE
*****
 70 73 0 0 0
SMALL
GASTEIGER

@<TRIPOS>ATOM
      1 C           2.0052   -3.7529    0.1506 C.3     1  UNL1       -0.0421
      2 C           1.9075   -2.5449    1.0903 C.3     1  UNL1        0.0515
      3 C           2.9981   -1.6074    0.7177 C.ar    1  UNL1       -0.0271
      4 C           2.9713   -0.3212    1.2145 C.ar    1  UNL1       -0.0562
      5 C           3.9642    0.5719    0.8904 C.ar    1  UNL1       -0.0537
      6 C           5.0224    0.2450    0.0689 C.ar    1  UNL1       -0.0165
      7 C           6.0678    1.2058   -0.2630 C.ar    1  UNL1       -0.0017
      8 C           6.4787    2.1949    0.6003 C.ar    1  UNL1       -0.0475
      9 C           7.4839    3.0943    0.2432 C.ar    1  UNL1        0.0034
     10 C           8.0684    2.9783   -1.0024 C.ar    1  UNL1        0.2487
     11 O           8.9781    3.7814   -1.3432 O.2     1  UNL1       -0.2679
     12 N           7.6471    2.0056   -1.8203 N.ar    1  UNL1       -0.3285
     13 C           6.6793    1.1355   -1.4831 C.ar    1  UNL1        0.0126
     14 C           5.0516   -1.0512   -0.4331 C.ar    1  UNL1       -0.0537
     15 C           4.0526   -1.9326   -0.1007 C.ar    1  UNL1       -0.0562
     16 N           0.6099   -1.9620    0.9971 N.am    1  UNL1       -0.2605
     17 C           0.1144   -1.3371   -0.2306 C.3     1  UNL1        0.0224
     18 C          -0.7404   -0.1614    0.2263 C.3     1  UNL1        0.0075
     19 C          -1.9902   -0.6111    0.9161 C.3     1  UNL1        0.1431
     20 C          -2.9764   -1.2319    0.0356 C.3     1  UNL1        0.0109
     21 C          -3.6088   -0.5088   -1.0859 C.3     1  UNL1        0.0380
     22 C          -4.5760   -1.5845   -1.6730 C.3     1  UNL1       -0.0453
     23 C          -2.7159   -0.1608   -2.2162 C.3     1  UNL1       -0.0453
     24 N          -4.4860    0.5559   -0.6805 N.3     1  UNL1       -0.1891
     25 S          -5.2342    1.4460   -1.8858 S.O2    1  UNL1        0.0270
     26 C          -6.3058    0.6015   -2.9669 C.3     1  UNL1        0.0705
     27 O          -6.0577    2.5275   -1.1852 O.2     1  UNL1       -0.1585
     28 O          -4.2487    2.2368   -2.7389 O.2     1  UNL1       -0.1585
     29 C          -2.5338    0.4876    1.7537 C.ar    1  UNL1       -0.0041
     30 C          -1.9753    1.7323    1.7550 C.ar    1  UNL1       -0.0548
     31 C          -2.4797    2.7698    2.5493 C.ar    1  UNL1       -0.0614
     32 C          -3.5688    2.5098    3.3438 C.ar    1  UNL1       -0.0617
     33 C          -4.1506    1.2635    3.3606 C.ar    1  UNL1       -0.0614
     34 C          -3.6229    0.2680    2.5629 C.ar    1  UNL1       -0.0548
     35 O          -1.5803   -1.6191    1.8651 O.3     1  UNL1       -0.4388
     36 C          -0.2710   -1.9592    2.0924 C.2     1  UNL1        0.4042
     37 O           0.1056   -2.2587    3.2714 O.2     1  UNL1       -0.2262
     38 H           2.8962   -4.3424    0.4386 H       1  UNL1        0.0251
     39 H           2.1287   -3.4190   -0.9025 H       1  UNL1        0.0251
     40 H           1.1096   -4.4062    0.2672 H       1  UNL1        0.0251
     41 H           2.0546   -2.9566    2.1149 H       1  UNL1        0.0549
     42 H           2.1444   -0.0172    1.8746 H       1  UNL1        0.0621
     43 H           3.9466    1.5932    1.2823 H       1  UNL1        0.0624
     44 H           6.0412    2.3113    1.5801 H       1  UNL1        0.0626
     45 H           7.8250    3.8792    0.9015 H       1  UNL1        0.0672
     46 H           8.0759    1.8989   -2.7696 H       1  UNL1        0.1683
     47 H           6.3716    0.3600   -2.1863 H       1  UNL1        0.0814
     48 H           5.8673   -1.3423   -1.0811 H       1  UNL1        0.0624
     49 H           4.0743   -2.9592   -0.4973 H       1  UNL1        0.0621
     50 H           0.9226   -0.9256   -0.8496 H       1  UNL1        0.0467
     51 H          -0.4278   -2.0849   -0.8084 H       1  UNL1        0.0467
     52 H          -0.8376    0.5742   -0.5546 H       1  UNL1        0.0322
     53 H          -0.0950    0.3047    1.0547 H       1  UNL1        0.0322
     54 H          -3.8335   -1.6864    0.6369 H       1  UNL1        0.0325
     55 H          -2.5271   -2.1724   -0.4300 H       1  UNL1        0.0325
     56 H          -4.7008   -1.3916   -2.7482 H       1  UNL1        0.0248
     57 H          -5.4912   -1.6336   -1.0871 H       1  UNL1        0.0248
     58 H          -4.0924   -2.5958   -1.6088 H       1  UNL1        0.0248
     59 H          -3.2092   -0.4077   -3.2216 H       1  UNL1        0.0248
     60 H          -1.8139   -0.7870   -2.2375 H       1  UNL1        0.0248
     61 H          -2.4011    0.9040   -2.2298 H       1  UNL1        0.0248
     62 H          -5.1154    0.2294    0.0820 H       1  UNL1        0.1482
     63 H          -5.8363    0.3282   -3.9580 H       1  UNL1        0.0479
     64 H          -7.1431    1.2947   -3.2863 H       1  UNL1        0.0479
     65 H          -6.8112   -0.2761   -2.5595 H       1  UNL1        0.0479
     66 H          -1.1253    1.9970    1.1494 H       1  UNL1        0.0622
     67 H          -2.0078    3.7397    2.5205 H       1  UNL1        0.0618
     68 H          -3.9886    3.3034    3.9792 H       1  UNL1        0.0618
     69 H          -5.0106    1.0184    3.9732 H       1  UNL1        0.0618
     70 H          -4.0737   -0.7274    2.5648 H       1  UNL1        0.0622
@<TRIPOS>BOND
     1     1     2    1
     2     2     3    1
     3     3     4   ar
     4     4     5   ar
     5     5     6   ar
     6     6     7    1
     7     7     8   ar
     8     8     9   ar
     9     9    10   ar
    10    10    11    2
    11    10    12   ar
    12    12    13   ar
    13     6    14   ar
    14    14    15   ar
    15     2    16    1
    16    16    17    1
    17    17    18    1
    18    18    19    1
    19    19    20    1
    20    20    21    1
    21    21    22    1
    22    21    23    1
    23    21    24    1
    24    24    25    1
    25    25    26    1
    26    25    27    2
    27    25    28    2
    28    19    29    1
    29    29    30   ar
    30    30    31   ar
    31    31    32   ar
    32    32    33   ar
    33    33    34   ar
    34    19    35    1
    35    35    36    1
    36    36    37    2
    37    15     3   ar
    38    36    16   am
    39    13     7   ar
    40    34    29   ar
    41     1    38    1
    42     1    39    1
    43     1    40    1
    44     2    41    1
    45     4    42    1
    46     5    43    1
    47     8    44    1
    48     9    45    1
    49    12    46    1
    50    13    47    1
    51    14    48    1
    52    15    49    1
    53    17    50    1
    54    17    51    1
    55    18    52    1
    56    18    53    1
    57    20    54    1
    58    20    55    1
    59    22    56    1
    60    22    57    1
    61    22    58    1
    62    23    59    1
    63    23    60    1
    64    23    61    1
    65    24    62    1
    66    26    63    1
    67    26    64    1
    68    26    65    1
    69    30    66    1
    70    31    67    1
    71    32    68    1
    72    33    69    1
    73    34    70    1
