@<TRIPOS>MOLECULE
*****
 49 51 0 0 0
SMALL
GASTEIGER

@<TRIPOS>ATOM
      1 C           9.4591   -1.2990   -0.5878 C.3     1  UNL1        0.0805
      2 O           8.2212   -2.0115   -0.5672 O.3     1  UNL1       -0.4786
      3 C           7.0610   -1.2663   -0.4841 C.ar    1  UNL1        0.2332
      4 C           5.8248   -1.8994   -0.4600 C.ar    1  UNL1        0.0899
      5 N           4.6731   -1.2004   -0.3793 N.ar    1  UNL1       -0.2435
      6 C           4.6893    0.1310   -0.3198 C.ar    1  UNL1        0.1439
      7 C           3.4215    0.8854   -0.2316 C.2     1  UNL1        0.2681
      8 O           3.5005    2.1181   -0.1793 O.2     1  UNL1       -0.2681
      9 N           2.1784    0.2366   -0.2080 N.am    1  UNL1       -0.2802
     10 C           0.9162    0.8556   -0.1262 C.ar    1  UNL1        0.0343
     11 C           0.6610    2.1863   -0.0552 C.ar    1  UNL1       -0.0377
     12 C          -0.6301    2.6767    0.0220 C.ar    1  UNL1       -0.0243
     13 C          -1.6760    1.7954    0.0268 C.ar    1  UNL1        0.1311
     14 F          -2.9269    2.3448    0.1067 F       1  UNL1       -0.2050
     15 C          -1.4765    0.4307   -0.0434 C.ar    1  UNL1        0.0420
     16 C          -2.6752   -0.4485   -0.0336 C.3     1  UNL1        0.1961
     17 C          -2.1357   -1.8858   -0.0264 C.3     1  UNL1       -0.0112
     18 C          -3.4301   -0.1792   -1.3024 C.3     1  UNL1        0.1212
     19 S          -5.1685   -0.0087   -1.0442 S.O2    1  UNL1        0.0192
     20 O          -5.9645   -0.6819   -2.1266 O.2     1  UNL1       -0.1706
     21 O          -5.5949    1.4265   -1.0164 O.2     1  UNL1       -0.1706
     22 C          -5.5607   -0.8182    0.4830 C.3     1  UNL1        0.3220
     23 C          -6.9217   -0.3406    0.9234 C.3     1  UNL1        0.0013
     24 F          -5.5903   -2.1901    0.3491 F       1  UNL1       -0.2044
     25 C          -4.5804   -0.3443    1.4891 C.2     1  UNL1        0.3390
     26 N          -5.0234   -0.0325    2.8204 N.pl3   1  UNL1       -0.2465
     27 N          -3.3764   -0.2239    1.1594 N.2     1  UNL1       -0.0700
     28 C          -0.1978   -0.0041   -0.1176 C.ar    1  UNL1       -0.0301
     29 C           5.9115    0.7659   -0.3432 C.ar    1  UNL1        0.0619
     30 N           7.0619    0.0772   -0.4233 N.ar    1  UNL1       -0.2178
     31 H           9.3365   -0.4000    0.0785 H       1  UNL1        0.0660
     32 H          10.2852   -1.9206   -0.1992 H       1  UNL1        0.0660
     33 H           9.6309   -0.9485   -1.6275 H       1  UNL1        0.0660
     34 H           5.8393   -2.9863   -0.5098 H       1  UNL1        0.0884
     35 H           2.2415   -0.8284   -0.2589 H       1  UNL1        0.1552
     36 H           1.5014    2.8756   -0.0599 H       1  UNL1        0.0637
     37 H          -0.7607    3.7468    0.0760 H       1  UNL1        0.0647
     38 H          -1.5097   -2.0503    0.8522 H       1  UNL1        0.0279
     39 H          -1.6068   -2.0759   -1.0064 H       1  UNL1        0.0279
     40 H          -2.9751   -2.6236   -0.0436 H       1  UNL1        0.0279
     41 H          -3.2739   -1.0405   -1.9845 H       1  UNL1        0.0551
     42 H          -3.0767    0.7218   -1.8453 H       1  UNL1        0.0551
     43 H          -7.1734   -0.8363    1.8866 H       1  UNL1        0.0283
     44 H          -6.9266    0.7655    1.0093 H       1  UNL1        0.0283
     45 H          -7.6887   -0.6352    0.1813 H       1  UNL1        0.0283
     46 H          -4.7759    0.8262    3.3182 H       1  UNL1        0.2882
     47 H          -5.6333   -0.7302    3.2980 H       1  UNL1        0.2882
     48 H          -0.0493   -1.0831   -0.1726 H       1  UNL1        0.0641
     49 H           5.9649    1.8414   -0.2968 H       1  UNL1        0.0854
@<TRIPOS>BOND
     1     1     2    1
     2     2     3    1
     3     3     4   ar
     4     4     5   ar
     5     5     6   ar
     6     6     7    1
     7     7     8    2
     8     7     9   am
     9     9    10    1
    10    10    11   ar
    11    11    12   ar
    12    12    13   ar
    13    13    14    1
    14    13    15   ar
    15    15    16    1
    16    16    17    1
    17    16    18    1
    18    18    19    1
    19    19    20    2
    20    19    21    2
    21    19    22    1
    22    22    23    1
    23    22    24    1
    24    22    25    1
    25    25    26    1
    26    25    27    2
    27    15    28   ar
    28     6    29   ar
    29    29    30   ar
    30    30     3   ar
    31    28    10   ar
    32    27    16    1
    33     1    31    1
    34     1    32    1
    35     1    33    1
    36     4    34    1
    37     9    35    1
    38    11    36    1
    39    12    37    1
    40    17    38    1
    41    17    39    1
    42    17    40    1
    43    18    41    1
    44    18    42    1
    45    23    43    1
    46    23    44    1
    47    23    45    1
    48    26    46    1
    49    26    47    1
    50    28    48    1
    51    29    49    1
