@<TRIPOS>MOLECULE
*****
 58 60 0 0 0
SMALL
GASTEIGER

@<TRIPOS>ATOM
      1 C           5.2362   -0.7540   -0.5024 C.3     1  UNL1        0.1511
      2 C           6.0900    0.3470   -1.0896 C.3     1  UNL1        0.0907
      3 O           7.3639    0.3700   -0.5239 O.3     1  UNL1       -0.3364
      4 C           7.2294    0.6025    0.8230 C.3     1  UNL1        0.2673
      5 C           8.6337    0.6266    1.4264 C.3     1  UNL1        0.0007
      6 O           6.4927   -0.3452    1.5120 O.3     1  UNL1       -0.3364
      7 C           5.9452   -1.3107    0.6910 C.3     1  UNL1        0.0907
      8 C           6.6196    1.9257    1.1450 C.2     1  UNL1        0.3649
      9 O           6.0796    3.1313    0.7116 O.3     1  UNL1       -0.4769
     10 O           6.5095    2.1092    2.3899 O.2     1  UNL1       -0.2449
     11 O           3.9146   -0.3647   -0.2928 O.3     1  UNL1       -0.4423
     12 C           2.8233   -0.9311   -0.9342 C.2     1  UNL1        0.4034
     13 O           2.8325   -1.8543   -1.7800 O.2     1  UNL1       -0.2262
     14 N           1.4832   -0.5632   -0.7464 N.am    1  UNL1       -0.2644
     15 C           0.4943   -1.2792   -1.5135 C.3     1  UNL1        0.0338
     16 C          -0.8840   -0.6817   -1.4034 C.3     1  UNL1        0.0338
     17 N          -1.1265   -0.1597   -0.0728 N.am    1  UNL1       -0.2644
     18 C          -0.1109    0.1740    0.8778 C.3     1  UNL1        0.0338
     19 C           1.1956    0.4989    0.1958 C.3     1  UNL1        0.0338
     20 C          -2.4705    0.0537    0.3644 C.2     1  UNL1        0.4034
     21 O          -2.8238    0.5005    1.4910 O.2     1  UNL1       -0.2262
     22 O          -3.5425   -0.2385   -0.4842 O.3     1  UNL1       -0.4423
     23 C          -4.8954   -0.0508   -0.1142 C.3     1  UNL1        0.1511
     24 C          -5.6059    0.8661   -1.1090 C.3     1  UNL1        0.0907
     25 O          -6.9538    0.9381   -0.8602 O.3     1  UNL1       -0.3364
     26 C          -7.4783   -0.1179   -0.1554 C.3     1  UNL1        0.2673
     27 C          -7.4273    0.0335    1.3354 C.3     1  UNL1        0.0007
     28 O          -6.9142   -1.3390   -0.5031 O.3     1  UNL1       -0.3364
     29 C          -5.5700   -1.4026   -0.2120 C.3     1  UNL1        0.0907
     30 C          -8.9294   -0.2180   -0.5417 C.2     1  UNL1        0.3649
     31 O          -9.7605   -1.2089    0.0091 O.3     1  UNL1       -0.4769
     32 O          -9.5203    0.5217   -1.3448 O.2     1  UNL1       -0.2449
     33 H           5.2154   -1.5760   -1.2587 H       1  UNL1        0.0781
     34 H           6.2514    0.2061   -2.1831 H       1  UNL1        0.0599
     35 H           5.6033    1.3379   -0.9949 H       1  UNL1        0.0599
     36 H           9.2611   -0.0608    0.8226 H       1  UNL1        0.0287
     37 H           8.6214    0.3721    2.5037 H       1  UNL1        0.0287
     38 H           9.0655    1.6642    1.3352 H       1  UNL1        0.0287
     39 H           5.3644   -2.0127    1.2876 H       1  UNL1        0.0599
     40 H           6.8324   -1.8896    0.2962 H       1  UNL1        0.0599
     41 H           6.5839    4.0101    0.7212 H       1  UNL1        0.2952
     42 H           0.7424   -1.2755   -2.6058 H       1  UNL1        0.0481
     43 H           0.4528   -2.3385   -1.1588 H       1  UNL1        0.0481
     44 H          -0.9715    0.1858   -2.1154 H       1  UNL1        0.0481
     45 H          -1.5963   -1.4869   -1.6840 H       1  UNL1        0.0481
     46 H          -0.4025    1.0443    1.5163 H       1  UNL1        0.0481
     47 H           0.0771   -0.7327    1.5129 H       1  UNL1        0.0481
     48 H           1.1119    1.4859   -0.3376 H       1  UNL1        0.0481
     49 H           1.9954    0.5450    0.9785 H       1  UNL1        0.0481
     50 H          -4.9016    0.3471    0.9150 H       1  UNL1        0.0781
     51 H          -5.1115    1.8492   -1.1874 H       1  UNL1        0.0599
     52 H          -5.4799    0.3648   -2.0990 H       1  UNL1        0.0599
     53 H          -7.0828    1.0568    1.6424 H       1  UNL1        0.0287
     54 H          -6.8177   -0.7748    1.8284 H       1  UNL1        0.0287
     55 H          -8.4443   -0.0742    1.8114 H       1  UNL1        0.0287
     56 H          -5.0920   -1.9385   -1.0678 H       1  UNL1        0.0599
     57 H          -5.4250   -1.9972    0.7127 H       1  UNL1        0.0599
     58 H         -10.7833   -1.1111    0.0193 H       1  UNL1        0.2952
@<TRIPOS>BOND
     1     1     2    1
     2     2     3    1
     3     3     4    1
     4     4     5    1
     5     4     6    1
     6     6     7    1
     7     4     8    1
     8     8     9    1
     9     8    10    2
    10     1    11    1
    11    11    12    1
    12    12    13    2
    13    12    14   am
    14    14    15    1
    15    15    16    1
    16    16    17    1
    17    17    18    1
    18    18    19    1
    19    17    20   am
    20    20    21    2
    21    20    22    1
    22    22    23    1
    23    23    24    1
    24    24    25    1
    25    25    26    1
    26    26    27    1
    27    26    28    1
    28    28    29    1
    29    26    30    1
    30    30    31    1
    31    30    32    2
    32     7     1    1
    33    19    14    1
    34    29    23    1
    35     1    33    1
    36     2    34    1
    37     2    35    1
    38     5    36    1
    39     5    37    1
    40     5    38    1
    41     7    39    1
    42     7    40    1
    43     9    41    1
    44    15    42    1
    45    15    43    1
    46    16    44    1
    47    16    45    1
    48    18    46    1
    49    18    47    1
    50    19    48    1
    51    19    49    1
    52    23    50    1
    53    24    51    1
    54    24    52    1
    55    27    53    1
    56    27    54    1
    57    27    55    1
    58    29    56    1
    59    29    57    1
    60    31    58    1
