@<TRIPOS>MOLECULE
*****
 51 54 0 0 0
SMALL
GASTEIGER

@<TRIPOS>ATOM
      1 O          -2.4874    2.9920    1.9574 O.2     1  UNL1       -0.2524
      2 C          -2.9956    2.1199    1.1773 C.2     1  UNL1        0.3068
      3 N          -3.3855    2.3231   -0.1673 N.am    1  UNL1       -0.2383
      4 C          -3.8930    1.1124   -0.6553 C.2     1  UNL1        0.2457
      5 O          -4.4135    0.9213   -1.8012 O.2     1  UNL1       -0.2729
      6 C          -3.7263    0.0725    0.3881 C.3     1  UNL1        0.1305
      7 C          -2.9345   -1.0867   -0.0864 C.3     1  UNL1        0.0418
      8 N          -1.6020   -0.8479   -0.5418 N.am    1  UNL1       -0.3125
      9 C          -0.5357   -0.3555    0.2289 C.2     1  UNL1        0.2168
     10 O          -0.7303   -0.0958    1.4385 O.2     1  UNL1       -0.2755
     11 C           0.8324   -0.1290   -0.3649 C.3     1  UNL1        0.0423
     12 C           1.6259    0.6216    0.6886 C.3     1  UNL1       -0.0163
     13 C           3.0003    0.9470    0.2884 C.ar    1  UNL1       -0.0466
     14 C           4.0423    0.1088    0.5927 C.ar    1  UNL1       -0.0580
     15 C           5.3555    0.4079    0.2074 C.ar    1  UNL1       -0.0499
     16 C           5.6374    1.5597   -0.4917 C.ar    1  UNL1        0.0548
     17 C           7.0465    1.8897   -0.9103 C.3     1  UNL1        0.4174
     18 F           7.8811    1.0713   -0.1739 F       1  UNL1       -0.1659
     19 F           7.2152    1.7565   -2.2619 F       1  UNL1       -0.1659
     20 F           7.3497    3.1952   -0.5193 F       1  UNL1       -0.1659
     21 C           4.5924    2.4057   -0.7995 C.ar    1  UNL1       -0.0499
     22 C           3.3020    2.1040   -0.4167 C.ar    1  UNL1       -0.0580
     23 C           1.5049   -1.3831   -0.7968 C.3     1  UNL1       -0.0296
     24 C           1.8485   -2.5057    0.0882 C.3     1  UNL1       -0.0492
     25 C           0.6508   -2.6582   -0.7717 C.3     1  UNL1       -0.0492
     26 C          -5.1135   -0.4819    0.7718 C.3     1  UNL1       -0.0096
     27 C          -5.9372   -1.1238   -0.3028 C.3     1  UNL1       -0.0474
     28 C          -5.3486   -1.9462    0.8364 C.3     1  UNL1       -0.0474
     29 N          -3.2592    0.7739    1.5368 N.am    1  UNL1       -0.2834
     30 H          -3.2881    3.2556   -0.6730 H       1  UNL1        0.1591
     31 H          -3.5414   -1.6570   -0.8328 H       1  UNL1        0.0488
     32 H          -2.8727   -1.8039    0.7945 H       1  UNL1        0.0488
     33 H          -1.3855   -1.0585   -1.5709 H       1  UNL1        0.1488
     34 H           0.6707    0.5221   -1.2463 H       1  UNL1        0.0400
     35 H           1.0201    1.5491    0.9087 H       1  UNL1        0.0321
     36 H           1.5751    0.0132    1.6200 H       1  UNL1        0.0321
     37 H           3.8859   -0.8107    1.1475 H       1  UNL1        0.0620
     38 H           6.1405   -0.2719    0.4637 H       1  UNL1        0.0623
     39 H           4.8304    3.3059   -1.3487 H       1  UNL1        0.0623
     40 H           2.4923    2.7843   -0.6692 H       1  UNL1        0.0620
     41 H           2.1515   -1.2958   -1.7291 H       1  UNL1        0.0308
     42 H           1.7066   -2.4624    1.1851 H       1  UNL1        0.0268
     43 H           2.7137   -3.1487   -0.1867 H       1  UNL1        0.0268
     44 H           0.7240   -3.3249   -1.6659 H       1  UNL1        0.0268
     45 H          -0.2940   -2.7058   -0.2431 H       1  UNL1        0.0268
     46 H          -5.6761    0.1489    1.4785 H       1  UNL1        0.0327
     47 H          -5.4777   -1.2436   -1.3242 H       1  UNL1        0.0269
     48 H          -7.0197   -0.9825   -0.3345 H       1  UNL1        0.0269
     49 H          -4.6381   -2.7058    0.5032 H       1  UNL1        0.0269
     50 H          -6.1225   -2.2986    1.5731 H       1  UNL1        0.0269
     51 H          -3.1175    0.4225    2.5313 H       1  UNL1        0.1513
@<TRIPOS>BOND
     1     1     2    2
     2     2     3   am
     3     3     4   am
     4     4     5    2
     5     4     6    1
     6     6     7    1
     7     7     8    1
     8     8     9   am
     9     9    10    2
    10     9    11    1
    11    11    12    1
    12    12    13    1
    13    13    14   ar
    14    14    15   ar
    15    15    16   ar
    16    16    17    1
    17    17    18    1
    18    17    19    1
    19    17    20    1
    20    16    21   ar
    21    21    22   ar
    22    11    23    1
    23    23    24    1
    24    24    25    1
    25     6    26    1
    26    26    27    1
    27    27    28    1
    28     6    29    1
    29    29     2   am
    30    22    13   ar
    31    25    23    1
    32    28    26    1
    33     3    30    1
    34     7    31    1
    35     7    32    1
    36     8    33    1
    37    11    34    1
    38    12    35    1
    39    12    36    1
    40    14    37    1
    41    15    38    1
    42    21    39    1
    43    22    40    1
    44    23    41    1
    45    24    42    1
    46    24    43    1
    47    25    44    1
    48    25    45    1
    49    26    46    1
    50    27    47    1
    51    27    48    1
    52    28    49    1
    53    28    50    1
    54    29    51    1
