
     RDKit          3D

 51 54  0  0  0  0  0  0  0  0999 V2000
   -2.4874    2.9920    1.9574 O   0  0  0  0  0  0  0  0  0  0  0  0
   -2.9956    2.1199    1.1773 C   0  0  0  0  0  0  0  0  0  0  0  0
   -3.3855    2.3231   -0.1673 N   0  0  0  0  0  0  0  0  0  0  0  0
   -3.8930    1.1124   -0.6553 C   0  0  0  0  0  0  0  0  0  0  0  0
   -4.4135    0.9213   -1.8012 O   0  0  0  0  0  0  0  0  0  0  0  0
   -3.7263    0.0725    0.3881 C   0  0  2  0  0  0  0  0  0  0  0  0
   -2.9345   -1.0867   -0.0864 C   0  0  0  0  0  0  0  0  0  0  0  0
   -1.6020   -0.8479   -0.5418 N   0  0  0  0  0  0  0  0  0  0  0  0
   -0.5357   -0.3555    0.2289 C   0  0  0  0  0  0  0  0  0  0  0  0
   -0.7303   -0.0958    1.4385 O   0  0  0  0  0  0  0  0  0  0  0  0
    0.8324   -0.1290   -0.3649 C   0  0  1  0  0  0  0  0  0  0  0  0
    1.6259    0.6216    0.6886 C   0  0  0  0  0  0  0  0  0  0  0  0
    3.0003    0.9470    0.2884 C   0  0  0  0  0  0  0  0  0  0  0  0
    4.0423    0.1088    0.5927 C   0  0  0  0  0  0  0  0  0  0  0  0
    5.3555    0.4079    0.2074 C   0  0  0  0  0  0  0  0  0  0  0  0
    5.6374    1.5597   -0.4917 C   0  0  0  0  0  0  0  0  0  0  0  0
    7.0465    1.8897   -0.9103 C   0  0  0  0  0  0  0  0  0  0  0  0
    7.8811    1.0713   -0.1739 F   0  0  0  0  0  0  0  0  0  0  0  0
    7.2152    1.7565   -2.2619 F   0  0  0  0  0  0  0  0  0  0  0  0
    7.3497    3.1952   -0.5193 F   0  0  0  0  0  0  0  0  0  0  0  0
    4.5924    2.4057   -0.7995 C   0  0  0  0  0  0  0  0  0  0  0  0
    3.3020    2.1040   -0.4167 C   0  0  0  0  0  0  0  0  0  0  0  0
    1.5049   -1.3831   -0.7968 C   0  0  0  0  0  0  0  0  0  0  0  0
    1.8485   -2.5057    0.0882 C   0  0  0  0  0  0  0  0  0  0  0  0
    0.6508   -2.6582   -0.7717 C   0  0  0  0  0  0  0  0  0  0  0  0
   -5.1135   -0.4819    0.7718 C   0  0  0  0  0  0  0  0  0  0  0  0
   -5.9372   -1.1238   -0.3028 C   0  0  0  0  0  0  0  0  0  0  0  0
   -5.3486   -1.9462    0.8364 C   0  0  0  0  0  0  0  0  0  0  0  0
   -3.2592    0.7739    1.5368 N   0  0  0  0  0  0  0  0  0  0  0  0
   -3.2881    3.2556   -0.6730 H   0  0  0  0  0  0  0  0  0  0  0  0
   -3.5414   -1.6570   -0.8328 H   0  0  0  0  0  0  0  0  0  0  0  0
   -2.8727   -1.8039    0.7945 H   0  0  0  0  0  0  0  0  0  0  0  0
   -1.3855   -1.0585   -1.5709 H   0  0  0  0  0  0  0  0  0  0  0  0
    0.6707    0.5221   -1.2463 H   0  0  0  0  0  0  0  0  0  0  0  0
    1.0201    1.5491    0.9087 H   0  0  0  0  0  0  0  0  0  0  0  0
    1.5751    0.0132    1.6200 H   0  0  0  0  0  0  0  0  0  0  0  0
    3.8859   -0.8107    1.1475 H   0  0  0  0  0  0  0  0  0  0  0  0
    6.1405   -0.2719    0.4637 H   0  0  0  0  0  0  0  0  0  0  0  0
    4.8304    3.3059   -1.3487 H   0  0  0  0  0  0  0  0  0  0  0  0
    2.4923    2.7843   -0.6692 H   0  0  0  0  0  0  0  0  0  0  0  0
    2.1515   -1.2958   -1.7291 H   0  0  0  0  0  0  0  0  0  0  0  0
    1.7066   -2.4624    1.1851 H   0  0  0  0  0  0  0  0  0  0  0  0
    2.7137   -3.1487   -0.1867 H   0  0  0  0  0  0  0  0  0  0  0  0
    0.7240   -3.3249   -1.6659 H   0  0  0  0  0  0  0  0  0  0  0  0
   -0.2940   -2.7058   -0.2431 H   0  0  0  0  0  0  0  0  0  0  0  0
   -5.6761    0.1489    1.4785 H   0  0  0  0  0  0  0  0  0  0  0  0
   -5.4777   -1.2436   -1.3242 H   0  0  0  0  0  0  0  0  0  0  0  0
   -7.0197   -0.9825   -0.3345 H   0  0  0  0  0  0  0  0  0  0  0  0
   -4.6381   -2.7058    0.5032 H   0  0  0  0  0  0  0  0  0  0  0  0
   -6.1225   -2.2986    1.5731 H   0  0  0  0  0  0  0  0  0  0  0  0
   -3.1175    0.4225    2.5313 H   0  0  0  0  0  0  0  0  0  0  0  0
  1  2  2  0
  2  3  1  0
  3  4  1  0
  4  5  2  0
  4  6  1  0
  6  7  1  6
  7  8  1  0
  8  9  1  0
  9 10  2  0
  9 11  1  0
 11 12  1  0
 12 13  1  0
 13 14  2  0
 14 15  1  0
 15 16  2  0
 16 17  1  0
 17 18  1  0
 17 19  1  0
 17 20  1  0
 16 21  1  0
 21 22  2  0
 11 23  1  0
 23 24  1  0
 24 25  1  0
  6 26  1  0
 26 27  1  0
 27 28  1  0
  6 29  1  0
 29  2  1  0
 22 13  1  0
 25 23  1  0
 28 26  1  0
  3 30  1  0
  7 31  1  0
  7 32  1  0
  8 33  1  0
 11 34  1  6
 12 35  1  0
 12 36  1  0
 14 37  1  0
 15 38  1  0
 21 39  1  0
 22 40  1  0
 23 41  1  0
 24 42  1  0
 24 43  1  0
 25 44  1  0
 25 45  1  0
 26 46  1  0
 27 47  1  0
 27 48  1  0
 28 49  1  0
 28 50  1  0
 29 51  1  0
M  END
$$$$
