@<TRIPOS>MOLECULE
*****
 58 63 0 0 0
SMALL
GASTEIGER

@<TRIPOS>ATOM
      1 N          -0.6545   -3.3195    0.4926 N.pl3   1  UNL1       -0.3134
      2 C          -0.6774   -2.0523   -0.1508 C.2     1  UNL1        0.2763
      3 N          -0.3820   -0.9802    0.4446 N.2     1  UNL1       -0.2205
      4 C          -0.3912    0.3117   -0.1601 C.3     1  UNL1        0.1265
      5 C          -0.3499    0.2440   -1.6759 C.3     1  UNL1        0.0155
      6 C          -1.0792   -0.8986   -2.2605 C.3     1  UNL1        0.0953
      7 O          -1.0504   -2.0658   -1.4951 O.2     1  UNL1       -0.4658
      8 C           0.8841    1.0395    0.1937 C.ar    1  UNL1        0.0287
      9 C           2.0945    0.3701   -0.0715 C.ar    1  UNL1       -0.0312
     10 C           3.2970    0.9670    0.1826 C.ar    1  UNL1        0.0343
     11 N           4.5313    0.2629   -0.0965 N.am    1  UNL1       -0.2802
     12 C           5.1198   -0.5523    0.9257 C.2     1  UNL1        0.2666
     13 O           4.5041   -0.5979    2.0208 O.2     1  UNL1       -0.2682
     14 C           6.3618   -1.2828    0.6979 C.ar    1  UNL1        0.1258
     15 C           6.8829   -2.0508    1.7139 C.ar    1  UNL1       -0.0285
     16 C           8.0725   -2.7678    1.5374 C.ar    1  UNL1       -0.0228
     17 C           8.7185   -2.6972    0.3338 C.ar    1  UNL1        0.1414
     18 F           9.8660   -3.3875    0.1603 F       1  UNL1       -0.2039
     19 C           8.1786   -1.9233   -0.6663 C.ar    1  UNL1        0.0636
     20 N           7.0274   -1.2422   -0.4649 N.ar    1  UNL1       -0.2475
     21 C           3.3159    2.2384    0.7041 C.ar    1  UNL1       -0.0370
     22 C           2.1369    2.8827    0.9599 C.ar    1  UNL1       -0.0172
     23 C           0.8883    2.2795    0.7037 C.ar    1  UNL1        0.1346
     24 O          -0.2682    3.0070    1.0001 O.3     1  UNL1       -0.4508
     25 C          -1.4654    2.3655    0.7366 C.ar    1  UNL1        0.1883
     26 C          -1.5603    1.1085    0.2193 C.ar    1  UNL1        0.0334
     27 C          -2.8224    0.5372   -0.0026 C.ar    1  UNL1       -0.0264
     28 C          -3.9437    1.2358    0.2939 C.ar    1  UNL1        0.0726
     29 C          -5.2675    0.6776    0.0769 C.2     1  UNL1       -0.0003
     30 C          -6.3718    1.3964    0.3811 C.2     1  UNL1       -0.0745
     31 C          -7.6484    0.6864    0.1015 C.3     1  UNL1       -0.0105
     32 C          -7.5510    0.1626   -1.3154 C.3     1  UNL1        0.0515
     33 O          -6.4510   -0.6219   -1.5345 O.3     1  UNL1       -0.3748
     34 C          -5.5555   -0.6630   -0.4693 C.3     1  UNL1        0.0744
     35 N          -3.8426    2.4863    0.8057 N.ar    1  UNL1       -0.2163
     36 C          -2.6517    3.0514    1.0277 C.ar    1  UNL1        0.2566
     37 F          -2.5901    4.3159    1.5459 F       1  UNL1       -0.1799
     38 H          -1.5200   -3.8924    0.5007 H       1  UNL1        0.1466
     39 H           0.1876   -3.7074    0.9592 H       1  UNL1        0.1466
     40 H           0.7126    0.2744   -2.0387 H       1  UNL1        0.0328
     41 H          -0.8578    1.1850   -2.0464 H       1  UNL1        0.0328
     42 H          -0.5874   -1.1276   -3.2749 H       1  UNL1        0.0698
     43 H          -2.1267   -0.6018   -2.5640 H       1  UNL1        0.0698
     44 H           2.0394   -0.6287   -0.4815 H       1  UNL1        0.0641
     45 H           5.0046    0.3334   -1.0238 H       1  UNL1        0.1552
     46 H           6.4177   -2.1449    2.6851 H       1  UNL1        0.0641
     47 H           8.4742   -3.3695    2.3441 H       1  UNL1        0.0647
     48 H           8.7065   -1.8762   -1.6247 H       1  UNL1        0.0859
     49 H           4.2542    2.7182    0.9075 H       1  UNL1        0.0637
     50 H           2.1106    3.8859    1.3711 H       1  UNL1        0.0655
     51 H          -2.8919   -0.4458   -0.3874 H       1  UNL1        0.0644
     52 H          -6.2661    2.3725    0.7801 H       1  UNL1        0.0577
     53 H          -7.8470   -0.1235    0.8240 H       1  UNL1        0.0330
     54 H          -8.4442    1.4602    0.0988 H       1  UNL1        0.0330
     55 H          -7.4430    1.0746   -1.9727 H       1  UNL1        0.0563
     56 H          -8.4612   -0.3925   -1.6149 H       1  UNL1        0.0563
     57 H          -6.0908   -1.2168    0.3583 H       1  UNL1        0.0610
     58 H          -4.6769   -1.2776   -0.6968 H       1  UNL1        0.0610
@<TRIPOS>BOND
     1     1     2    1
     2     2     3    2
     3     3     4    1
     4     4     5    1
     5     5     6    1
     6     6     7    1
     7     4     8    1
     8     8     9   ar
     9     9    10   ar
    10    10    11    1
    11    11    12   am
    12    12    13    2
    13    12    14    1
    14    14    15   ar
    15    15    16   ar
    16    16    17   ar
    17    17    18    1
    18    17    19   ar
    19    19    20   ar
    20    10    21   ar
    21    21    22   ar
    22    22    23   ar
    23    23    24    1
    24    24    25    1
    25    25    26   ar
    26    26    27   ar
    27    27    28   ar
    28    28    29    1
    29    29    30    2
    30    30    31    1
    31    31    32    1
    32    32    33    1
    33    33    34    1
    34    28    35   ar
    35    35    36   ar
    36    36    37    1
    37     7     2    1
    38    23     8   ar
    39    36    25   ar
    40    26     4    1
    41    34    29    1
    42    20    14   ar
    43     1    38    1
    44     1    39    1
    45     5    40    1
    46     5    41    1
    47     6    42    1
    48     6    43    1
    49     9    44    1
    50    11    45    1
    51    15    46    1
    52    16    47    1
    53    19    48    1
    54    21    49    1
    55    22    50    1
    56    27    51    1
    57    30    52    1
    58    31    53    1
    59    31    54    1
    60    32    55    1
    61    32    56    1
    62    34    57    1
    63    34    58    1
