
     RDKit          3D

 58 63  0  0  0  0  0  0  0  0999 V2000
   -0.6545   -3.3195    0.4926 N   0  0  0  0  0  0  0  0  0  0  0  0
   -0.6774   -2.0523   -0.1508 C   0  0  0  0  0  0  0  0  0  0  0  0
   -0.3820   -0.9802    0.4446 N   0  0  0  0  0  0  0  0  0  0  0  0
   -0.3912    0.3117   -0.1601 C   0  0  0  0  0  0  0  0  0  0  0  0
   -0.3499    0.2440   -1.6759 C   0  0  0  0  0  0  0  0  0  0  0  0
   -1.0792   -0.8986   -2.2605 C   0  0  0  0  0  0  0  0  0  0  0  0
   -1.0504   -2.0658   -1.4951 O   0  0  0  0  0  0  0  0  0  0  0  0
    0.8841    1.0395    0.1937 C   0  0  0  0  0  0  0  0  0  0  0  0
    2.0945    0.3701   -0.0715 C   0  0  0  0  0  0  0  0  0  0  0  0
    3.2970    0.9670    0.1826 C   0  0  0  0  0  0  0  0  0  0  0  0
    4.5313    0.2629   -0.0965 N   0  0  0  0  0  0  0  0  0  0  0  0
    5.1198   -0.5523    0.9257 C   0  0  0  0  0  0  0  0  0  0  0  0
    4.5041   -0.5979    2.0208 O   0  0  0  0  0  0  0  0  0  0  0  0
    6.3618   -1.2828    0.6979 C   0  0  0  0  0  0  0  0  0  0  0  0
    6.8829   -2.0508    1.7139 C   0  0  0  0  0  0  0  0  0  0  0  0
    8.0725   -2.7678    1.5374 C   0  0  0  0  0  0  0  0  0  0  0  0
    8.7185   -2.6972    0.3338 C   0  0  0  0  0  0  0  0  0  0  0  0
    9.8660   -3.3875    0.1603 F   0  0  0  0  0  0  0  0  0  0  0  0
    8.1786   -1.9233   -0.6663 C   0  0  0  0  0  0  0  0  0  0  0  0
    7.0274   -1.2422   -0.4649 N   0  0  0  0  0  0  0  0  0  0  0  0
    3.3159    2.2384    0.7041 C   0  0  0  0  0  0  0  0  0  0  0  0
    2.1369    2.8827    0.9599 C   0  0  0  0  0  0  0  0  0  0  0  0
    0.8883    2.2795    0.7037 C   0  0  0  0  0  0  0  0  0  0  0  0
   -0.2682    3.0070    1.0001 O   0  0  0  0  0  0  0  0  0  0  0  0
   -1.4654    2.3655    0.7366 C   0  0  0  0  0  0  0  0  0  0  0  0
   -1.5603    1.1085    0.2193 C   0  0  0  0  0  0  0  0  0  0  0  0
   -2.8224    0.5372   -0.0026 C   0  0  0  0  0  0  0  0  0  0  0  0
   -3.9437    1.2358    0.2939 C   0  0  0  0  0  0  0  0  0  0  0  0
   -5.2675    0.6776    0.0769 C   0  0  0  0  0  0  0  0  0  0  0  0
   -6.3718    1.3964    0.3811 C   0  0  0  0  0  0  0  0  0  0  0  0
   -7.6484    0.6864    0.1015 C   0  0  0  0  0  0  0  0  0  0  0  0
   -7.5510    0.1626   -1.3154 C   0  0  0  0  0  0  0  0  0  0  0  0
   -6.4510   -0.6219   -1.5345 O   0  0  0  0  0  0  0  0  0  0  0  0
   -5.5555   -0.6630   -0.4693 C   0  0  0  0  0  0  0  0  0  0  0  0
   -3.8426    2.4863    0.8057 N   0  0  0  0  0  0  0  0  0  0  0  0
   -2.6517    3.0514    1.0277 C   0  0  0  0  0  0  0  0  0  0  0  0
   -2.5901    4.3159    1.5459 F   0  0  0  0  0  0  0  0  0  0  0  0
   -1.5200   -3.8924    0.5007 H   0  0  0  0  0  0  0  0  0  0  0  0
    0.1876   -3.7074    0.9592 H   0  0  0  0  0  0  0  0  0  0  0  0
    0.7126    0.2744   -2.0387 H   0  0  0  0  0  0  0  0  0  0  0  0
   -0.8578    1.1850   -2.0464 H   0  0  0  0  0  0  0  0  0  0  0  0
   -0.5874   -1.1276   -3.2749 H   0  0  0  0  0  0  0  0  0  0  0  0
   -2.1267   -0.6018   -2.5640 H   0  0  0  0  0  0  0  0  0  0  0  0
    2.0394   -0.6287   -0.4815 H   0  0  0  0  0  0  0  0  0  0  0  0
    5.0046    0.3334   -1.0238 H   0  0  0  0  0  0  0  0  0  0  0  0
    6.4177   -2.1449    2.6851 H   0  0  0  0  0  0  0  0  0  0  0  0
    8.4742   -3.3695    2.3441 H   0  0  0  0  0  0  0  0  0  0  0  0
    8.7065   -1.8762   -1.6247 H   0  0  0  0  0  0  0  0  0  0  0  0
    4.2542    2.7182    0.9075 H   0  0  0  0  0  0  0  0  0  0  0  0
    2.1106    3.8859    1.3711 H   0  0  0  0  0  0  0  0  0  0  0  0
   -2.8919   -0.4458   -0.3874 H   0  0  0  0  0  0  0  0  0  0  0  0
   -6.2661    2.3725    0.7801 H   0  0  0  0  0  0  0  0  0  0  0  0
   -7.8470   -0.1235    0.8240 H   0  0  0  0  0  0  0  0  0  0  0  0
   -8.4442    1.4602    0.0988 H   0  0  0  0  0  0  0  0  0  0  0  0
   -7.4430    1.0746   -1.9727 H   0  0  0  0  0  0  0  0  0  0  0  0
   -8.4612   -0.3925   -1.6149 H   0  0  0  0  0  0  0  0  0  0  0  0
   -6.0908   -1.2168    0.3583 H   0  0  0  0  0  0  0  0  0  0  0  0
   -4.6769   -1.2776   -0.6968 H   0  0  0  0  0  0  0  0  0  0  0  0
  1  2  1  0
  2  3  2  0
  3  4  1  0
  4  5  1  0
  5  6  1  0
  6  7  1  0
  4  8  1  0
  8  9  2  0
  9 10  1  0
 10 11  1  0
 11 12  1  0
 12 13  2  0
 12 14  1  0
 14 15  2  0
 15 16  1  0
 16 17  2  0
 17 18  1  0
 17 19  1  0
 19 20  2  0
 10 21  2  0
 21 22  1  0
 22 23  2  0
 23 24  1  0
 24 25  1  0
 25 26  2  0
 26 27  1  0
 27 28  2  0
 28 29  1  0
 29 30  2  0
 30 31  1  0
 31 32  1  0
 32 33  1  0
 33 34  1  0
 28 35  1  0
 35 36  2  0
 36 37  1  0
  7  2  1  0
 23  8  1  0
 36 25  1  0
 26  4  1  0
 34 29  1  0
 20 14  1  0
  1 38  1  0
  1 39  1  0
  5 40  1  0
  5 41  1  0
  6 42  1  0
  6 43  1  0
  9 44  1  0
 11 45  1  0
 15 46  1  0
 16 47  1  0
 19 48  1  0
 21 49  1  0
 22 50  1  0
 27 51  1  0
 30 52  1  0
 31 53  1  0
 31 54  1  0
 32 55  1  0
 32 56  1  0
 34 57  1  0
 34 58  1  0
M  END
$$$$
