
     RDKit          3D

 46 49  0  0  0  0  0  0  0  0999 V2000
    3.0892    4.1571    1.3099 C   0  0  0  0  0  0  0  0  0  0  0  0
    3.8132    2.9735    0.7562 C   0  0  0  0  0  0  0  0  0  0  0  0
    3.0249    2.0599   -0.0396 C   0  0  0  0  0  0  0  0  0  0  0  0
    2.2888    0.9738    0.1755 C   0  0  0  0  0  0  0  0  0  0  0  0
    1.6492    0.3153   -0.8013 C   0  0  0  0  0  0  0  0  0  0  0  0
    0.7816   -0.9357   -0.6200 C   0  0  0  0  0  0  0  0  0  0  0  0
   -0.6068   -0.6466   -0.9820 C   0  0  0  0  0  0  0  0  0  0  0  0
   -1.0242   -0.8485   -2.2940 C   0  0  0  0  0  0  0  0  0  0  0  0
   -2.3123   -0.5937   -2.7120 C   0  0  0  0  0  0  0  0  0  0  0  0
   -3.2193   -0.1189   -1.7845 C   0  0  0  0  0  0  0  0  0  0  0  0
   -2.8464    0.0922   -0.4848 C   0  0  0  0  0  0  0  0  0  0  0  0
   -3.8004    0.5902    0.4684 C   0  0  0  0  0  0  0  0  0  0  0  0
   -3.7867    0.2841    1.8085 C   0  0  0  0  0  0  0  0  0  0  0  0
   -4.7252    0.8105    2.5998 N   0  0  0  0  0  0  0  0  0  0  0  0
   -5.7018    1.6338    2.1746 C   0  0  0  0  0  0  0  0  0  0  0  0
   -5.7068    1.9270    0.8629 N   0  0  0  0  0  0  0  0  0  0  0  0
   -4.8028    1.4394    0.0124 C   0  0  0  0  0  0  0  0  0  0  0  0
   -1.5521   -0.1749   -0.1103 C   0  0  0  0  0  0  0  0  0  0  0  0
    1.3435   -1.9288   -1.4841 N   0  0  0  0  0  0  0  0  0  0  0  0
    1.7865   -2.9264   -0.8420 C   0  0  0  0  0  0  0  0  0  0  0  0
    2.4012   -4.0702   -1.4318 N   0  0  0  0  0  0  0  0  0  0  0  0
    1.5910   -2.7557    0.5480 N   0  0  0  0  0  0  0  0  0  0  0  0
    1.9755   -3.7046    1.6053 C   0  0  0  0  0  0  0  0  0  0  0  0
    0.9539   -1.4969    0.7201 C   0  0  0  0  0  0  0  0  0  0  0  0
    0.6428   -1.0491    1.8521 O   0  0  0  0  0  0  0  0  0  0  0  0
    1.7829    0.8161   -2.0797 C   0  0  0  0  0  0  0  0  0  0  0  0
    2.8340    2.2441   -1.8844 S   0  0  0  0  0  0  0  0  0  0  0  0
    2.3419    3.8876    2.0845 H   0  0  0  0  0  0  0  0  0  0  0  0
    3.8579    4.7739    1.8627 H   0  0  0  0  0  0  0  0  0  0  0  0
    2.6987    4.7875    0.5115 H   0  0  0  0  0  0  0  0  0  0  0  0
    4.6408    3.3797    0.1045 H   0  0  0  0  0  0  0  0  0  0  0  0
    4.3056    2.4228    1.5704 H   0  0  0  0  0  0  0  0  0  0  0  0
    2.1998    0.5890    1.2390 H   0  0  0  0  0  0  0  0  0  0  0  0
   -0.3410   -1.2239   -3.0642 H   0  0  0  0  0  0  0  0  0  0  0  0
   -2.6440   -0.7508   -3.7383 H   0  0  0  0  0  0  0  0  0  0  0  0
   -4.2309    0.0737   -2.1391 H   0  0  0  0  0  0  0  0  0  0  0  0
   -3.0038   -0.3747    2.1472 H   0  0  0  0  0  0  0  0  0  0  0  0
   -6.4225    2.0174    2.8781 H   0  0  0  0  0  0  0  0  0  0  0  0
   -4.8224    1.6903   -1.0557 H   0  0  0  0  0  0  0  0  0  0  0  0
   -1.2328   -0.0137    0.9223 H   0  0  0  0  0  0  0  0  0  0  0  0
    2.4027   -4.2229   -2.4637 H   0  0  0  0  0  0  0  0  0  0  0  0
    2.8751   -4.8012   -0.8440 H   0  0  0  0  0  0  0  0  0  0  0  0
    3.0220   -3.5576    1.8880 H   0  0  0  0  0  0  0  0  0  0  0  0
    1.7733   -4.7437    1.3034 H   0  0  0  0  0  0  0  0  0  0  0  0
    1.3441   -3.4631    2.4972 H   0  0  0  0  0  0  0  0  0  0  0  0
    1.3624    0.4630   -3.0473 H   0  0  0  0  0  0  0  0  0  0  0  0
  1  2  1  0
  2  3  1  0
  3  4  2  0
  4  5  1  0
  5  6  1  0
  6  7  1  0
  7  8  2  0
  8  9  1  0
  9 10  2  0
 10 11  1  0
 11 12  1  0
 12 13  2  0
 13 14  1  0
 14 15  2  0
 15 16  1  0
 16 17  2  0
 11 18  2  0
  6 19  1  0
 19 20  2  0
 20 21  1  0
 20 22  1  0
 22 23  1  0
 22 24  1  0
 24 25  2  0
  5 26  2  0
 26 27  1  0
 27  3  1  0
 24  6  1  0
 18  7  1  0
 17 12  1  0
  1 28  1  0
  1 29  1  0
  1 30  1  0
  2 31  1  0
  2 32  1  0
  4 33  1  0
  8 34  1  0
  9 35  1  0
 10 36  1  0
 13 37  1  0
 15 38  1  0
 17 39  1  0
 18 40  1  0
 21 41  1  0
 21 42  1  0
 23 43  1  0
 23 44  1  0
 23 45  1  0
 26 46  1  0
M  END
$$$$
