@<TRIPOS>MOLECULE
*****
 46 49 0 0 0
SMALL
GASTEIGER

@<TRIPOS>ATOM
      1 C           3.0892    4.1571    1.3099 C.3     1  UNL1       -0.0608
      2 C           3.8132    2.9735    0.7562 C.3     1  UNL1       -0.0243
      3 C           3.0249    2.0599   -0.0396 C.ar    1  UNL1       -0.0101
      4 C           2.2888    0.9738    0.1755 C.ar    1  UNL1       -0.0438
      5 C           1.6492    0.3153   -0.8013 C.ar    1  UNL1        0.0179
      6 C           0.7816   -0.9357   -0.6200 C.3     1  UNL1        0.2651
      7 C          -0.6068   -0.6466   -0.9820 C.ar    1  UNL1        0.0112
      8 C          -1.0242   -0.8485   -2.2940 C.ar    1  UNL1       -0.0540
      9 C          -2.3123   -0.5937   -2.7120 C.ar    1  UNL1       -0.0608
     10 C          -3.2193   -0.1189   -1.7845 C.ar    1  UNL1       -0.0539
     11 C          -2.8464    0.0922   -0.4848 C.ar    1  UNL1       -0.0146
     12 C          -3.8004    0.5902    0.4684 C.ar    1  UNL1        0.0183
     13 C          -3.7867    0.2841    1.8085 C.ar    1  UNL1        0.0385
     14 N          -4.7252    0.8105    2.5998 N.ar    1  UNL1       -0.2431
     15 C          -5.7018    1.6338    2.1746 C.ar    1  UNL1        0.1159
     16 N          -5.7068    1.9270    0.8629 N.ar    1  UNL1       -0.2431
     17 C          -4.8028    1.4394    0.0124 C.ar    1  UNL1        0.0385
     18 C          -1.5521   -0.1749   -0.1103 C.ar    1  UNL1       -0.0462
     19 N           1.3435   -1.9288   -1.4841 N.2     1  UNL1       -0.0890
     20 C           1.7865   -2.9264   -0.8420 C.2     1  UNL1        0.3731
     21 N           2.4012   -4.0702   -1.4318 N.pl3   1  UNL1       -0.2512
     22 N           1.5910   -2.7557    0.5480 N.am    1  UNL1       -0.1614
     23 C           1.9755   -3.7046    1.6053 C.3     1  UNL1        0.0573
     24 C           0.9539   -1.4969    0.7201 C.2     1  UNL1        0.3303
     25 O           0.6428   -1.0491    1.8521 O.2     1  UNL1       -0.2520
     26 C           1.7829    0.8161   -2.0797 C.ar    1  UNL1       -0.0163
     27 S           2.8340    2.2441   -1.8844 S.2     1  UNL1       -0.1012
     28 H           2.3419    3.8876    2.0845 H       1  UNL1        0.0233
     29 H           3.8579    4.7739    1.8627 H       1  UNL1        0.0233
     30 H           2.6987    4.7875    0.5115 H       1  UNL1        0.0233
     31 H           4.6408    3.3797    0.1045 H       1  UNL1        0.0316
     32 H           4.3056    2.4228    1.5704 H       1  UNL1        0.0316
     33 H           2.1998    0.5890    1.2390 H       1  UNL1        0.0630
     34 H          -0.3410   -1.2239   -3.0642 H       1  UNL1        0.0622
     35 H          -2.6440   -0.7508   -3.7383 H       1  UNL1        0.0618
     36 H          -4.2309    0.0737   -2.1391 H       1  UNL1        0.0624
     37 H          -3.0038   -0.3747    2.1472 H       1  UNL1        0.0837
     38 H          -6.4225    2.0174    2.8781 H       1  UNL1        0.1047
     39 H          -4.8224    1.6903   -1.0557 H       1  UNL1        0.0837
     40 H          -1.2328   -0.0137    0.9223 H       1  UNL1        0.0628
     41 H           2.4027   -4.2229   -2.4637 H       1  UNL1        0.2412
     42 H           2.8751   -4.8012   -0.8440 H       1  UNL1        0.2412
     43 H           3.0220   -3.5576    1.8880 H       1  UNL1        0.0602
     44 H           1.7733   -4.7437    1.3034 H       1  UNL1        0.0602
     45 H           1.3441   -3.4631    2.4972 H       1  UNL1        0.0602
     46 H           1.3624    0.4630   -3.0473 H       1  UNL1        0.0698
@<TRIPOS>BOND
     1     1     2    1
     2     2     3    1
     3     3     4   ar
     4     4     5   ar
     5     5     6    1
     6     6     7    1
     7     7     8   ar
     8     8     9   ar
     9     9    10   ar
    10    10    11   ar
    11    11    12    1
    12    12    13   ar
    13    13    14   ar
    14    14    15   ar
    15    15    16   ar
    16    16    17   ar
    17    11    18   ar
    18     6    19    1
    19    19    20    2
    20    20    21    1
    21    20    22    1
    22    22    23    1
    23    22    24   am
    24    24    25    2
    25     5    26   ar
    26    26    27   ar
    27    27     3   ar
    28    24     6    1
    29    18     7   ar
    30    17    12   ar
    31     1    28    1
    32     1    29    1
    33     1    30    1
    34     2    31    1
    35     2    32    1
    36     4    33    1
    37     8    34    1
    38     9    35    1
    39    10    36    1
    40    13    37    1
    41    15    38    1
    42    17    39    1
    43    18    40    1
    44    21    41    1
    45    21    42    1
    46    23    43    1
    47    23    44    1
    48    23    45    1
    49    26    46    1
