@<TRIPOS>MOLECULE
*****
 61 64 0 0 0
SMALL
GASTEIGER

@<TRIPOS>ATOM
      1 O           2.4277   -1.2928    3.0820 O.2     1  UNL1       -0.2495
      2 C           2.3765   -1.0897    1.8486 C.2     1  UNL1        0.3207
      3 O           3.4115   -1.6003    1.0946 O.3     1  UNL1       -0.4797
      4 C           1.2633   -0.3454    1.2727 C.3     1  UNL1        0.1184
      5 N           1.2193   -0.1889   -0.1176 N.3     1  UNL1       -0.1555
      6 C           0.3832   -1.0068   -0.8580 C.3     1  UNL1        0.0684
      7 C          -1.0369   -0.6687   -0.6043 C.ar    1  UNL1       -0.0255
      8 C          -1.4270    0.6317   -0.7397 C.ar    1  UNL1       -0.0562
      9 C          -2.6802    1.0852   -0.5360 C.ar    1  UNL1       -0.0536
     10 C          -3.7039    0.1746   -0.1504 C.ar    1  UNL1       -0.0144
     11 C          -5.0092    0.7863    0.0363 C.ar    1  UNL1        0.0241
     12 C          -5.0304    2.0577    0.6612 C.ar    1  UNL1       -0.0505
     13 C          -6.1816    2.7909    0.7845 C.ar    1  UNL1       -0.0610
     14 C          -7.3612    2.2961    0.2940 C.ar    1  UNL1       -0.0583
     15 C          -7.3634    1.0658   -0.3127 C.ar    1  UNL1       -0.0190
     16 C          -6.1655    0.3099   -0.4346 C.ar    1  UNL1        0.1377
     17 O          -6.2820   -0.9231   -1.0415 O.3     1  UNL1       -0.4051
     18 C          -6.8760   -1.9709   -0.2554 C.3     1  UNL1        0.5753
     19 F          -8.2158   -1.5240   -0.0241 F       1  UNL1       -0.1328
     20 F          -6.9077   -3.1528   -0.9137 F       1  UNL1       -0.1328
     21 F          -6.3721   -2.0682    1.0146 F       1  UNL1       -0.1328
     22 C          -3.3390   -1.1113   -0.0121 C.ar    1  UNL1       -0.0536
     23 C          -2.0176   -1.5478   -0.2338 C.ar    1  UNL1       -0.0562
     24 C           0.6965   -2.4881   -0.7705 C.3     1  UNL1       -0.0286
     25 C           0.2437   -2.5985   -2.2324 C.3     1  UNL1       -0.0490
     26 C           0.5875   -1.1298   -2.3438 C.3     1  UNL1       -0.0286
     27 S           2.0658    1.0959   -0.6922 S.O2    1  UNL1        0.0621
     28 O           1.6112    2.3594    0.0406 O.2     1  UNL1       -0.1528
     29 O           1.9387    1.4209   -2.1413 O.2     1  UNL1       -0.1528
     30 C           3.8090    1.0168   -0.3556 C.ar    1  UNL1        0.1057
     31 C           4.3121    1.5447    0.8059 C.ar    1  UNL1       -0.0319
     32 C           5.6671    1.4854    1.0719 C.ar    1  UNL1       -0.0179
     33 C           6.5689    0.9078    0.2086 C.ar    1  UNL1        0.1270
     34 O           7.9304    0.8223    0.4257 O.3     1  UNL1       -0.4342
     35 C           8.6445    1.2827    1.5161 C.3     1  UNL1        0.3893
     36 F           9.7425    2.0516    1.1755 F       1  UNL1       -0.1663
     37 F           9.1821    0.1509    2.1507 F       1  UNL1       -0.1663
     38 C           6.0072    0.3852   -0.9592 C.ar    1  UNL1       -0.0179
     39 C           4.6693    0.4306   -1.2471 C.ar    1  UNL1       -0.0319
     40 H           4.0840   -2.2680    1.4559 H       1  UNL1        0.2951
     41 H           0.2715   -0.8066    1.5842 H       1  UNL1        0.0559
     42 H           1.1931    0.6720    1.7763 H       1  UNL1        0.0559
     43 H          -0.6733    1.3654   -1.0397 H       1  UNL1        0.0621
     44 H          -2.9433    2.1534   -0.6599 H       1  UNL1        0.0624
     45 H          -4.0981    2.4459    1.0475 H       1  UNL1        0.0625
     46 H          -6.1760    3.7513    1.2611 H       1  UNL1        0.0618
     47 H          -8.2727    2.8657    0.3840 H       1  UNL1        0.0619
     48 H          -8.2934    0.6626   -0.7063 H       1  UNL1        0.0654
     49 H          -4.0749   -1.8431    0.2779 H       1  UNL1        0.0624
     50 H          -1.7970   -2.5953   -0.1032 H       1  UNL1        0.0621
     51 H           0.1555   -3.0839   -0.0487 H       1  UNL1        0.0287
     52 H           1.7744   -2.7342   -0.7600 H       1  UNL1        0.0287
     53 H          -0.8197   -2.8492   -2.2688 H       1  UNL1        0.0267
     54 H           0.8307   -3.2804   -2.8447 H       1  UNL1        0.0267
     55 H          -0.1941   -0.6383   -2.9669 H       1  UNL1        0.0287
     56 H           1.5684   -0.8906   -2.7387 H       1  UNL1        0.0287
     57 H           3.6219    2.0187    1.5284 H       1  UNL1        0.0638
     58 H           6.0376    1.9111    1.9987 H       1  UNL1        0.0655
     59 H           8.0151    1.7657    2.2734 H       1  UNL1        0.1520
     60 H           6.7223   -0.0752   -1.6483 H       1  UNL1        0.0655
     61 H           4.2793    0.0074   -2.1745 H       1  UNL1        0.0638
@<TRIPOS>BOND
     1     1     2    2
     2     2     3    1
     3     2     4    1
     4     4     5    1
     5     5     6    1
     6     6     7    1
     7     7     8   ar
     8     8     9   ar
     9     9    10   ar
    10    10    11    1
    11    11    12   ar
    12    12    13   ar
    13    13    14   ar
    14    14    15   ar
    15    15    16   ar
    16    16    17    1
    17    17    18    1
    18    18    19    1
    19    18    20    1
    20    18    21    1
    21    10    22   ar
    22    22    23   ar
    23     6    24    1
    24    24    25    1
    25    25    26    1
    26     5    27    1
    27    27    28    2
    28    27    29    2
    29    27    30    1
    30    30    31   ar
    31    31    32   ar
    32    32    33   ar
    33    33    34    1
    34    34    35    1
    35    35    36    1
    36    35    37    1
    37    33    38   ar
    38    38    39   ar
    39    26     6    1
    40    39    30   ar
    41    23     7   ar
    42    16    11   ar
    43     3    40    1
    44     4    41    1
    45     4    42    1
    46     8    43    1
    47     9    44    1
    48    12    45    1
    49    13    46    1
    50    14    47    1
    51    15    48    1
    52    22    49    1
    53    23    50    1
    54    24    51    1
    55    24    52    1
    56    25    53    1
    57    25    54    1
    58    26    55    1
    59    26    56    1
    60    31    57    1
    61    32    58    1
    62    35    59    1
    63    38    60    1
    64    39    61    1
