@<TRIPOS>MOLECULE
*****
 46 49 0 0 0
SMALL
GASTEIGER

@<TRIPOS>ATOM
      1 C          -4.4883   -0.0697    2.7475 C.3     1  UNL1       -0.0124
      2 N          -3.2820   -0.3539    1.9782 N.3     1  UNL1       -0.3007
      3 C          -2.3014    0.6609    2.1542 C.3     1  UNL1        0.0043
      4 C          -2.0483    1.5049    0.9353 C.3     1  UNL1        0.0008
      5 C          -1.6876    0.6223   -0.1835 C.ar    1  UNL1        0.0258
      6 C          -2.4988   -0.5062   -0.3232 C.ar    1  UNL1       -0.0049
      7 C          -2.0924   -1.2490   -1.3877 C.ar    1  UNL1        0.0045
      8 C          -2.4916   -2.4272   -2.0026 C.ar    1  UNL1       -0.0523
      9 C          -1.8618   -2.9476   -3.1111 C.ar    1  UNL1       -0.0611
     10 C          -0.7872   -2.2655   -3.6312 C.ar    1  UNL1       -0.0598
     11 C          -0.3596   -1.0864   -3.0452 C.ar    1  UNL1       -0.0376
     12 C          -1.0135   -0.5812   -1.9242 C.ar    1  UNL1        0.0499
     13 N          -0.7939    0.5430   -1.1750 N.ar    1  UNL1       -0.3391
     14 C           0.2441    1.5160   -1.3949 C.3     1  UNL1        0.0486
     15 C           1.5114    1.2267   -0.6778 C.ar    1  UNL1       -0.0277
     16 C           2.5038    0.4418   -1.2151 C.ar    1  UNL1       -0.0562
     17 C           3.7044    0.1631   -0.5530 C.ar    1  UNL1       -0.0493
     18 C           3.9448    0.6756    0.6910 C.ar    1  UNL1        0.0387
     19 C           5.1556    0.4499    1.4672 C.2     1  UNL1        0.2665
     20 O           5.3116    0.9580    2.6184 O.2     1  UNL1       -0.2681
     21 N           6.2054   -0.3364    0.9849 N.am    1  UNL1       -0.1935
     22 O           7.3542   -0.5653    1.6924 O.3     1  UNL1       -0.2949
     23 C           2.9453    1.4720    1.2432 C.ar    1  UNL1       -0.0493
     24 C           1.7587    1.7448    0.5835 C.ar    1  UNL1       -0.0562
     25 C          -3.5968   -0.7118    0.6390 C.3     1  UNL1        0.0260
     26 H          -5.3476   -0.2324    2.0966 H       1  UNL1        0.0391
     27 H          -4.4664   -0.7577    3.6277 H       1  UNL1        0.0391
     28 H          -4.4544    0.9613    3.1609 H       1  UNL1        0.0391
     29 H          -2.6451    1.3509    2.9541 H       1  UNL1        0.0430
     30 H          -1.3565    0.2098    2.5207 H       1  UNL1        0.0430
     31 H          -1.3449    2.2991    1.1721 H       1  UNL1        0.0340
     32 H          -3.0315    2.0349    0.7421 H       1  UNL1        0.0340
     33 H          -3.3265   -2.9437   -1.5870 H       1  UNL1        0.0624
     34 H          -2.1738   -3.8696   -3.5924 H       1  UNL1        0.0618
     35 H          -0.2915   -2.6849   -4.5123 H       1  UNL1        0.0618
     36 H           0.4737   -0.5686   -3.4673 H       1  UNL1        0.0638
     37 H          -0.0935    2.5429   -1.1452 H       1  UNL1        0.0541
     38 H           0.4591    1.5256   -2.4924 H       1  UNL1        0.0541
     39 H           2.3772    0.0085   -2.1962 H       1  UNL1        0.0621
     40 H           4.4597   -0.4572   -1.0066 H       1  UNL1        0.0625
     41 H           6.1329   -0.7775    0.0488 H       1  UNL1        0.1825
     42 H           7.5229    0.1734    2.3182 H       1  UNL1        0.2414
     43 H           3.1305    1.8842    2.2356 H       1  UNL1        0.0625
     44 H           1.0077    2.3771    1.0546 H       1  UNL1        0.0621
     45 H          -4.5100   -0.1658    0.3245 H       1  UNL1        0.0476
     46 H          -3.8583   -1.7894    0.6333 H       1  UNL1        0.0476
@<TRIPOS>BOND
     1     1     2    1
     2     2     3    1
     3     3     4    1
     4     4     5    1
     5     5     6   ar
     6     6     7   ar
     7     7     8   ar
     8     8     9   ar
     9     9    10   ar
    10    10    11   ar
    11    11    12   ar
    12    12    13   ar
    13    13    14    1
    14    14    15    1
    15    15    16   ar
    16    16    17   ar
    17    17    18   ar
    18    18    19    1
    19    19    20    2
    20    19    21   am
    21    21    22    1
    22    18    23   ar
    23    23    24   ar
    24     6    25    1
    25    25     2    1
    26    13     5   ar
    27    24    15   ar
    28    12     7   ar
    29     1    26    1
    30     1    27    1
    31     1    28    1
    32     3    29    1
    33     3    30    1
    34     4    31    1
    35     4    32    1
    36     8    33    1
    37     9    34    1
    38    10    35    1
    39    11    36    1
    40    14    37    1
    41    14    38    1
    42    16    39    1
    43    17    40    1
    44    21    41    1
    45    22    42    1
    46    23    43    1
    47    24    44    1
    48    25    45    1
    49    25    46    1
