@<TRIPOS>MOLECULE
*****
 54 56 0 0 0
SMALL
GASTEIGER

@<TRIPOS>ATOM
      1 C          -1.8283    5.8036   -0.8247 C.3     1  UNL1       -0.0653
      2 C          -2.2159    4.6960    0.1632 C.3     1  UNL1       -0.0555
      3 C          -1.1925    3.5988    0.0868 C.3     1  UNL1       -0.0465
      4 C          -1.5210    2.4657    1.0697 C.3     1  UNL1        0.0056
      5 C          -0.4430    1.4450    0.9062 C.ar    1  UNL1        0.1104
      6 N           0.6688    1.5762    1.6895 N.ar    1  UNL1       -0.2400
      7 C           1.5037    0.5829    1.3617 C.ar    1  UNL1        0.0531
      8 C           0.8619   -0.1312    0.3739 C.ar    1  UNL1        0.0622
      9 C           1.5635   -1.2560   -0.2235 C.2     1  UNL1       -0.0264
     10 C           2.7807   -1.4136   -0.7663 C.2     1  UNL1        0.0432
     11 C           3.7093   -0.2788   -0.8360 C.3     1  UNL1        0.0106
     12 C           4.9636   -0.5610   -0.1690 C.ar    1  UNL1       -0.0057
     13 C           5.4279   -0.4168    1.1255 C.ar    1  UNL1       -0.0512
     14 C           6.6804   -0.7397    1.4900 C.ar    1  UNL1       -0.0545
     15 C           7.4957   -1.2613    0.3618 C.ar    1  UNL1       -0.0241
     16 S           6.3160   -1.2091   -1.0899 S.2     1  UNL1       -0.1013
     17 C           3.1057   -2.7404   -1.2639 C.2     1  UNL1        0.3332
     18 O           2.2862   -3.8482   -1.2287 O.3     1  UNL1       -0.4773
     19 O           4.2160   -2.9365   -1.7759 O.2     1  UNL1       -0.2455
     20 N          -0.3545    0.3797    0.0681 N.ar    1  UNL1       -0.3236
     21 C          -1.3213   -0.0560   -0.9007 C.3     1  UNL1        0.0499
     22 C          -2.3004   -1.0308   -0.4156 C.ar    1  UNL1       -0.0277
     23 C          -2.1701   -2.3826   -0.3746 C.ar    1  UNL1       -0.0561
     24 C          -3.0630   -3.3373    0.0560 C.ar    1  UNL1       -0.0475
     25 C          -4.2881   -2.8417    0.5195 C.ar    1  UNL1        0.0589
     26 C          -4.5191   -1.4917    0.5190 C.ar    1  UNL1       -0.0475
     27 C          -3.5384   -0.6146    0.0582 C.ar    1  UNL1       -0.0561
     28 C          -5.2915   -3.7902    0.9913 C.2     1  UNL1        0.3368
     29 O          -6.5157   -3.3433    1.4613 O.3     1  UNL1       -0.4771
     30 O          -5.0295   -5.0169    0.9656 O.2     1  UNL1       -0.2451
     31 H          -1.5476    5.3095   -1.7637 H       1  UNL1        0.0230
     32 H          -0.9695    6.3329   -0.3603 H       1  UNL1        0.0230
     33 H          -2.6563    6.5200   -0.9821 H       1  UNL1        0.0230
     34 H          -2.3403    5.1209    1.1592 H       1  UNL1        0.0263
     35 H          -3.1961    4.3195   -0.2250 H       1  UNL1        0.0263
     36 H          -0.1826    3.9662    0.3587 H       1  UNL1        0.0269
     37 H          -1.1728    3.1967   -0.9407 H       1  UNL1        0.0269
     38 H          -1.5393    2.8965    2.1010 H       1  UNL1        0.0343
     39 H          -2.5204    2.1010    0.8705 H       1  UNL1        0.0343
     40 H           2.4285    0.5152    1.8746 H       1  UNL1        0.0851
     41 H           0.9179   -2.1276   -0.1900 H       1  UNL1        0.0644
     42 H           3.2795    0.6363   -0.3317 H       1  UNL1        0.0369
     43 H           3.8993    0.0058   -1.9160 H       1  UNL1        0.0369
     44 H           4.7076   -0.0233    1.8214 H       1  UNL1        0.0626
     45 H           7.0714   -0.6387    2.4850 H       1  UNL1        0.0623
     46 H           8.6511   -1.5528    0.7203 H       1  UNL1        0.0693
     47 H           2.6103   -4.7768   -0.9141 H       1  UNL1        0.2954
     48 H          -1.8658    0.8278   -1.3448 H       1  UNL1        0.0542
     49 H          -0.7802   -0.4816   -1.7968 H       1  UNL1        0.0542
     50 H          -1.2442   -2.8258   -0.7316 H       1  UNL1        0.0621
     51 H          -2.8785   -4.3910    0.0556 H       1  UNL1        0.0626
     52 H          -5.4901   -1.1952    0.8973 H       1  UNL1        0.0626
     53 H          -3.8852    0.3974    0.1169 H       1  UNL1        0.0621
     54 H          -7.2839   -3.9830    1.5592 H       1  UNL1        0.2954
@<TRIPOS>BOND
     1     1     2    1
     2     2     3    1
     3     3     4    1
     4     4     5    1
     5     5     6   ar
     6     6     7   ar
     7     7     8   ar
     8     8     9    1
     9     9    10    2
    10    10    11    1
    11    11    12    1
    12    12    13   ar
    13    13    14   ar
    14    14    15   ar
    15    15    16   ar
    16    10    17    1
    17    17    18    1
    18    17    19    2
    19     8    20   ar
    20    20    21    1
    21    21    22    1
    22    22    23   ar
    23    23    24   ar
    24    24    25   ar
    25    25    26   ar
    26    26    27   ar
    27    25    28    1
    28    28    29    1
    29    28    30    2
    30    20     5   ar
    31    27    22   ar
    32    16    12   ar
    33     1    31    1
    34     1    32    1
    35     1    33    1
    36     2    34    1
    37     2    35    1
    38     3    36    1
    39     3    37    1
    40     4    38    1
    41     4    39    1
    42     7    40    1
    43     9    41    1
    44    11    42    1
    45    11    43    1
    46    13    44    1
    47    14    45    1
    48    15    46    1
    49    18    47    1
    50    21    48    1
    51    21    49    1
    52    23    50    1
    53    24    51    1
    54    26    52    1
    55    27    53    1
    56    29    54    1
