@<TRIPOS>MOLECULE
*****
 32 33 0 0 0
SMALL
GASTEIGER

@<TRIPOS>ATOM
      1 C          -3.6621    2.0930   -0.2504 C.3     1  UNL1        0.0181
      2 N          -2.7465    0.9652   -0.1821 N.ar    1  UNL1       -0.2796
      3 C          -1.4692    1.2243    0.1791 C.ar    1  UNL1        0.1678
      4 C          -0.5305    0.2409    0.2741 C.ar    1  UNL1        0.1515
      5 N           0.6783    0.7277    0.6525 N.ar    1  UNL1       -0.3220
      6 C           1.9495    0.1198    0.8797 C.3     1  UNL1        0.0530
      7 C           2.8343    0.0753   -0.3273 C.3     1  UNL1        0.0961
      8 O           2.2907   -0.6342   -1.3936 O.3     1  UNL1       -0.3878
      9 C           4.1975   -0.4835    0.0236 C.3     1  UNL1        0.0718
     10 O           4.6827    0.2759    1.1008 O.3     1  UNL1       -0.3924
     11 C           0.4400    2.0665    0.7878 C.ar    1  UNL1        0.0990
     12 N          -0.8435    2.3631    0.5048 N.ar    1  UNL1       -0.2177
     13 C          -0.8841   -1.0451   -0.0020 C.ar    1  UNL1        0.2822
     14 O          -0.0694   -1.9722    0.0704 O.2     1  UNL1       -0.2652
     15 N          -2.1639   -1.3015   -0.3635 N.ar    1  UNL1       -0.2622
     16 C          -2.6170   -2.6500   -0.6740 C.3     1  UNL1        0.0196
     17 C          -3.0791   -0.3188   -0.4528 C.ar    1  UNL1        0.3331
     18 O          -4.2564   -0.5178   -0.7800 O.2     1  UNL1       -0.2462
     19 H          -3.2700    2.9015   -0.8999 H       1  UNL1        0.0458
     20 H          -4.6501    1.7117   -0.5705 H       1  UNL1        0.0458
     21 H          -3.7937    2.4625    0.7963 H       1  UNL1        0.0458
     22 H           2.5009    0.7184    1.6456 H       1  UNL1        0.0518
     23 H           1.8877   -0.9106    1.2793 H       1  UNL1        0.0518
     24 H           3.0403    1.1244   -0.6938 H       1  UNL1        0.0634
     25 H           2.9629   -1.1083   -1.9459 H       1  UNL1        0.2100
     26 H           4.8881   -0.2315   -0.8219 H       1  UNL1        0.0583
     27 H           4.2101   -1.5593    0.2235 H       1  UNL1        0.0583
     28 H           4.6092   -0.1944    1.9579 H       1  UNL1        0.2095
     29 H           1.1712    2.8143    1.0832 H       1  UNL1        0.1029
     30 H          -3.0900   -3.0274    0.2761 H       1  UNL1        0.0458
     31 H          -1.7783   -3.2903   -0.9556 H       1  UNL1        0.0458
     32 H          -3.4397   -2.6397   -1.4212 H       1  UNL1        0.0458
@<TRIPOS>BOND
     1     1     2    1
     2     2     3   ar
     3     3     4   ar
     4     4     5   ar
     5     5     6    1
     6     6     7    1
     7     7     8    1
     8     7     9    1
     9     9    10    1
    10     5    11   ar
    11    11    12   ar
    12     4    13   ar
    13    13    14    2
    14    13    15   ar
    15    15    16    1
    16    15    17   ar
    17    17    18    2
    18    17     2   ar
    19    12     3   ar
    20     1    19    1
    21     1    20    1
    22     1    21    1
    23     6    22    1
    24     6    23    1
    25     7    24    1
    26     8    25    1
    27     9    26    1
    28     9    27    1
    29    10    28    1
    30    11    29    1
    31    16    30    1
    32    16    31    1
    33    16    32    1
