
     RDKit          3D

 73 75  0  0  0  0  0  0  0  0999 V2000
   -9.3769    2.2039    0.7073 C   0  0  0  0  0  0  0  0  0  0  0  0
   -8.5238    0.9895    0.5118 C   0  0  0  0  0  0  0  0  0  0  0  0
   -9.0568   -0.2842    0.7380 C   0  0  0  0  0  0  0  0  0  0  0  0
   -8.2329   -1.3733    0.5446 C   0  0  0  0  0  0  0  0  0  0  0  0
   -6.9155   -1.2252    0.1387 C   0  0  0  0  0  0  0  0  0  0  0  0
   -6.0746   -2.3941   -0.0544 C   0  0  0  0  0  0  0  0  0  0  0  0
   -6.4187    0.0307   -0.0757 C   0  0  0  0  0  0  0  0  0  0  0  0
   -5.0291    0.2016   -0.5046 C   0  0  0  0  0  0  0  0  0  0  0  0
   -4.1055   -0.0086    0.6542 C   0  0  0  0  0  0  0  0  0  0  0  0
   -2.6630    0.1349    0.3475 C   0  0  0  0  0  0  0  0  0  0  0  0
   -2.1207   -0.7970   -0.6803 C   0  0  0  0  0  0  0  0  0  0  0  0
   -0.6212   -0.8797   -0.4989 C   0  0  0  0  0  0  0  0  0  0  0  0
   -0.1249    0.4344   -0.2379 N   0  0  0  0  0  0  0  0  0  0  0  0
    1.5146    0.6303   -0.7808 S   0  0  0  0  0  6  0  0  0  0  0  0
    1.5027    0.3593   -2.2589 O   0  0  0  0  0  0  0  0  0  0  0  0
    1.8911    2.0523   -0.5775 O   0  0  0  0  0  0  0  0  0  0  0  0
    2.5021   -0.5026    0.1046 C   0  0  0  0  0  0  0  0  0  0  0  0
    3.9862   -0.4224   -0.2916 C   0  0  2  0  0  0  0  0  0  0  0  0
    4.0331   -0.7469   -1.7759 C   0  0  0  0  0  0  0  0  0  0  0  0
    4.6725   -1.4477    0.5371 C   0  0  0  0  0  0  0  0  0  0  0  0
    6.1292   -1.6201    0.3664 C   0  0  2  0  0  0  0  0  0  0  0  0
    6.5744   -2.7353    1.3234 C   0  0  0  0  0  0  0  0  0  0  0  0
    6.9728   -0.4364    0.5052 C   0  0  0  0  0  0  0  0  0  0  0  0
    7.1570    0.1071    1.7084 N   0  0  0  0  0  0  0  0  0  0  0  0
    7.9179    1.1888    1.8951 C   0  0  0  0  0  0  0  0  0  0  0  0
    8.5317    1.7633    0.8198 C   0  0  0  0  0  0  0  0  0  0  0  0
    9.3268    2.8673    0.9072 F   0  0  0  0  0  0  0  0  0  0  0  0
    8.3327    1.1909   -0.4188 C   0  0  0  0  0  0  0  0  0  0  0  0
    7.5706    0.1233   -0.5412 N   0  0  0  0  0  0  0  0  0  0  0  0
    4.3943    0.9309   -0.1033 N   0  0  0  0  0  0  0  0  0  0  0  0
    4.8893    1.6516   -1.1638 O   0  0  0  0  0  0  0  0  0  0  0  0
    4.2946    1.5473    1.1767 C   0  0  0  0  0  0  0  0  0  0  0  0
    3.8649    0.9775    2.1952 O   0  0  0  0  0  0  0  0  0  0  0  0
   -0.9331    1.5080   -0.7635 C   0  0  0  0  0  0  0  0  0  0  0  0
   -2.2813    1.5397   -0.0820 C   0  0  0  0  0  0  0  0  0  0  0  0
   -7.2127    1.1496    0.1071 C   0  0  0  0  0  0  0  0  0  0  0  0
   -8.7916    2.9434    1.3024 H   0  0  0  0  0  0  0  0  0  0  0  0
   -9.5596    2.7094   -0.2807 H   0  0  0  0  0  0  0  0  0  0  0  0
  -10.2987    1.8896    1.2041 H   0  0  0  0  0  0  0  0  0  0  0  0
  -10.0841   -0.3993    1.0545 H   0  0  0  0  0  0  0  0  0  0  0  0
   -8.6340   -2.3492    0.7159 H   0  0  0  0  0  0  0  0  0  0  0  0
   -6.7132   -3.2008   -0.5301 H   0  0  0  0  0  0  0  0  0  0  0  0
   -5.2097   -2.3030   -0.7001 H   0  0  0  0  0  0  0  0  0  0  0  0
   -5.8417   -2.8181    0.9516 H   0  0  0  0  0  0  0  0  0  0  0  0
   -4.6983   -0.4653   -1.3249 H   0  0  0  0  0  0  0  0  0  0  0  0
   -4.9374    1.2410   -0.9303 H   0  0  0  0  0  0  0  0  0  0  0  0
   -4.2817   -1.0103    1.0924 H   0  0  0  0  0  0  0  0  0  0  0  0
   -4.3300    0.7110    1.4958 H   0  0  0  0  0  0  0  0  0  0  0  0
   -2.0701   -0.0478    1.2913 H   0  0  0  0  0  0  0  0  0  0  0  0
   -2.2771   -0.3682   -1.7123 H   0  0  0  0  0  0  0  0  0  0  0  0
   -2.5817   -1.8045   -0.6608 H   0  0  0  0  0  0  0  0  0  0  0  0
   -0.1730   -1.2143   -1.4706 H   0  0  0  0  0  0  0  0  0  0  0  0
   -0.4145   -1.6124    0.3077 H   0  0  0  0  0  0  0  0  0  0  0  0
    2.4036   -0.4946    1.1821 H   0  0  0  0  0  0  0  0  0  0  0  0
    2.1992   -1.5403   -0.2230 H   0  0  0  0  0  0  0  0  0  0  0  0
    3.8333    0.1995   -2.3226 H   0  0  0  0  0  0  0  0  0  0  0  0
    5.0066   -1.1837   -1.9953 H   0  0  0  0  0  0  0  0  0  0  0  0
    3.2521   -1.4635   -2.0803 H   0  0  0  0  0  0  0  0  0  0  0  0
    4.1121   -2.4131    0.3604 H   0  0  0  0  0  0  0  0  0  0  0  0
    4.4166   -1.2138    1.6141 H   0  0  0  0  0  0  0  0  0  0  0  0
    6.2701   -2.0608   -0.6675 H   0  0  0  0  0  0  0  0  0  0  0  0
    7.2752   -3.4265    0.8315 H   0  0  0  0  0  0  0  0  0  0  0  0
    5.7108   -3.2393    1.7896 H   0  0  0  0  0  0  0  0  0  0  0  0
    7.1391   -2.2292    2.1411 H   0  0  0  0  0  0  0  0  0  0  0  0
    8.0682    1.6342    2.8857 H   0  0  0  0  0  0  0  0  0  0  0  0
    8.8063    1.6183   -1.3144 H   0  0  0  0  0  0  0  0  0  0  0  0
    5.1171    2.5504   -0.8562 H   0  0  0  0  0  0  0  0  0  0  0  0
    4.6127    2.5805    1.2751 H   0  0  0  0  0  0  0  0  0  0  0  0
   -0.4341    2.4704   -0.6708 H   0  0  0  0  0  0  0  0  0  0  0  0
   -1.1130    1.2991   -1.8381 H   0  0  0  0  0  0  0  0  0  0  0  0
   -2.2247    2.1692    0.8268 H   0  0  0  0  0  0  0  0  0  0  0  0
   -3.0561    1.9719   -0.7367 H   0  0  0  0  0  0  0  0  0  0  0  0
   -6.8666    2.1615   -0.0492 H   0  0  0  0  0  0  0  0  0  0  0  0
  1  2  1  0
  2  3  2  0
  3  4  1  0
  4  5  2  0
  5  6  1  0
  5  7  1  0
  7  8  1  0
  8  9  1  0
  9 10  1  0
 10 11  1  0
 11 12  1  0
 12 13  1  0
 13 14  1  0
 14 15  2  0
 14 16  2  0
 14 17  1  0
 17 18  1  0
 18 19  1  0
 18 20  1  0
 20 21  1  0
 21 22  1  0
 21 23  1  0
 23 24  2  0
 24 25  1  0
 25 26  2  0
 26 27  1  0
 26 28  1  0
 28 29  2  0
 18 30  1  6
 30 31  1  0
 30 32  1  0
 32 33  2  0
 13 34  1  0
 34 35  1  0
  7 36  2  0
 36  2  1  0
 35 10  1  0
 29 23  1  0
  1 37  1  0
  1 38  1  0
  1 39  1  0
  3 40  1  0
  4 41  1  0
  6 42  1  0
  6 43  1  0
  6 44  1  0
  8 45  1  0
  8 46  1  0
  9 47  1  0
  9 48  1  0
 10 49  1  0
 11 50  1  0
 11 51  1  0
 12 52  1  0
 12 53  1  0
 17 54  1  0
 17 55  1  0
 19 56  1  0
 19 57  1  0
 19 58  1  0
 20 59  1  0
 20 60  1  0
 21 61  1  6
 22 62  1  0
 22 63  1  0
 22 64  1  0
 25 65  1  0
 28 66  1  0
 31 67  1  0
 32 68  1  0
 34 69  1  0
 34 70  1  0
 35 71  1  0
 35 72  1  0
 36 73  1  0
M  END
$$$$
