@<TRIPOS>MOLECULE
*****
 73 75 0 0 0
SMALL
GASTEIGER

@<TRIPOS>ATOM
      1 C          -9.3769    2.2039    0.7073 C.3     1  UNL1       -0.0397
      2 C          -8.5238    0.9895    0.5118 C.ar    1  UNL1       -0.0502
      3 C          -9.0568   -0.2842    0.7380 C.ar    1  UNL1       -0.0586
      4 C          -8.2329   -1.3733    0.5446 C.ar    1  UNL1       -0.0583
      5 C          -6.9155   -1.2252    0.1387 C.ar    1  UNL1       -0.0473
      6 C          -6.0746   -2.3941   -0.0544 C.3     1  UNL1       -0.0395
      7 C          -6.4187    0.0307   -0.0757 C.ar    1  UNL1       -0.0442
      8 C          -5.0291    0.2016   -0.5046 C.3     1  UNL1       -0.0272
      9 C          -4.1055   -0.0086    0.6542 C.3     1  UNL1       -0.0461
     10 C          -2.6630    0.1349    0.3475 C.3     1  UNL1       -0.0383
     11 C          -2.1207   -0.7970   -0.6803 C.3     1  UNL1       -0.0357
     12 C          -0.6212   -0.8797   -0.4989 C.3     1  UNL1        0.0204
     13 N          -0.1249    0.4344   -0.2379 N.3     1  UNL1       -0.1810
     14 S           1.5146    0.6303   -0.7808 S.O2    1  UNL1        0.0339
     15 O           1.5027    0.3593   -2.2589 O.2     1  UNL1       -0.1580
     16 O           1.8911    2.0523   -0.5775 O.2     1  UNL1       -0.1580
     17 C           2.5021   -0.5026    0.1046 C.3     1  UNL1        0.1053
     18 C           3.9862   -0.4224   -0.2916 C.3     1  UNL1        0.0821
     19 C           4.0331   -0.7469   -1.7759 C.3     1  UNL1       -0.0396
     20 C           4.6725   -1.4477    0.5371 C.3     1  UNL1       -0.0183
     21 C           6.1292   -1.6201    0.3664 C.3     1  UNL1        0.0182
     22 C           6.5744   -2.7353    1.3234 C.3     1  UNL1       -0.0554
     23 C           6.9728   -0.4364    0.5052 C.ar    1  UNL1        0.1320
     24 N           7.1570    0.1071    1.7084 N.ar    1  UNL1       -0.2372
     25 C           7.9179    1.1888    1.8951 C.ar    1  UNL1        0.0663
     26 C           8.5317    1.7633    0.8198 C.ar    1  UNL1        0.1594
     27 F           9.3268    2.8673    0.9072 F       1  UNL1       -0.2023
     28 C           8.3327    1.1909   -0.4188 C.ar    1  UNL1        0.0663
     29 N           7.5706    0.1233   -0.5412 N.ar    1  UNL1       -0.2372
     30 N           4.3943    0.9309   -0.1033 N.am    1  UNL1       -0.1788
     31 O           4.8893    1.6516   -1.1638 O.3     1  UNL1       -0.2921
     32 C           4.2946    1.5473    1.1767 C.2     1  UNL1        0.2256
     33 O           3.8649    0.9775    2.1952 O.2     1  UNL1       -0.2772
     34 C          -0.9331    1.5080   -0.7635 C.3     1  UNL1        0.0204
     35 C          -2.2813    1.5397   -0.0820 C.3     1  UNL1       -0.0357
     36 C          -7.2127    1.1496    0.1071 C.ar    1  UNL1       -0.0554
     37 H          -8.7916    2.9434    1.3024 H       1  UNL1        0.0278
     38 H          -9.5596    2.7094   -0.2807 H       1  UNL1        0.0278
     39 H         -10.2987    1.8896    1.2041 H       1  UNL1        0.0278
     40 H         -10.0841   -0.3993    1.0545 H       1  UNL1        0.0620
     41 H          -8.6340   -2.3492    0.7159 H       1  UNL1        0.0620
     42 H          -6.7132   -3.2008   -0.5301 H       1  UNL1        0.0278
     43 H          -5.2097   -2.3030   -0.7001 H       1  UNL1        0.0278
     44 H          -5.8417   -2.8181    0.9516 H       1  UNL1        0.0278
     45 H          -4.6983   -0.4653   -1.3249 H       1  UNL1        0.0313
     46 H          -4.9374    1.2410   -0.9303 H       1  UNL1        0.0313
     47 H          -4.2817   -1.0103    1.0924 H       1  UNL1        0.0271
     48 H          -4.3300    0.7110    1.4958 H       1  UNL1        0.0271
     49 H          -2.0701   -0.0478    1.2913 H       1  UNL1        0.0302
     50 H          -2.2771   -0.3682   -1.7123 H       1  UNL1        0.0281
     51 H          -2.5817   -1.8045   -0.6608 H       1  UNL1        0.0281
     52 H          -0.1730   -1.2143   -1.4706 H       1  UNL1        0.0444
     53 H          -0.4145   -1.6124    0.3077 H       1  UNL1        0.0444
     54 H           2.4036   -0.4946    1.1821 H       1  UNL1        0.0538
     55 H           2.1992   -1.5403   -0.2230 H       1  UNL1        0.0538
     56 H           3.8333    0.1995   -2.3226 H       1  UNL1        0.0252
     57 H           5.0066   -1.1837   -1.9953 H       1  UNL1        0.0252
     58 H           3.2521   -1.4635   -2.0803 H       1  UNL1        0.0252
     59 H           4.1121   -2.4131    0.3604 H       1  UNL1        0.0294
     60 H           4.4166   -1.2138    1.6141 H       1  UNL1        0.0294
     61 H           6.2701   -2.0608   -0.6675 H       1  UNL1        0.0377
     62 H           7.2752   -3.4265    0.8315 H       1  UNL1        0.0236
     63 H           5.7108   -3.2393    1.7896 H       1  UNL1        0.0236
     64 H           7.1391   -2.2292    2.1411 H       1  UNL1        0.0236
     65 H           8.0682    1.6342    2.8857 H       1  UNL1        0.0860
     66 H           8.8063    1.6183   -1.3144 H       1  UNL1        0.0860
     67 H           5.1171    2.5504   -0.8562 H       1  UNL1        0.2417
     68 H           4.6127    2.5805    1.2751 H       1  UNL1        0.1274
     69 H          -0.4341    2.4704   -0.6708 H       1  UNL1        0.0444
     70 H          -1.1130    1.2991   -1.8381 H       1  UNL1        0.0444
     71 H          -2.2247    2.1692    0.8268 H       1  UNL1        0.0281
     72 H          -3.0561    1.9719   -0.7367 H       1  UNL1        0.0281
     73 H          -6.8666    2.1615   -0.0492 H       1  UNL1        0.0623
@<TRIPOS>BOND
     1     1     2    1
     2     2     3   ar
     3     3     4   ar
     4     4     5   ar
     5     5     6    1
     6     5     7   ar
     7     7     8    1
     8     8     9    1
     9     9    10    1
    10    10    11    1
    11    11    12    1
    12    12    13    1
    13    13    14    1
    14    14    15    2
    15    14    16    2
    16    14    17    1
    17    17    18    1
    18    18    19    1
    19    18    20    1
    20    20    21    1
    21    21    22    1
    22    21    23    1
    23    23    24   ar
    24    24    25   ar
    25    25    26   ar
    26    26    27    1
    27    26    28   ar
    28    28    29   ar
    29    18    30    1
    30    30    31    1
    31    30    32   am
    32    32    33    2
    33    13    34    1
    34    34    35    1
    35     7    36   ar
    36    36     2   ar
    37    35    10    1
    38    29    23   ar
    39     1    37    1
    40     1    38    1
    41     1    39    1
    42     3    40    1
    43     4    41    1
    44     6    42    1
    45     6    43    1
    46     6    44    1
    47     8    45    1
    48     8    46    1
    49     9    47    1
    50     9    48    1
    51    10    49    1
    52    11    50    1
    53    11    51    1
    54    12    52    1
    55    12    53    1
    56    17    54    1
    57    17    55    1
    58    19    56    1
    59    19    57    1
    60    19    58    1
    61    20    59    1
    62    20    60    1
    63    21    61    1
    64    22    62    1
    65    22    63    1
    66    22    64    1
    67    25    65    1
    68    28    66    1
    69    31    67    1
    70    32    68    1
    71    34    69    1
    72    34    70    1
    73    35    71    1
    74    35    72    1
    75    36    73    1
