@<TRIPOS>MOLECULE
*****
 83 86 0 0 0
SMALL
GASTEIGER

@<TRIPOS>ATOM
      1 C           2.7766    0.6497    0.1348 C.3     1  UNL1        0.0738
      2 C           3.1157    1.7833    1.1131 C.3     1  UNL1       -0.0271
      3 C           4.2065    2.6497    0.5078 C.3     1  UNL1       -0.0537
      4 C           4.5733    3.7605    1.4356 C.3     1  UNL1       -0.0652
      5 C           4.0270   -0.1603   -0.0995 C.2     1  UNL1       -0.0418
      6 C           4.8110   -0.3760   -1.1503 C.2     1  UNL1        0.0554
      7 S           6.2675   -1.3211   -1.4061 S.O2    1  UNL1        0.0182
      8 O           6.1524   -2.6448   -0.7312 O.2     1  UNL1       -0.1649
      9 O           6.4257   -1.4683   -2.8878 O.2     1  UNL1       -0.1649
     10 C           7.6117   -0.4221   -0.7817 C.ar    1  UNL1        0.0929
     11 C           8.3108    0.5445   -1.4918 C.ar    1  UNL1       -0.0365
     12 C           9.3807    1.2505   -0.9910 C.ar    1  UNL1       -0.0599
     13 C           9.8410    1.0358    0.2898 C.ar    1  UNL1       -0.0616
     14 C           9.1521    0.0658    1.0216 C.ar    1  UNL1       -0.0599
     15 C           8.0845   -0.6323    0.5106 C.ar    1  UNL1       -0.0365
     16 N           1.6897   -0.1432    0.6180 N.2     1  UNL1       -0.2454
     17 C           0.5638   -0.3321    0.0435 C.2     1  UNL1        0.2088
     18 O           0.5601    0.3668   -1.1466 O.2     1  UNL1       -0.4942
     19 C          -0.4575   -1.2055    0.7136 C.3     1  UNL1        0.1344
     20 C          -0.6807   -2.4201   -0.1540 C.3     1  UNL1        0.0036
     21 C           0.5404   -3.2209   -0.3718 C.ar    1  UNL1       -0.0449
     22 C           0.9108   -4.2551    0.4826 C.ar    1  UNL1       -0.0585
     23 C           2.0840   -4.9291    0.1452 C.ar    1  UNL1       -0.0615
     24 C           2.8524   -4.6102   -0.9663 C.ar    1  UNL1       -0.0617
     25 C           2.4550   -3.5725   -1.8002 C.ar    1  UNL1       -0.0615
     26 C           1.2793   -2.8907   -1.4689 C.ar    1  UNL1       -0.0585
     27 N          -1.7431   -0.5273    0.7490 N.2     1  UNL1       -0.2236
     28 C          -2.0910    0.4987    1.2804 C.2     1  UNL1        0.2787
     29 O          -2.1100    1.7171    2.0309 O.2     1  UNL1       -0.4816
     30 N          -3.4457    0.3981    0.8104 N.pl3   1  UNL1       -0.2857
     31 C          -4.4124   -0.3228    1.6102 C.3     1  UNL1        0.0177
     32 C          -5.7582    0.2971    1.2984 C.3     1  UNL1       -0.0214
     33 C          -6.0077    0.2216   -0.1664 C.3     1  UNL1        0.0134
     34 C          -5.0128    0.9065   -1.0373 C.3     1  UNL1       -0.0214
     35 C          -3.6536    1.0767   -0.4567 C.3     1  UNL1        0.0177
     36 N          -7.3409    0.6198   -0.5602 N.3     1  UNL1       -0.2950
     37 C          -8.3510   -0.2578    0.0344 C.3     1  UNL1        0.0227
     38 C          -9.6513    0.1386   -0.6793 C.3     1  UNL1        0.0604
     39 O          -9.9746    1.4485   -0.4373 O.3     1  UNL1       -0.3772
     40 C          -8.9799    2.3230   -0.8847 C.3     1  UNL1        0.0604
     41 C          -7.6991    1.9563   -0.1370 C.3     1  UNL1        0.0227
     42 H           2.5141    1.1030   -0.8348 H       1  UNL1        0.0590
     43 H           2.1867    2.3674    1.2741 H       1  UNL1        0.0289
     44 H           3.4382    1.3557    2.0652 H       1  UNL1        0.0289
     45 H           3.8970    3.0216   -0.4795 H       1  UNL1        0.0263
     46 H           5.1160    2.0054    0.3877 H       1  UNL1        0.0263
     47 H           3.7278    4.4678    1.6456 H       1  UNL1        0.0230
     48 H           4.9371    3.3142    2.3883 H       1  UNL1        0.0230
     49 H           5.3959    4.3746    1.0244 H       1  UNL1        0.0230
     50 H           4.1958   -0.5973    0.8772 H       1  UNL1        0.0606
     51 H           4.3363    0.2112   -1.9496 H       1  UNL1        0.0821
     52 H           7.9951    0.7566   -2.5008 H       1  UNL1        0.0637
     53 H           9.9134    1.9985   -1.5644 H       1  UNL1        0.0618
     54 H          10.6619    1.5546    0.7231 H       1  UNL1        0.0618
     55 H           9.5170   -0.1071    2.0330 H       1  UNL1        0.0618
     56 H           7.5874   -1.3716    1.1267 H       1  UNL1        0.0637
     57 H           0.5645    1.3702   -1.1959 H       1  UNL1        0.2935
     58 H          -0.1436   -1.4222    1.7317 H       1  UNL1        0.0647
     59 H          -1.4606   -3.1011    0.2940 H       1  UNL1        0.0339
     60 H          -1.1519   -2.0643   -1.0979 H       1  UNL1        0.0339
     61 H           0.2912   -4.4745    1.3363 H       1  UNL1        0.0620
     62 H           2.2839   -5.7188    0.8829 H       1  UNL1        0.0618
     63 H           3.7375   -5.2554   -1.0649 H       1  UNL1        0.0618
     64 H           3.1502   -3.4522   -2.6128 H       1  UNL1        0.0618
     65 H           1.0999   -2.1067   -2.2141 H       1  UNL1        0.0620
     66 H          -1.1714    1.8936    2.4345 H       1  UNL1        0.2950
     67 H          -4.4137   -1.3724    1.3158 H       1  UNL1        0.0465
     68 H          -4.1903   -0.2448    2.6963 H       1  UNL1        0.0465
     69 H          -6.5060   -0.3517    1.8199 H       1  UNL1        0.0295
     70 H          -5.8695    1.3038    1.7415 H       1  UNL1        0.0295
     71 H          -5.9472   -0.8752   -0.4349 H       1  UNL1        0.0463
     72 H          -5.3639    1.9441   -1.3259 H       1  UNL1        0.0295
     73 H          -4.9102    0.3943   -2.0419 H       1  UNL1        0.0295
     74 H          -2.9029    0.6376   -1.1466 H       1  UNL1        0.0465
     75 H          -3.3450    2.1474   -0.3428 H       1  UNL1        0.0465
     76 H          -8.4704   -0.1214    1.1061 H       1  UNL1        0.0449
     77 H          -8.1565   -1.3004   -0.2683 H       1  UNL1        0.0449
     78 H          -9.3908    0.0050   -1.7719 H       1  UNL1        0.0572
     79 H         -10.4874   -0.5103   -0.4117 H       1  UNL1        0.0572
     80 H          -9.3112    3.3555   -0.6700 H       1  UNL1        0.0572
     81 H          -8.7644    2.1684   -1.9659 H       1  UNL1        0.0572
     82 H          -7.9585    1.9841    0.9482 H       1  UNL1        0.0449
     83 H          -6.9341    2.7161   -0.2896 H       1  UNL1        0.0449
@<TRIPOS>BOND
     1     1     2    1
     2     2     3    1
     3     3     4    1
     4     1     5    1
     5     5     6    2
     6     6     7    1
     7     7     8    2
     8     7     9    2
     9     7    10    1
    10    10    11   ar
    11    11    12   ar
    12    12    13   ar
    13    13    14   ar
    14    14    15   ar
    15     1    16    1
    16    16    17    2
    17    17    18    1
    18    17    19    1
    19    19    20    1
    20    20    21    1
    21    21    22   ar
    22    22    23   ar
    23    23    24   ar
    24    24    25   ar
    25    25    26   ar
    26    19    27    1
    27    27    28    2
    28    28    29    1
    29    28    30    1
    30    30    31    1
    31    31    32    1
    32    32    33    1
    33    33    34    1
    34    34    35    1
    35    33    36    1
    36    36    37    1
    37    37    38    1
    38    38    39    1
    39    39    40    1
    40    40    41    1
    41    15    10   ar
    42    26    21   ar
    43    35    30    1
    44    41    36    1
    45     1    42    1
    46     2    43    1
    47     2    44    1
    48     3    45    1
    49     3    46    1
    50     4    47    1
    51     4    48    1
    52     4    49    1
    53     5    50    1
    54     6    51    1
    55    11    52    1
    56    12    53    1
    57    13    54    1
    58    14    55    1
    59    15    56    1
    60    18    57    1
    61    19    58    1
    62    20    59    1
    63    20    60    1
    64    22    61    1
    65    23    62    1
    66    24    63    1
    67    25    64    1
    68    26    65    1
    69    29    66    1
    70    31    67    1
    71    31    68    1
    72    32    69    1
    73    32    70    1
    74    33    71    1
    75    34    72    1
    76    34    73    1
    77    35    74    1
    78    35    75    1
    79    37    76    1
    80    37    77    1
    81    38    78    1
    82    38    79    1
    83    40    80    1
    84    40    81    1
    85    41    82    1
    86    41    83    1
