
     RDKit          3D

 40 42  0  0  0  0  0  0  0  0999 V2000
   -2.0939   -4.2262    1.2407 C   0  0  0  0  0  0  0  0  0  0  0  0
   -1.2136   -3.3206    0.5435 N   0  0  0  0  0  0  0  0  0  0  0  0
   -0.0670   -3.6248   -0.1217 C   0  0  0  0  0  0  0  0  0  0  0  0
    0.3757   -2.4325   -0.5884 N   0  0  0  0  0  0  0  0  0  0  0  0
   -0.5487   -1.4656   -0.1664 C   0  0  0  0  0  0  0  0  0  0  0  0
   -1.5358   -2.0380    0.5394 C   0  0  0  0  0  0  0  0  0  0  0  0
   -2.3187   -1.0088    0.8771 N   0  0  0  0  0  0  0  0  0  0  0  0
   -1.9620    0.2284    0.4724 C   0  0  0  0  0  0  0  0  0  0  0  0
   -3.0426    1.0430    1.0395 N   0  0  0  0  0  0  0  0  0  0  0  0
   -4.2322    1.6226    0.4415 C   0  0  0  0  0  0  0  0  0  0  0  0
   -3.8608    2.8989   -0.2974 C   0  0  0  0  0  0  0  0  0  0  0  0
   -3.2970    3.8357    0.6002 O   0  0  0  0  0  0  0  0  0  0  0  0
   -0.8593    0.5130   -0.2620 N   0  0  0  0  0  0  0  0  0  0  0  0
    0.1178   -0.3934   -0.7433 C   0  0  0  0  0  0  0  0  0  0  0  0
    0.7530    0.6304   -1.2933 N   0  0  0  0  0  0  0  0  0  0  0  0
    1.9948    0.2783   -1.9871 C   0  0  0  0  0  0  0  0  0  0  0  0
    3.0999    0.4545   -1.0138 C   0  0  0  0  0  0  0  0  0  0  0  0
    3.6637   -0.4942   -0.1499 C   0  0  0  0  0  0  0  0  0  0  0  0
    4.6786   -0.0067    0.6145 C   0  0  0  0  0  0  0  0  0  0  0  0
    5.2368    1.2307    0.6817 C   0  0  0  0  0  0  0  0  0  0  0  0
    4.6508    2.1515   -0.1951 C   0  0  0  0  0  0  0  0  0  0  0  0
    3.5915    1.7713   -1.0345 C   0  0  0  0  0  0  0  0  0  0  0  0
   -1.5649   -5.1728    1.4936 H   0  0  0  0  0  0  0  0  0  0  0  0
   -3.0313   -4.4152    0.6731 H   0  0  0  0  0  0  0  0  0  0  0  0
   -2.3812   -3.7783    2.2126 H   0  0  0  0  0  0  0  0  0  0  0  0
    0.3500   -4.6180   -0.2297 H   0  0  0  0  0  0  0  0  0  0  0  0
   -2.8725    1.2308    2.0551 H   0  0  0  0  0  0  0  0  0  0  0  0
   -4.7222    0.9219   -0.3016 H   0  0  0  0  0  0  0  0  0  0  0  0
   -4.9466    1.8170    1.2594 H   0  0  0  0  0  0  0  0  0  0  0  0
   -3.1071    2.6905   -1.0620 H   0  0  0  0  0  0  0  0  0  0  0  0
   -4.7783    3.2919   -0.7935 H   0  0  0  0  0  0  0  0  0  0  0  0
   -3.5590    3.6256    1.5138 H   0  0  0  0  0  0  0  0  0  0  0  0
    0.7236    1.6465   -1.4303 H   0  0  0  0  0  0  0  0  0  0  0  0
    1.9537   -0.7975   -2.3327 H   0  0  0  0  0  0  0  0  0  0  0  0
    2.1425    0.9249   -2.8351 H   0  0  0  0  0  0  0  0  0  0  0  0
    3.2238   -1.4716   -0.2041 H   0  0  0  0  0  0  0  0  0  0  0  0
    5.1270   -0.7467    1.2984 H   0  0  0  0  0  0  0  0  0  0  0  0
    6.0393    1.4778    1.3486 H   0  0  0  0  0  0  0  0  0  0  0  0
    5.0407    3.1681   -0.2205 H   0  0  0  0  0  0  0  0  0  0  0  0
    3.2314    2.5577   -1.6427 H   0  0  0  0  0  0  0  0  0  0  0  0
  1  2  1  0
  2  3  1  0
  3  4  2  0
  4  5  1  0
  5  6  2  0
  6  7  1  0
  7  8  2  0
  8  9  1  0
  9 10  1  0
 10 11  1  0
 11 12  1  0
  8 13  1  0
 13 14  2  0
 14 15  1  0
 15 16  1  0
 16 17  1  0
 17 18  2  0
 18 19  1  0
 19 20  2  0
 20 21  1  0
 21 22  2  0
  6  2  1  0
 22 17  1  0
 14  5  1  0
  1 23  1  0
  1 24  1  0
  1 25  1  0
  3 26  1  0
  9 27  1  0
 10 28  1  0
 10 29  1  0
 11 30  1  0
 11 31  1  0
 12 32  1  0
 15 33  1  0
 16 34  1  0
 16 35  1  0
 18 36  1  0
 19 37  1  0
 20 38  1  0
 21 39  1  0
 22 40  1  0
M  END
$$$$
