
     RDKit          3D

 42 44  0  0  0  0  0  0  0  0999 V2000
   -3.5891   -4.0512   -1.7145 C   0  0  0  0  0  0  0  0  0  0  0  0
   -3.5200   -2.8189   -1.0335 O   0  0  0  0  0  0  0  0  0  0  0  0
   -2.3776   -2.0231   -0.9754 C   0  0  0  0  0  0  0  0  0  0  0  0
   -2.5014   -0.8449   -0.2582 C   0  0  0  0  0  0  0  0  0  0  0  0
   -1.4518    0.0447   -0.1142 C   0  0  0  0  0  0  0  0  0  0  0  0
   -0.2189   -0.2215   -0.6953 C   0  0  0  0  0  0  0  0  0  0  0  0
   -0.1205   -1.4007   -1.4042 C   0  0  0  0  0  0  0  0  0  0  0  0
   -1.1512   -2.2783   -1.5479 C   0  0  0  0  0  0  0  0  0  0  0  0
    0.6808    0.7535   -0.4503 N   0  0  0  0  0  0  0  0  0  0  0  0
    2.0477    0.8691   -0.8592 C   0  0  0  0  0  0  0  0  0  0  0  0
    3.0307    0.2923    0.0625 C   0  0  0  0  0  0  0  0  0  0  0  0
    3.6622    0.9283    1.1102 C   0  0  0  0  0  0  0  0  0  0  0  0
    4.5812    0.3152    1.9376 C   0  0  0  0  0  0  0  0  0  0  0  0
    4.9119   -1.0087    1.7352 C   0  0  0  0  0  0  0  0  0  0  0  0
    4.2875   -1.6615    0.6885 C   0  0  0  0  0  0  0  0  0  0  0  0
    3.3717   -1.0400   -0.1312 C   0  0  0  0  0  0  0  0  0  0  0  0
    0.0080    1.6469    0.2947 C   0  0  0  0  0  0  0  0  0  0  0  0
    0.4664    2.9422    0.8758 C   0  0  0  0  0  0  0  0  0  0  0  0
   -1.2932    1.2738    0.5338 C   0  0  0  0  0  0  0  0  0  0  0  0
   -2.3889    1.9071    1.2769 C   0  0  0  0  0  0  0  0  0  0  0  0
   -3.4171    2.5436    0.4107 C   0  0  0  0  0  0  0  0  0  0  0  0
   -4.4638    3.1486    1.1189 O   0  0  0  0  0  0  0  0  0  0  0  0
   -3.5875    2.6791   -0.8494 O   0  0  0  0  0  0  0  0  0  0  0  0
   -3.3526   -4.8522   -0.9843 H   0  0  0  0  0  0  0  0  0  0  0  0
   -2.8958   -4.0259   -2.5636 H   0  0  0  0  0  0  0  0  0  0  0  0
   -4.6370   -4.1413   -2.0927 H   0  0  0  0  0  0  0  0  0  0  0  0
   -3.4447   -0.5697    0.2271 H   0  0  0  0  0  0  0  0  0  0  0  0
    0.8127   -1.6693   -1.8829 H   0  0  0  0  0  0  0  0  0  0  0  0
   -1.0853   -3.2041   -2.1009 H   0  0  0  0  0  0  0  0  0  0  0  0
    2.2701    1.9701   -0.9738 H   0  0  0  0  0  0  0  0  0  0  0  0
    2.2131    0.4411   -1.8733 H   0  0  0  0  0  0  0  0  0  0  0  0
    3.4011    1.9639    1.2655 H   0  0  0  0  0  0  0  0  0  0  0  0
    5.0334    0.9055    2.7492 H   0  0  0  0  0  0  0  0  0  0  0  0
    5.6344   -1.4529    2.4031 H   0  0  0  0  0  0  0  0  0  0  0  0
    4.6007   -2.7113    0.5890 H   0  0  0  0  0  0  0  0  0  0  0  0
    2.9941   -1.7120   -0.8898 H   0  0  0  0  0  0  0  0  0  0  0  0
   -0.1801    3.7808    0.5268 H   0  0  0  0  0  0  0  0  0  0  0  0
    1.4927    3.2222    0.5432 H   0  0  0  0  0  0  0  0  0  0  0  0
    0.4455    2.9389    1.9897 H   0  0  0  0  0  0  0  0  0  0  0  0
   -2.9094    1.1556    1.9058 H   0  0  0  0  0  0  0  0  0  0  0  0
   -1.9750    2.6541    1.9647 H   0  0  0  0  0  0  0  0  0  0  0  0
   -5.3849    3.3110    0.7337 H   0  0  0  0  0  0  0  0  0  0  0  0
  1  2  1  0
  2  3  1  0
  3  4  2  0
  4  5  1  0
  5  6  2  0
  6  7  1  0
  7  8  2  0
  6  9  1  0
  9 10  1  0
 10 11  1  0
 11 12  2  0
 12 13  1  0
 13 14  2  0
 14 15  1  0
 15 16  2  0
  9 17  1  0
 17 18  1  0
 17 19  2  0
 19 20  1  0
 20 21  1  0
 21 22  1  0
 21 23  2  0
  8  3  1  0
 16 11  1  0
 19  5  1  0
  1 24  1  0
  1 25  1  0
  1 26  1  0
  4 27  1  0
  7 28  1  0
  8 29  1  0
 10 30  1  0
 10 31  1  0
 12 32  1  0
 13 33  1  0
 14 34  1  0
 15 35  1  0
 16 36  1  0
 18 37  1  0
 18 38  1  0
 18 39  1  0
 20 40  1  0
 20 41  1  0
 22 42  1  0
M  END
$$$$
