@<TRIPOS>MOLECULE
*****
 42 44 0 0 0
SMALL
GASTEIGER

@<TRIPOS>ATOM
      1 C          -3.5891   -4.0512   -1.7145 C.3     1  UNL1        0.0788
      2 O          -3.5200   -2.8189   -1.0335 O.3     1  UNL1       -0.4951
      3 C          -2.3776   -2.0231   -0.9754 C.ar    1  UNL1        0.1208
      4 C          -2.5014   -0.8449   -0.2582 C.ar    1  UNL1       -0.0105
      5 C          -1.4518    0.0447   -0.1142 C.ar    1  UNL1        0.0073
      6 C          -0.2189   -0.2215   -0.6953 C.ar    1  UNL1        0.0501
      7 C          -0.1205   -1.4007   -1.4042 C.ar    1  UNL1       -0.0341
      8 C          -1.1512   -2.2783   -1.5479 C.ar    1  UNL1       -0.0180
      9 N           0.6808    0.7535   -0.4503 N.ar    1  UNL1       -0.3394
     10 C           2.0477    0.8691   -0.8592 C.3     1  UNL1        0.0486
     11 C           3.0307    0.2923    0.0625 C.ar    1  UNL1       -0.0278
     12 C           3.6622    0.9283    1.1102 C.ar    1  UNL1       -0.0569
     13 C           4.5812    0.3152    1.9376 C.ar    1  UNL1       -0.0614
     14 C           4.9119   -1.0087    1.7352 C.ar    1  UNL1       -0.0617
     15 C           4.2875   -1.6615    0.6885 C.ar    1  UNL1       -0.0614
     16 C           3.3717   -1.0400   -0.1312 C.ar    1  UNL1       -0.0569
     17 C           0.0080    1.6469    0.2947 C.ar    1  UNL1        0.0208
     18 C           0.4664    2.9422    0.8758 C.3     1  UNL1       -0.0239
     19 C          -1.2932    1.2738    0.5338 C.ar    1  UNL1       -0.0085
     20 C          -2.3889    1.9071    1.2769 C.3     1  UNL1        0.0721
     21 C          -3.4171    2.5436    0.4107 C.2     1  UNL1        0.3091
     22 O          -4.4638    3.1486    1.1189 O.3     1  UNL1       -0.4804
     23 O          -3.5875    2.6791   -0.8494 O.2     1  UNL1       -0.2507
     24 H          -3.3526   -4.8522   -0.9843 H       1  UNL1        0.0660
     25 H          -2.8958   -4.0259   -2.5636 H       1  UNL1        0.0660
     26 H          -4.6370   -4.1413   -2.0927 H       1  UNL1        0.0660
     27 H          -3.4447   -0.5697    0.2271 H       1  UNL1        0.0661
     28 H           0.8127   -1.6693   -1.8829 H       1  UNL1        0.0639
     29 H          -1.0853   -3.2041   -2.1009 H       1  UNL1        0.0655
     30 H           2.2701    1.9701   -0.9738 H       1  UNL1        0.0541
     31 H           2.2131    0.4411   -1.8733 H       1  UNL1        0.0541
     32 H           3.4011    1.9639    1.2655 H       1  UNL1        0.0621
     33 H           5.0334    0.9055    2.7492 H       1  UNL1        0.0618
     34 H           5.6344   -1.4529    2.4031 H       1  UNL1        0.0618
     35 H           4.6007   -2.7113    0.5890 H       1  UNL1        0.0618
     36 H           2.9941   -1.7120   -0.8898 H       1  UNL1        0.0621
     37 H          -0.1801    3.7808    0.5268 H       1  UNL1        0.0292
     38 H           1.4927    3.2222    0.5432 H       1  UNL1        0.0292
     39 H           0.4455    2.9389    1.9897 H       1  UNL1        0.0292
     40 H          -2.9094    1.1556    1.9058 H       1  UNL1        0.0427
     41 H          -1.9750    2.6541    1.9647 H       1  UNL1        0.0427
     42 H          -5.3849    3.3110    0.7337 H       1  UNL1        0.2951
@<TRIPOS>BOND
     1     1     2    1
     2     2     3    1
     3     3     4   ar
     4     4     5   ar
     5     5     6   ar
     6     6     7   ar
     7     7     8   ar
     8     6     9   ar
     9     9    10    1
    10    10    11    1
    11    11    12   ar
    12    12    13   ar
    13    13    14   ar
    14    14    15   ar
    15    15    16   ar
    16     9    17   ar
    17    17    18    1
    18    17    19   ar
    19    19    20    1
    20    20    21    1
    21    21    22    1
    22    21    23    2
    23     8     3   ar
    24    16    11   ar
    25    19     5   ar
    26     1    24    1
    27     1    25    1
    28     1    26    1
    29     4    27    1
    30     7    28    1
    31     8    29    1
    32    10    30    1
    33    10    31    1
    34    12    32    1
    35    13    33    1
    36    14    34    1
    37    15    35    1
    38    16    36    1
    39    18    37    1
    40    18    38    1
    41    18    39    1
    42    20    40    1
    43    20    41    1
    44    22    42    1
