@<TRIPOS>MOLECULE
*****
 45 49 0 0 0
SMALL
GASTEIGER

@<TRIPOS>ATOM
      1 N         -10.4111    2.0230   -0.5066 N.1     1  UNL1       -0.1909
      2 C          -9.2440    1.9462   -0.5496 C.1     1  UNL1        0.0992
      3 C          -7.8029    1.8752   -0.6067 C.ar    1  UNL1        0.0518
      4 C          -7.1329    2.6781   -1.4887 C.ar    1  UNL1       -0.0438
      5 C          -5.7671    2.6251   -1.5160 C.ar    1  UNL1       -0.0528
      6 C          -5.0533    1.7580   -0.6533 C.ar    1  UNL1       -0.0178
      7 C          -3.5836    1.7868   -0.8383 C.ar    1  UNL1       -0.0179
      8 C          -2.6635    1.6095    0.1454 C.ar    1  UNL1       -0.0537
      9 C          -1.2759    1.6418   -0.0883 C.ar    1  UNL1       -0.0572
     10 C          -0.7948    1.8537   -1.3321 C.ar    1  UNL1       -0.0370
     11 C           0.6210    1.8970   -1.7839 C.3     1  UNL1        0.0278
     12 S           1.0799    0.2756   -2.3056 S.3     1  UNL1       -0.0609
     13 C           1.6042   -0.7782   -0.9588 C.ar    1  UNL1        0.2779
     14 N           1.0161   -1.5479   -0.0873 N.ar    1  UNL1       -0.1006
     15 N           1.9615   -2.1268    0.6844 N.ar    1  UNL1       -0.1065
     16 C           3.1432   -1.7038    0.2772 C.ar    1  UNL1        0.2493
     17 C           4.5003   -2.0327    0.7674 C.ar    1  UNL1        0.0422
     18 C           5.5953   -1.4084    0.1949 C.ar    1  UNL1       -0.0458
     19 C           6.8907   -1.6666    0.5301 C.ar    1  UNL1       -0.0154
     20 C           7.1325   -2.6367    1.5313 C.ar    1  UNL1        0.1663
     21 C           6.0652   -3.2708    2.1173 C.ar    1  UNL1        0.1670
     22 C           4.7489   -2.9740    1.7409 C.ar    1  UNL1       -0.0039
     23 O           6.5611   -4.1762    3.0577 O.3     1  UNL1       -0.4526
     24 C           7.9730   -4.3338    2.8695 C.3     1  UNL1        0.2332
     25 O           8.2728   -3.1547    2.1192 O.3     1  UNL1       -0.4526
     26 O           2.9401   -0.8735   -0.7260 O.2     1  UNL1       -0.4110
     27 C          -1.7182    2.0387   -2.3829 C.ar    1  UNL1       -0.0572
     28 C          -3.0754    2.0032   -2.1124 C.ar    1  UNL1       -0.0537
     29 C          -5.7265    0.9751    0.2073 C.ar    1  UNL1       -0.0528
     30 C          -7.0927    1.0143    0.2489 C.ar    1  UNL1       -0.0438
     31 H          -7.6387    3.3594   -2.1769 H       1  UNL1        0.0631
     32 H          -5.2261    3.2522   -2.1841 H       1  UNL1        0.0624
     33 H          -3.0173    1.4408    1.1637 H       1  UNL1        0.0624
     34 H          -0.5674    1.4959    0.7390 H       1  UNL1        0.0621
     35 H           1.1912    2.2887   -0.8982 H       1  UNL1        0.0430
     36 H           0.6784    2.6599   -2.6116 H       1  UNL1        0.0430
     37 H           5.4333   -0.6529   -0.5817 H       1  UNL1        0.0626
     38 H           7.7470   -1.1873    0.0926 H       1  UNL1        0.0655
     39 H           3.9372   -3.4863    2.2156 H       1  UNL1        0.0663
     40 H           8.2365   -5.2070    2.2586 H       1  UNL1        0.1166
     41 H           8.4680   -4.2981    3.8656 H       1  UNL1        0.1166
     42 H          -1.3547    2.2061   -3.3756 H       1  UNL1        0.0621
     43 H          -3.7987    2.1349   -2.9202 H       1  UNL1        0.0624
     44 H          -5.1759    0.3013    0.8745 H       1  UNL1        0.0624
     45 H          -7.6764    0.3750    0.9207 H       1  UNL1        0.0631
@<TRIPOS>BOND
     1     1     2    3
     2     2     3    1
     3     3     4   ar
     4     4     5   ar
     5     5     6   ar
     6     6     7    1
     7     7     8   ar
     8     8     9   ar
     9     9    10   ar
    10    10    11    1
    11    11    12    1
    12    12    13    1
    13    13    14   ar
    14    14    15   ar
    15    15    16   ar
    16    16    17    1
    17    17    18   ar
    18    18    19   ar
    19    19    20   ar
    20    20    21   ar
    21    21    22   ar
    22    21    23    1
    23    23    24    1
    24    24    25    1
    25    16    26   ar
    26    10    27   ar
    27    27    28   ar
    28     6    29   ar
    29    29    30   ar
    30    30     3   ar
    31    28     7   ar
    32    26    13   ar
    33    22    17   ar
    34    25    20    1
    35     4    31    1
    36     5    32    1
    37     8    33    1
    38     9    34    1
    39    11    35    1
    40    11    36    1
    41    18    37    1
    42    19    38    1
    43    22    39    1
    44    24    40    1
    45    24    41    1
    46    27    42    1
    47    28    43    1
    48    29    44    1
    49    30    45    1
