
     RDKit          3D

 38 39  0  0  0  0  0  0  0  0999 V2000
    7.6653    1.6255    0.4505 N   0  0  0  0  0  0  0  0  0  0  0  0
    6.5461    0.7849    0.0962 C   0  0  0  0  0  0  0  0  0  0  0  0
    6.8744   -0.4638   -0.4836 N   0  0  0  0  0  0  0  0  0  0  0  0
    5.3945    1.2058    0.3330 N   0  0  0  0  0  0  0  0  0  0  0  0
    4.1518    0.6425    0.1139 C   0  0  0  0  0  0  0  0  0  0  0  0
    3.9156   -0.4880   -0.6155 C   0  0  0  0  0  0  0  0  0  0  0  0
    2.6475   -1.0274   -0.8215 C   0  0  0  0  0  0  0  0  0  0  0  0
    1.5727   -0.4002   -0.2771 C   0  0  0  0  0  0  0  0  0  0  0  0
    0.1770   -0.8648   -0.4590 C   0  0  0  0  0  0  0  0  0  0  0  0
   -0.0258   -1.9233   -1.0882 O   0  0  0  0  0  0  0  0  0  0  0  0
   -0.8640   -0.1596    0.0330 O   0  0  0  0  0  0  0  0  0  0  0  0
   -2.2064   -0.3610   -0.0332 C   0  0  0  0  0  0  0  0  0  0  0  0
   -2.9287   -0.9913    0.9363 C   0  0  0  0  0  0  0  0  0  0  0  0
   -4.2986   -1.1585    0.8238 C   0  0  0  0  0  0  0  0  0  0  0  0
   -5.0075   -0.6914   -0.2839 C   0  0  0  0  0  0  0  0  0  0  0  0
   -6.5049   -0.8208   -0.3281 C   0  0  0  0  0  0  0  0  0  0  0  0
   -7.0161    0.5576   -0.0907 C   0  0  0  0  0  0  0  0  0  0  0  0
   -7.9920    0.9582   -0.7892 O   0  0  0  0  0  0  0  0  0  0  0  0
   -6.4891    1.4298    0.8461 O   0  0  0  0  0  0  0  0  0  0  0  0
   -4.2834   -0.0609   -1.2617 C   0  0  0  0  0  0  0  0  0  0  0  0
   -2.9291    0.1040   -1.1515 C   0  0  0  0  0  0  0  0  0  0  0  0
    1.7552    0.7672    0.4799 C   0  0  0  0  0  0  0  0  0  0  0  0
    3.0185    1.2521    0.6584 C   0  0  0  0  0  0  0  0  0  0  0  0
    8.2552    2.0691   -0.2578 H   0  0  0  0  0  0  0  0  0  0  0  0
    7.8811    1.7665    1.4602 H   0  0  0  0  0  0  0  0  0  0  0  0
    6.8139   -1.3353    0.0830 H   0  0  0  0  0  0  0  0  0  0  0  0
    7.1525   -0.5074   -1.4859 H   0  0  0  0  0  0  0  0  0  0  0  0
    4.7247   -1.0499   -1.0939 H   0  0  0  0  0  0  0  0  0  0  0  0
    2.5350   -1.9406   -1.4139 H   0  0  0  0  0  0  0  0  0  0  0  0
   -2.4320   -1.3700    1.8047 H   0  0  0  0  0  0  0  0  0  0  0  0
   -4.8950   -1.6667    1.5964 H   0  0  0  0  0  0  0  0  0  0  0  0
   -6.8972   -1.5946    0.2987 H   0  0  0  0  0  0  0  0  0  0  0  0
   -6.7601   -1.0581   -1.4128 H   0  0  0  0  0  0  0  0  0  0  0  0
   -6.4171    2.4067    0.5653 H   0  0  0  0  0  0  0  0  0  0  0  0
   -4.8214    0.3205   -2.1422 H   0  0  0  0  0  0  0  0  0  0  0  0
   -2.4076    0.6098   -1.9495 H   0  0  0  0  0  0  0  0  0  0  0  0
    0.9082    1.2743    0.9230 H   0  0  0  0  0  0  0  0  0  0  0  0
    3.1869    2.1588    1.2352 H   0  0  0  0  0  0  0  0  0  0  0  0
  1  2  1  0
  2  3  1  0
  2  4  2  3
  4  5  1  0
  5  6  2  0
  6  7  1  0
  7  8  2  0
  8  9  1  0
  9 10  2  0
  9 11  1  0
 11 12  1  0
 12 13  2  0
 13 14  1  0
 14 15  2  0
 15 16  1  0
 16 17  1  0
 17 18  2  0
 17 19  1  0
 15 20  1  0
 20 21  2  0
  8 22  1  0
 22 23  2  0
 23  5  1  0
 21 12  1  0
  1 24  1  0
  1 25  1  0
  3 26  1  0
  3 27  1  0
  6 28  1  0
  7 29  1  0
 13 30  1  0
 14 31  1  0
 16 32  1  0
 16 33  1  0
 19 34  1  0
 20 35  1  0
 21 36  1  0
 22 37  1  0
 23 38  1  0
M  END
$$$$
