@<TRIPOS>MOLECULE
*****
 38 39 0 0 0
SMALL
GASTEIGER

@<TRIPOS>ATOM
      1 N           7.6653    1.6255    0.4505 N.pl3   1  UNL1       -0.2889
      2 C           6.5461    0.7849    0.0962 C.cat   1  UNL1        0.3821
      3 N           6.8744   -0.4638   -0.4836 N.pl3   1  UNL1       -0.2889
      4 N           5.3945    1.2058    0.3330 N.pl3   1  UNL1       -0.0734
      5 C           4.1518    0.6425    0.1139 C.ar    1  UNL1        0.1420
      6 C           3.9156   -0.4880   -0.6155 C.ar    1  UNL1       -0.0188
      7 C           2.6475   -1.0274   -0.8215 C.ar    1  UNL1       -0.0444
      8 C           1.5727   -0.4002   -0.2771 C.ar    1  UNL1        0.0596
      9 C           0.1770   -0.8648   -0.4590 C.2     1  UNL1        0.3444
     10 O          -0.0258   -1.9233   -1.0882 O.2     1  UNL1       -0.2445
     11 O          -0.8640   -0.1596    0.0330 O.3     1  UNL1       -0.4223
     12 C          -2.2064   -0.3610   -0.0332 C.ar    1  UNL1        0.1320
     13 C          -2.9287   -0.9913    0.9363 C.ar    1  UNL1       -0.0189
     14 C          -4.2986   -1.1585    0.8238 C.ar    1  UNL1       -0.0546
     15 C          -5.0075   -0.6914   -0.2839 C.ar    1  UNL1       -0.0365
     16 C          -6.5049   -0.8208   -0.3281 C.3     1  UNL1        0.0699
     17 C          -7.0161    0.5576   -0.0907 C.2     1  UNL1        0.3091
     18 O          -7.9920    0.9582   -0.7892 O.2     1  UNL1       -0.2507
     19 O          -6.4891    1.4298    0.8461 O.3     1  UNL1       -0.4804
     20 C          -4.2834   -0.0609   -1.2617 C.ar    1  UNL1       -0.0546
     21 C          -2.9291    0.1040   -1.1515 C.ar    1  UNL1       -0.0189
     22 C           1.7552    0.7672    0.4799 C.ar    1  UNL1       -0.0444
     23 C           3.0185    1.2521    0.6584 C.ar    1  UNL1       -0.0188
     24 H           8.2552    2.0691   -0.2578 H       1  UNL1        0.2547
     25 H           7.8811    1.7665    1.4602 H       1  UNL1        0.2547
     26 H           6.8139   -1.3353    0.0830 H       1  UNL1        0.2547
     27 H           7.1525   -0.5074   -1.4859 H       1  UNL1        0.2547
     28 H           4.7247   -1.0499   -1.0939 H       1  UNL1        0.0653
     29 H           2.5350   -1.9406   -1.4139 H       1  UNL1        0.0627
     30 H          -2.4320   -1.3700    1.8047 H       1  UNL1        0.0654
     31 H          -4.8950   -1.6667    1.5964 H       1  UNL1        0.0622
     32 H          -6.8972   -1.5946    0.2987 H       1  UNL1        0.0426
     33 H          -6.7601   -1.0581   -1.4128 H       1  UNL1        0.0426
     34 H          -6.4171    2.4067    0.5653 H       1  UNL1        0.2951
     35 H          -4.8214    0.3205   -2.1422 H       1  UNL1        0.0622
     36 H          -2.4076    0.6098   -1.9495 H       1  UNL1        0.0654
     37 H           0.9082    1.2743    0.9230 H       1  UNL1        0.0627
     38 H           3.1869    2.1588    1.2352 H       1  UNL1        0.0653
@<TRIPOS>BOND
     1     1     2    1
     2     2     3    1
     3     2     4    2
     4     4     5    1
     5     5     6   ar
     6     6     7   ar
     7     7     8   ar
     8     8     9    1
     9     9    10    2
    10     9    11    1
    11    11    12    1
    12    12    13   ar
    13    13    14   ar
    14    14    15   ar
    15    15    16    1
    16    16    17    1
    17    17    18    2
    18    17    19    1
    19    15    20   ar
    20    20    21   ar
    21     8    22   ar
    22    22    23   ar
    23    23     5   ar
    24    21    12   ar
    25     1    24    1
    26     1    25    1
    27     3    26    1
    28     3    27    1
    29     6    28    1
    30     7    29    1
    31    13    30    1
    32    14    31    1
    33    16    32    1
    34    16    33    1
    35    19    34    1
    36    20    35    1
    37    21    36    1
    38    22    37    1
    39    23    38    1
