
     RDKit          3D

 91 95  0  0  0  0  0  0  0  0999 V2000
    9.2497   -1.6622    0.5934 C   0  0  0  0  0  0  0  0  0  0  0  0
    9.8463   -0.4644    0.1042 O   0  0  0  0  0  0  0  0  0  0  0  0
    9.0280    0.4039   -0.6167 C   0  0  0  0  0  0  0  0  0  0  0  0
    7.7009    0.1331   -0.8562 C   0  0  0  0  0  0  0  0  0  0  0  0
    6.8875    0.9859   -1.5668 C   0  0  0  0  0  0  0  0  0  0  0  0
    5.5136    0.6611   -1.8179 N   0  0  0  0  0  0  0  0  0  0  0  0
    5.1012   -0.6310   -1.3499 C   0  0  0  0  0  0  0  0  0  0  0  0
    4.4591   -0.7050   -0.1453 C   0  0  0  0  0  0  0  0  0  0  0  0
    4.0528   -1.9556    0.4169 C   0  0  0  0  0  0  0  0  0  0  0  0
    3.4349   -1.8724    1.6098 O   0  0  0  0  0  0  0  0  0  0  0  0
    2.1063   -1.6202    1.8258 C   0  0  0  0  0  0  0  0  0  0  0  0
    1.7625   -0.3169    2.2627 C   0  0  0  0  0  0  0  0  0  0  0  0
    0.4648    0.0179    2.5015 C   0  0  0  0  0  0  0  0  0  0  0  0
   -0.5742   -0.8491    2.3452 C   0  0  0  0  0  0  0  0  0  0  0  0
   -1.9161   -0.5071    2.5901 N   0  0  0  0  0  0  0  0  0  0  0  0
   -2.8484   -0.0576    1.6124 C   0  0  0  0  0  0  0  0  0  0  0  0
   -2.4778    0.0611    0.4504 O   0  0  0  0  0  0  0  0  0  0  0  0
   -4.1822    0.2338    2.0184 N   0  0  0  0  0  0  0  0  0  0  0  0
   -5.2258    0.6574    1.1763 C   0  0  0  0  0  0  0  0  0  0  0  0
   -5.1082    0.9211   -0.1636 C   0  0  0  0  0  0  0  0  0  0  0  0
   -6.2056    1.2861   -0.9382 C   0  0  0  0  0  0  0  0  0  0  0  0
   -6.1114    1.5708   -2.3955 C   0  0  0  0  0  0  0  0  0  0  0  0
   -6.2820    0.2852   -3.1889 C   0  0  0  0  0  0  0  0  0  0  0  0
   -7.2922    2.4577   -2.8217 C   0  0  0  0  0  0  0  0  0  0  0  0
   -4.8705    2.2875   -2.8054 C   0  0  0  0  0  0  0  0  0  0  0  0
   -7.4536    1.3950   -0.3742 C   0  0  0  0  0  0  0  0  0  0  0  0
   -7.6041    1.1322    0.9951 C   0  0  0  0  0  0  0  0  0  0  0  0
   -8.8568    1.2149    1.6299 N   0  0  0  0  0  0  0  0  0  0  0  0
  -10.2815    1.4111    0.6832 S   0  0  0  0  0  6  0  0  0  0  0  0
  -10.4234    0.0138   -0.3709 C   0  0  0  0  0  0  0  0  0  0  0  0
  -10.2432    2.6906   -0.1100 O   0  0  0  0  0  0  0  0  0  0  0  0
  -11.5081    1.4909    1.5546 O   0  0  0  0  0  0  0  0  0  0  0  0
   -6.4993    0.7741    1.7315 C   0  0  0  0  0  0  0  0  0  0  0  0
   -6.7009    0.5246    3.0965 O   0  0  0  0  0  0  0  0  0  0  0  0
   -7.0110   -0.7728    3.5369 C   0  0  0  0  0  0  0  0  0  0  0  0
   -0.2554   -2.1215    1.9236 C   0  0  0  0  0  0  0  0  0  0  0  0
   -1.2733   -3.0347    1.7895 C   0  0  0  0  0  0  0  0  0  0  0  0
   -1.0020   -4.3257    1.4080 C   0  0  0  0  0  0  0  0  0  0  0  0
    0.3017   -4.7098    1.1588 C   0  0  0  0  0  0  0  0  0  0  0  0
    1.3294   -3.8086    1.2884 C   0  0  0  0  0  0  0  0  0  0  0  0
    1.0804   -2.5053    1.6662 C   0  0  0  0  0  0  0  0  0  0  0  0
    4.3609   -3.0266   -0.3445 C   0  0  0  0  0  0  0  0  0  0  0  0
    5.0203   -2.9502   -1.5839 C   0  0  0  0  0  0  0  0  0  0  0  0
    5.3740   -1.7490   -2.0554 N   0  0  0  0  0  0  0  0  0  0  0  0
    7.4594    2.1537   -2.0449 C   0  0  0  0  0  0  0  0  0  0  0  0
    8.7885    2.4286   -1.8072 C   0  0  0  0  0  0  0  0  0  0  0  0
    9.6192    1.5688   -1.0885 C   0  0  0  0  0  0  0  0  0  0  0  0
   11.3437    1.9087   -0.7851 P   0  0  0  0  0  5  0  0  0  0  0  0
   11.7280    3.5281   -1.5179 C   0  0  0  0  0  0  0  0  0  0  0  0
   11.6913    1.8691    0.6780 O   0  0  0  0  0  0  0  0  0  0  0  0
   12.2264    0.7408   -1.6425 O   0  0  0  0  0  0  0  0  0  0  0  0
    8.4212   -1.3664    1.2995 H   0  0  0  0  0  0  0  0  0  0  0  0
    8.7782   -2.2572   -0.2135 H   0  0  0  0  0  0  0  0  0  0  0  0
    9.9961   -2.2947    1.1025 H   0  0  0  0  0  0  0  0  0  0  0  0
    7.2783   -0.8031   -0.4619 H   0  0  0  0  0  0  0  0  0  0  0  0
    4.8415    1.2680   -2.2897 H   0  0  0  0  0  0  0  0  0  0  0  0
    4.2254    0.1639    0.4408 H   0  0  0  0  0  0  0  0  0  0  0  0
    2.5726    0.4150    2.4031 H   0  0  0  0  0  0  0  0  0  0  0  0
    0.2325    1.0424    2.8405 H   0  0  0  0  0  0  0  0  0  0  0  0
   -2.2549   -0.5954    3.5912 H   0  0  0  0  0  0  0  0  0  0  0  0
   -4.4068    0.1202    3.0621 H   0  0  0  0  0  0  0  0  0  0  0  0
   -4.1822    0.8622   -0.6678 H   0  0  0  0  0  0  0  0  0  0  0  0
   -5.3174   -0.2194   -3.3997 H   0  0  0  0  0  0  0  0  0  0  0  0
   -6.7968    0.4510   -4.1507 H   0  0  0  0  0  0  0  0  0  0  0  0
   -6.9589   -0.3576   -2.5640 H   0  0  0  0  0  0  0  0  0  0  0  0
   -8.1897    1.8239   -2.9360 H   0  0  0  0  0  0  0  0  0  0  0  0
   -7.0403    2.8260   -3.8399 H   0  0  0  0  0  0  0  0  0  0  0  0
   -7.4941    3.2665   -2.1104 H   0  0  0  0  0  0  0  0  0  0  0  0
   -4.6961    3.2048   -2.1957 H   0  0  0  0  0  0  0  0  0  0  0  0
   -5.0750    2.6949   -3.8409 H   0  0  0  0  0  0  0  0  0  0  0  0
   -3.9827    1.6402   -2.8520 H   0  0  0  0  0  0  0  0  0  0  0  0
   -8.3466    1.6673   -0.9054 H   0  0  0  0  0  0  0  0  0  0  0  0
   -8.9346    1.1585    2.6535 H   0  0  0  0  0  0  0  0  0  0  0  0
   -9.5002   -0.6146   -0.2929 H   0  0  0  0  0  0  0  0  0  0  0  0
  -11.2705   -0.6016   -0.0712 H   0  0  0  0  0  0  0  0  0  0  0  0
  -10.4761    0.3845   -1.4259 H   0  0  0  0  0  0  0  0  0  0  0  0
   -6.1614   -1.2240    4.1261 H   0  0  0  0  0  0  0  0  0  0  0  0
   -7.8498   -0.7455    4.2955 H   0  0  0  0  0  0  0  0  0  0  0  0
   -7.3378   -1.4666    2.7521 H   0  0  0  0  0  0  0  0  0  0  0  0
   -2.2874   -2.7408    1.9842 H   0  0  0  0  0  0  0  0  0  0  0  0
   -1.8265   -5.0234    1.3122 H   0  0  0  0  0  0  0  0  0  0  0  0
    0.5093   -5.7418    0.8575 H   0  0  0  0  0  0  0  0  0  0  0  0
    2.3385   -4.1038    1.1410 H   0  0  0  0  0  0  0  0  0  0  0  0
    4.1319   -4.0183   -0.0169 H   0  0  0  0  0  0  0  0  0  0  0  0
    5.2359   -3.8280   -2.1436 H   0  0  0  0  0  0  0  0  0  0  0  0
    6.8246    2.8455   -2.6150 H   0  0  0  0  0  0  0  0  0  0  0  0
    9.2373    3.3497   -2.1831 H   0  0  0  0  0  0  0  0  0  0  0  0
   11.4513    3.4892   -2.5842 H   0  0  0  0  0  0  0  0  0  0  0  0
   11.0938    4.2827   -1.0151 H   0  0  0  0  0  0  0  0  0  0  0  0
   12.8135    3.7748   -1.4296 H   0  0  0  0  0  0  0  0  0  0  0  0
   12.6805    0.1093   -1.0276 H   0  0  0  0  0  0  0  0  0  0  0  0
  1  2  1  0
  2  3  1  0
  3  4  2  0
  4  5  1  0
  5  6  1  0
  6  7  1  0
  7  8  2  0
  8  9  1  0
  9 10  1  0
 10 11  1  0
 11 12  2  0
 12 13  1  0
 13 14  2  0
 14 15  1  0
 15 16  1  0
 16 17  2  0
 16 18  1  0
 18 19  1  0
 19 20  2  0
 20 21  1  0
 21 22  1  0
 22 23  1  0
 22 24  1  0
 22 25  1  0
 21 26  2  0
 26 27  1  0
 27 28  1  0
 28 29  1  0
 29 30  1  0
 29 31  2  0
 29 32  2  0
 27 33  2  0
 33 34  1  0
 34 35  1  0
 14 36  1  0
 36 37  2  0
 37 38  1  0
 38 39  2  0
 39 40  1  0
 40 41  2  0
  9 42  2  0
 42 43  1  0
 43 44  2  0
  5 45  2  0
 45 46  1  0
 46 47  2  0
 47 48  1  0
 48 49  1  0
 48 50  2  0
 48 51  1  0
 47  3  1  0
 44  7  1  0
 41 11  1  0
 33 19  1  0
 41 36  1  0
  1 52  1  0
  1 53  1  0
  1 54  1  0
  4 55  1  0
  6 56  1  0
  8 57  1  0
 12 58  1  0
 13 59  1  0
 15 60  1  0
 18 61  1  0
 20 62  1  0
 23 63  1  0
 23 64  1  0
 23 65  1  0
 24 66  1  0
 24 67  1  0
 24 68  1  0
 25 69  1  0
 25 70  1  0
 25 71  1  0
 26 72  1  0
 28 73  1  0
 30 74  1  0
 30 75  1  0
 30 76  1  0
 35 77  1  0
 35 78  1  0
 35 79  1  0
 37 80  1  0
 38 81  1  0
 39 82  1  0
 40 83  1  0
 42 84  1  0
 43 85  1  0
 45 86  1  0
 46 87  1  0
 49 88  1  0
 49 89  1  0
 49 90  1  0
 51 91  1  0
M  END
$$$$
