@<TRIPOS>MOLECULE
*****
 91 95 0 0 0
SMALL
GASTEIGER

@<TRIPOS>ATOM
      1 C           9.2497   -1.6622    0.5934 C.3     1  UNL1        0.0788
      2 O           9.8463   -0.4644    0.1042 O.3     1  UNL1       -0.4942
      3 C           9.0280    0.4039   -0.6167 C.ar    1  UNL1        0.1344
      4 C           7.7009    0.1331   -0.8562 C.ar    1  UNL1        0.0020
      5 C           6.8875    0.9859   -1.5668 C.ar    1  UNL1        0.0359
      6 N           5.5136    0.6611   -1.8179 N.pl3   1  UNL1       -0.2992
      7 C           5.1012   -0.6310   -1.3499 C.ar    1  UNL1        0.1264
      8 C           4.4591   -0.7050   -0.1453 C.ar    1  UNL1        0.0208
      9 C           4.0528   -1.9556    0.4169 C.ar    1  UNL1        0.1332
     10 O           3.4349   -1.8724    1.6098 O.3     1  UNL1       -0.4553
     11 C           2.1063   -1.6202    1.8258 C.ar    1  UNL1        0.1362
     12 C           1.7625   -0.3169    2.2627 C.ar    1  UNL1       -0.0170
     13 C           0.4648    0.0179    2.5015 C.ar    1  UNL1       -0.0364
     14 C          -0.5742   -0.8491    2.3452 C.ar    1  UNL1        0.0427
     15 N          -1.9161   -0.5071    2.5901 N.am    1  UNL1       -0.2686
     16 C          -2.8484   -0.0576    1.6124 C.2     1  UNL1        0.3082
     17 O          -2.4778    0.0611    0.4504 O.2     1  UNL1       -0.2521
     18 N          -4.1822    0.2338    2.0184 N.am    1  UNL1       -0.2660
     19 C          -5.2258    0.6574    1.1763 C.ar    1  UNL1        0.0789
     20 C          -5.1082    0.9211   -0.1636 C.ar    1  UNL1       -0.0330
     21 C          -6.2056    1.2861   -0.9382 C.ar    1  UNL1       -0.0382
     22 C          -6.1114    1.5708   -2.3955 C.3     1  UNL1       -0.0126
     23 C          -6.2820    0.2852   -3.1889 C.3     1  UNL1       -0.0560
     24 C          -7.2922    2.4577   -2.8217 C.3     1  UNL1       -0.0560
     25 C          -4.8705    2.2875   -2.8054 C.3     1  UNL1       -0.0560
     26 C          -7.4536    1.3950   -0.3742 C.ar    1  UNL1       -0.0320
     27 C          -7.6041    1.1322    0.9951 C.ar    1  UNL1        0.0913
     28 N          -8.8568    1.2149    1.6299 N.pl3   1  UNL1       -0.2173
     29 S         -10.2815    1.4111    0.6832 S.O2    1  UNL1        0.0404
     30 C         -10.4234    0.0138   -0.3709 C.3     1  UNL1        0.0736
     31 O         -10.2432    2.6906   -0.1100 O.2     1  UNL1       -0.1555
     32 O         -11.5081    1.4909    1.5546 O.2     1  UNL1       -0.1555
     33 C          -6.4993    0.7741    1.7315 C.ar    1  UNL1        0.1634
     34 O          -6.7009    0.5246    3.0965 O.3     1  UNL1       -0.4914
     35 C          -7.0110   -0.7728    3.5369 C.3     1  UNL1        0.0790
     36 C          -0.2554   -2.1215    1.9236 C.ar    1  UNL1        0.0069
     37 C          -1.2733   -3.0347    1.7895 C.ar    1  UNL1       -0.0521
     38 C          -1.0020   -4.3257    1.4080 C.ar    1  UNL1       -0.0611
     39 C           0.3017   -4.7098    1.1588 C.ar    1  UNL1       -0.0611
     40 C           1.3294   -3.8086    1.2884 C.ar    1  UNL1       -0.0505
     41 C           1.0804   -2.5053    1.6662 C.ar    1  UNL1        0.0262
     42 C           4.3609   -3.0266   -0.3445 C.ar    1  UNL1       -0.0011
     43 C           5.0203   -2.9502   -1.5839 C.ar    1  UNL1        0.0332
     44 N           5.3740   -1.7490   -2.0554 N.ar    1  UNL1       -0.2400
     45 C           7.4594    2.1537   -2.0449 C.ar    1  UNL1       -0.0395
     46 C           8.7885    2.4286   -1.8072 C.ar    1  UNL1       -0.0439
     47 C           9.6192    1.5688   -1.0885 C.ar    1  UNL1        0.0780
     48 P          11.3437    1.9087   -0.7851 P.3     1  UNL1        0.2316
     49 C          11.7280    3.5281   -1.5179 C.3     1  UNL1        0.0168
     50 O          11.6913    1.8691    0.6780 O.2     1  UNL1       -0.2861
     51 O          12.2264    0.7408   -1.6425 O.3     1  UNL1       -0.3406
     52 H           8.4212   -1.3664    1.2995 H       1  UNL1        0.0660
     53 H           8.7782   -2.2572   -0.2135 H       1  UNL1        0.0660
     54 H           9.9961   -2.2947    1.1025 H       1  UNL1        0.0660
     55 H           7.2783   -0.8031   -0.4619 H       1  UNL1        0.0673
     56 H           4.8415    1.2680   -2.2897 H       1  UNL1        0.1536
     57 H           4.2254    0.1639    0.4408 H       1  UNL1        0.0689
     58 H           2.5726    0.4150    2.4031 H       1  UNL1        0.0655
     59 H           0.2325    1.0424    2.8405 H       1  UNL1        0.0637
     60 H          -2.2549   -0.5954    3.5912 H       1  UNL1        0.1564
     61 H          -4.4068    0.1202    3.0621 H       1  UNL1        0.1565
     62 H          -4.1822    0.8622   -0.6678 H       1  UNL1        0.0640
     63 H          -5.3174   -0.2194   -3.3997 H       1  UNL1        0.0238
     64 H          -6.7968    0.4510   -4.1507 H       1  UNL1        0.0238
     65 H          -6.9589   -0.3576   -2.5640 H       1  UNL1        0.0238
     66 H          -8.1897    1.8239   -2.9360 H       1  UNL1        0.0238
     67 H          -7.0403    2.8260   -3.8399 H       1  UNL1        0.0238
     68 H          -7.4941    3.2665   -2.1104 H       1  UNL1        0.0238
     69 H          -4.6961    3.2048   -2.1957 H       1  UNL1        0.0238
     70 H          -5.0750    2.6949   -3.8409 H       1  UNL1        0.0238
     71 H          -3.9827    1.6402   -2.8520 H       1  UNL1        0.0238
     72 H          -8.3466    1.6673   -0.9054 H       1  UNL1        0.0641
     73 H          -8.9346    1.1585    2.6535 H       1  UNL1        0.1734
     74 H          -9.5002   -0.6146   -0.2929 H       1  UNL1        0.0482
     75 H         -11.2705   -0.6016   -0.0712 H       1  UNL1        0.0482
     76 H         -10.4761    0.3845   -1.4259 H       1  UNL1        0.0482
     77 H          -6.1614   -1.2240    4.1261 H       1  UNL1        0.0660
     78 H          -7.8498   -0.7455    4.2955 H       1  UNL1        0.0660
     79 H          -7.3378   -1.4666    2.7521 H       1  UNL1        0.0660
     80 H          -2.2874   -2.7408    1.9842 H       1  UNL1        0.0624
     81 H          -1.8265   -5.0234    1.3122 H       1  UNL1        0.0618
     82 H           0.5093   -5.7418    0.8575 H       1  UNL1        0.0618
     83 H           2.3385   -4.1038    1.1410 H       1  UNL1        0.0625
     84 H           4.1319   -4.0183   -0.0169 H       1  UNL1        0.0669
     85 H           5.2359   -3.8280   -2.1436 H       1  UNL1        0.0831
     86 H           6.8246    2.8455   -2.6150 H       1  UNL1        0.0636
     87 H           9.2373    3.3497   -2.1831 H       1  UNL1        0.0627
     88 H          11.4513    3.4892   -2.5842 H       1  UNL1        0.0331
     89 H          11.0938    4.2827   -1.0151 H       1  UNL1        0.0331
     90 H          12.8135    3.7748   -1.4296 H       1  UNL1        0.0331
     91 H          12.6805    0.1093   -1.0276 H       1  UNL1        0.2179
@<TRIPOS>BOND
     1     1     2    1
     2     2     3    1
     3     3     4   ar
     4     4     5   ar
     5     5     6    1
     6     6     7    1
     7     7     8   ar
     8     8     9   ar
     9     9    10    1
    10    10    11    1
    11    11    12   ar
    12    12    13   ar
    13    13    14   ar
    14    14    15    1
    15    15    16   am
    16    16    17    2
    17    16    18   am
    18    18    19    1
    19    19    20   ar
    20    20    21   ar
    21    21    22    1
    22    22    23    1
    23    22    24    1
    24    22    25    1
    25    21    26   ar
    26    26    27   ar
    27    27    28    1
    28    28    29    1
    29    29    30    1
    30    29    31    2
    31    29    32    2
    32    27    33   ar
    33    33    34    1
    34    34    35    1
    35    14    36   ar
    36    36    37   ar
    37    37    38   ar
    38    38    39   ar
    39    39    40   ar
    40    40    41   ar
    41     9    42   ar
    42    42    43   ar
    43    43    44   ar
    44     5    45   ar
    45    45    46   ar
    46    46    47   ar
    47    47    48    1
    48    48    49    1
    49    48    50    2
    50    48    51    1
    51    47     3   ar
    52    44     7   ar
    53    41    11   ar
    54    33    19   ar
    55    41    36   ar
    56     1    52    1
    57     1    53    1
    58     1    54    1
    59     4    55    1
    60     6    56    1
    61     8    57    1
    62    12    58    1
    63    13    59    1
    64    15    60    1
    65    18    61    1
    66    20    62    1
    67    23    63    1
    68    23    64    1
    69    23    65    1
    70    24    66    1
    71    24    67    1
    72    24    68    1
    73    25    69    1
    74    25    70    1
    75    25    71    1
    76    26    72    1
    77    28    73    1
    78    30    74    1
    79    30    75    1
    80    30    76    1
    81    35    77    1
    82    35    78    1
    83    35    79    1
    84    37    80    1
    85    38    81    1
    86    39    82    1
    87    40    83    1
    88    42    84    1
    89    43    85    1
    90    45    86    1
    91    46    87    1
    92    49    88    1
    93    49    89    1
    94    49    90    1
    95    51    91    1
