@<TRIPOS>MOLECULE
*****
 62 67 0 0 0
SMALL
GASTEIGER

@<TRIPOS>ATOM
      1 C          -4.1637    4.7528    0.7090 C.3     1  UNL1       -0.0223
      2 C          -3.0574    3.7720    0.8377 C.ar    1  UNL1        0.0390
      3 C          -1.7603    4.2365    0.8970 C.ar    1  UNL1       -0.0406
      4 C          -0.7514    3.3277    1.0151 C.ar    1  UNL1       -0.0580
      5 C          -1.0080    1.9859    1.0742 C.ar    1  UNL1       -0.0341
      6 C          -2.3085    1.5350    1.0138 C.ar    1  UNL1        0.0918
      7 C          -2.6498    0.1123    1.0704 C.ar    1  UNL1        0.1188
      8 N          -3.3649   -0.4812    2.0434 N.ar    1  UNL1       -0.1688
      9 N          -3.5021   -1.7628    1.8135 N.ar    1  UNL1       -0.2671
     10 C          -2.8667   -2.0354    0.6638 C.ar    1  UNL1        0.0476
     11 C          -2.3045   -0.8569    0.1529 C.ar    1  UNL1        0.0322
     12 C          -1.5350   -0.7103   -1.0760 C.ar    1  UNL1       -0.0119
     13 C          -1.9650    0.0427   -2.1493 C.ar    1  UNL1       -0.0518
     14 C          -1.2169    0.1695   -3.3085 C.ar    1  UNL1       -0.0337
     15 C           0.0033   -0.4744   -3.4072 C.ar    1  UNL1        0.0890
     16 N           0.9188   -0.5286   -4.3874 N.ar    1  UNL1       -0.2357
     17 C           1.9293   -1.3028   -3.9626 C.ar    1  UNL1        0.0970
     18 N           1.6427   -1.7297   -2.7191 N.ar    1  UNL1       -0.3300
     19 C           2.4731   -2.5849   -1.8903 C.3     1  UNL1        0.0259
     20 C           3.4459   -1.8058   -1.0555 C.3     1  UNL1       -0.0221
     21 C           2.7980   -0.8348   -0.1110 C.3     1  UNL1        0.0005
     22 N           3.8816   -0.1612    0.6226 N.3     1  UNL1       -0.3023
     23 C           4.6315    0.6899   -0.3051 C.3     1  UNL1       -0.0011
     24 C           5.1992    1.7658    0.5888 C.3     1  UNL1       -0.0390
     25 C           4.0107    2.0575    1.4899 C.3     1  UNL1       -0.0390
     26 C           3.3095    0.7455    1.5975 C.3     1  UNL1       -0.0011
     27 C           0.4517   -1.2310   -2.3477 C.ar    1  UNL1        0.0692
     28 C          -0.3185   -1.3481   -1.1828 C.ar    1  UNL1       -0.0282
     29 C          -2.9742   -3.4679    0.3306 C.3     1  UNL1       -0.0084
     30 C          -4.0519   -3.9604    1.2509 C.3     1  UNL1       -0.0279
     31 C          -4.1018   -2.9761    2.3725 C.3     1  UNL1        0.0422
     32 N          -3.2910    2.4443    0.8974 N.ar    1  UNL1       -0.2503
     33 H          -4.2078    5.2983    1.6866 H       1  UNL1        0.0292
     34 H          -5.1271    4.2512    0.4556 H       1  UNL1        0.0292
     35 H          -3.9118    5.4366   -0.1357 H       1  UNL1        0.0292
     36 H          -1.6015    5.3179    0.8465 H       1  UNL1        0.0635
     37 H           0.2649    3.7027    1.0608 H       1  UNL1        0.0619
     38 H          -0.2325    1.2359    1.1685 H       1  UNL1        0.0639
     39 H          -2.9211    0.5472   -2.0717 H       1  UNL1        0.0624
     40 H          -1.5513    0.7590   -4.1527 H       1  UNL1        0.0640
     41 H           2.8428   -1.5570   -4.5187 H       1  UNL1        0.1029
     42 H           3.0524   -3.3039   -2.4941 H       1  UNL1        0.0492
     43 H           1.8393   -3.1729   -1.1928 H       1  UNL1        0.0492
     44 H           4.0663   -2.5046   -0.4749 H       1  UNL1        0.0295
     45 H           4.0542   -1.1923   -1.7666 H       1  UNL1        0.0295
     46 H           2.2263   -0.0774   -0.6894 H       1  UNL1        0.0427
     47 H           2.1582   -1.3353    0.6421 H       1  UNL1        0.0427
     48 H           5.4207    0.1189   -0.8269 H       1  UNL1        0.0426
     49 H           3.8929    1.1327   -0.9865 H       1  UNL1        0.0426
     50 H           6.0178    1.4169    1.2175 H       1  UNL1        0.0278
     51 H           5.4296    2.6999    0.0355 H       1  UNL1        0.0278
     52 H           4.4111    2.4403    2.4626 H       1  UNL1        0.0278
     53 H           3.3789    2.8666    1.0814 H       1  UNL1        0.0278
     54 H           3.5108    0.3206    2.6138 H       1  UNL1        0.0426
     55 H           2.2091    0.8279    1.4277 H       1  UNL1        0.0426
     56 H           0.0772   -1.9562   -0.3750 H       1  UNL1        0.0645
     57 H          -3.2540   -3.5611   -0.7421 H       1  UNL1        0.0329
     58 H          -2.0505   -4.0458    0.5511 H       1  UNL1        0.0329
     59 H          -3.8304   -4.9771    1.6356 H       1  UNL1        0.0287
     60 H          -4.9888   -4.0342    0.6758 H       1  UNL1        0.0287
     61 H          -3.5051   -3.2486    3.2524 H       1  UNL1        0.0509
     62 H          -5.1746   -2.7914    2.6133 H       1  UNL1        0.0509
@<TRIPOS>BOND
     1     1     2    1
     2     2     3   ar
     3     3     4   ar
     4     4     5   ar
     5     5     6   ar
     6     6     7    1
     7     7     8   ar
     8     8     9   ar
     9     9    10   ar
    10    10    11   ar
    11    11    12    1
    12    12    13   ar
    13    13    14   ar
    14    14    15   ar
    15    15    16   ar
    16    16    17   ar
    17    17    18   ar
    18    18    19    1
    19    19    20    1
    20    20    21    1
    21    21    22    1
    22    22    23    1
    23    23    24    1
    24    24    25    1
    25    25    26    1
    26    18    27   ar
    27    27    28   ar
    28    10    29    1
    29    29    30    1
    30    30    31    1
    31     6    32   ar
    32    32     2   ar
    33    11     7   ar
    34    28    12   ar
    35    31     9    1
    36    27    15   ar
    37    26    22    1
    38     1    33    1
    39     1    34    1
    40     1    35    1
    41     3    36    1
    42     4    37    1
    43     5    38    1
    44    13    39    1
    45    14    40    1
    46    17    41    1
    47    19    42    1
    48    19    43    1
    49    20    44    1
    50    20    45    1
    51    21    46    1
    52    21    47    1
    53    23    48    1
    54    23    49    1
    55    24    50    1
    56    24    51    1
    57    25    52    1
    58    25    53    1
    59    26    54    1
    60    26    55    1
    61    28    56    1
    62    29    57    1
    63    29    58    1
    64    30    59    1
    65    30    60    1
    66    31    61    1
    67    31    62    1
