
     RDKit          3D

 59 63  0  0  0  0  0  0  0  0999 V2000
    0.2858   -2.0374   -0.6426 C   0  0  0  0  0  0  0  0  0  0  0  0
   -0.3259   -1.8593    0.7292 C   0  0  2  0  0  0  0  0  0  0  0  0
    0.6287   -1.0753    1.5509 C   0  0  0  0  0  0  0  0  0  0  0  0
    1.8265   -0.6530    1.0280 C   0  0  0  0  0  0  0  0  0  0  0  0
    2.7192    0.0711    1.7889 C   0  0  0  0  0  0  0  0  0  0  0  0
    4.0141    0.5548    1.2818 C   0  0  0  0  0  0  0  0  0  0  0  0
    4.1894    1.0403    0.0751 C   0  0  0  0  0  0  0  0  0  0  0  0
    3.0707    1.0802   -0.7258 F   0  0  0  0  0  0  0  0  0  0  0  0
    5.4730    1.5219   -0.4417 C   0  0  0  0  0  0  0  0  0  0  0  0
    6.6461    1.5190    0.2686 C   0  0  0  0  0  0  0  0  0  0  0  0
    7.8155    1.9757   -0.2427 N   0  0  0  0  0  0  0  0  0  0  0  0
    7.8691    2.4615   -1.5006 C   0  0  0  0  0  0  0  0  0  0  0  0
    9.1061    2.9442   -2.0429 C   0  0  0  0  0  0  0  0  0  0  0  0
   10.1172    3.3224   -2.4937 N   0  0  0  0  0  0  0  0  0  0  0  0
    6.6952    2.4680   -2.2219 C   0  0  0  0  0  0  0  0  0  0  0  0
    5.5420    2.0141   -1.7073 N   0  0  0  0  0  0  0  0  0  0  0  0
    2.4069    0.3744    3.0876 C   0  0  0  0  0  0  0  0  0  0  0  0
    1.2127   -0.0428    3.6198 C   0  0  0  0  0  0  0  0  0  0  0  0
    0.3297   -0.7643    2.8519 C   0  0  0  0  0  0  0  0  0  0  0  0
   -0.8240   -1.1316    3.4667 F   0  0  0  0  0  0  0  0  0  0  0  0
   -0.4922   -3.1198    1.4154 N   0  0  0  0  0  0  0  0  0  0  0  0
   -1.3590   -4.0026    1.0812 C   0  0  0  0  0  0  0  0  0  0  0  0
   -1.4723   -5.2138    1.7889 N   0  0  0  0  0  0  0  0  0  0  0  0
   -2.3980   -3.5937   -0.3052 S   0  0  0  0  0  0  0  0  0  0  0  0
   -2.6713   -1.7659   -0.1843 C   0  0  1  0  0  0  0  0  0  0  0  0
   -3.5390   -1.1839   -1.1925 C   0  0  0  0  0  0  0  0  0  0  0  0
   -4.2287   -2.0542   -1.8720 O   0  0  0  0  0  0  0  0  0  0  0  0
   -3.7706    0.1414   -1.5680 N   0  0  0  0  0  0  0  0  0  0  0  0
   -4.7299    0.4204   -2.6637 C   0  0  0  0  0  0  0  0  0  0  0  0
   -5.9011    1.1146   -2.0440 C   0  0  0  0  0  0  0  0  0  0  0  0
   -5.3883    2.3986   -1.4140 C   0  0  0  0  0  0  0  0  0  0  0  0
   -3.9059    2.5374   -1.5630 C   0  0  0  0  0  0  0  0  0  0  0  0
   -3.1720    1.3184   -0.9946 C   0  0  0  0  0  0  0  0  0  0  0  0
   -2.8423   -1.3630    1.2729 C   0  0  0  0  0  0  0  0  0  0  0  0
   -1.6072   -1.0866    0.5227 C   0  0  1  0  0  0  0  0  0  0  0  0
   -0.3989   -2.5052   -1.3798 H   0  0  0  0  0  0  0  0  0  0  0  0
    0.4421   -0.9961   -1.0496 H   0  0  0  0  0  0  0  0  0  0  0  0
    1.2515   -2.5451   -0.6379 H   0  0  0  0  0  0  0  0  0  0  0  0
    2.1423   -0.8574    0.0134 H   0  0  0  0  0  0  0  0  0  0  0  0
    4.8573    0.4974    1.9604 H   0  0  0  0  0  0  0  0  0  0  0  0
    6.6394    1.1355    1.2785 H   0  0  0  0  0  0  0  0  0  0  0  0
    6.7703    2.8672   -3.2364 H   0  0  0  0  0  0  0  0  0  0  0  0
    3.1164    0.9478    3.6829 H   0  0  0  0  0  0  0  0  0  0  0  0
    0.9884    0.2091    4.6489 H   0  0  0  0  0  0  0  0  0  0  0  0
   -0.6939   -5.5230    2.4183 H   0  0  0  0  0  0  0  0  0  0  0  0
   -2.2986   -5.8498    1.7332 H   0  0  0  0  0  0  0  0  0  0  0  0
   -4.2693    1.0872   -3.4114 H   0  0  0  0  0  0  0  0  0  0  0  0
   -5.0090   -0.5305   -3.1666 H   0  0  0  0  0  0  0  0  0  0  0  0
   -6.2774    0.4756   -1.2128 H   0  0  0  0  0  0  0  0  0  0  0  0
   -6.7143    1.3130   -2.7607 H   0  0  0  0  0  0  0  0  0  0  0  0
   -5.8866    3.2341   -1.9122 H   0  0  0  0  0  0  0  0  0  0  0  0
   -5.6215    2.4418   -0.3304 H   0  0  0  0  0  0  0  0  0  0  0  0
   -3.5956    3.3962   -0.9053 H   0  0  0  0  0  0  0  0  0  0  0  0
   -3.5702    2.7832   -2.5726 H   0  0  0  0  0  0  0  0  0  0  0  0
   -3.2267    1.3606    0.1179 H   0  0  0  0  0  0  0  0  0  0  0  0
   -2.1224    1.4517   -1.3258 H   0  0  0  0  0  0  0  0  0  0  0  0
   -2.8656   -2.1386    2.0644 H   0  0  0  0  0  0  0  0  0  0  0  0
   -3.5844   -0.5758    1.4231 H   0  0  0  0  0  0  0  0  0  0  0  0
   -1.3930   -0.0103    0.3548 H   0  0  0  0  0  0  0  0  0  0  0  0
  2  1  1  6
  2  3  1  0
  3  4  2  0
  4  5  1  0
  5  6  1  0
  6  7  2  0
  7  8  1  0
  7  9  1  0
  9 10  2  0
 10 11  1  0
 11 12  2  0
 12 13  1  0
 13 14  3  0
 12 15  1  0
 15 16  2  0
  5 17  2  0
 17 18  1  0
 18 19  2  0
 19 20  1  0
  2 21  1  0
 21 22  2  0
 22 23  1  0
 22 24  1  0
 24 25  1  0
 25 26  1  6
 26 27  2  0
 26 28  1  0
 28 29  1  0
 29 30  1  0
 30 31  1  0
 31 32  1  0
 32 33  1  0
 25 34  1  0
 34 35  1  0
 35  2  1  0
 19  3  1  0
 35 25  1  0
 16  9  1  0
 33 28  1  0
  1 36  1  0
  1 37  1  0
  1 38  1  0
  4 39  1  0
  6 40  1  0
 10 41  1  0
 15 42  1  0
 17 43  1  0
 18 44  1  0
 23 45  1  0
 23 46  1  0
 29 47  1  0
 29 48  1  0
 30 49  1  0
 30 50  1  0
 31 51  1  0
 31 52  1  0
 32 53  1  0
 32 54  1  0
 33 55  1  0
 33 56  1  0
 34 57  1  0
 34 58  1  0
 35 59  1  6
M  END
$$$$
