@<TRIPOS>MOLECULE
*****
 59 63 0 0 0
SMALL
GASTEIGER

@<TRIPOS>ATOM
      1 C           0.2858   -2.0374   -0.6426 C.3     1  UNL1       -0.0351
      2 C          -0.3259   -1.8593    0.7292 C.3     1  UNL1        0.0935
      3 C           0.6287   -1.0753    1.5509 C.ar    1  UNL1        0.0158
      4 C           1.8265   -0.6530    1.0280 C.ar    1  UNL1       -0.0463
      5 C           2.7192    0.0711    1.7889 C.ar    1  UNL1       -0.0217
      6 C           4.0141    0.5548    1.2818 C.2     1  UNL1       -0.0171
      7 C           4.1894    1.0403    0.0751 C.2     1  UNL1        0.1506
      8 F           3.0707    1.0802   -0.7258 F       1  UNL1       -0.2032
      9 C           5.4730    1.5219   -0.4417 C.ar    1  UNL1        0.1170
     10 C           6.6461    1.5190    0.2686 C.ar    1  UNL1        0.0572
     11 N           7.8155    1.9757   -0.2427 N.ar    1  UNL1       -0.2409
     12 C           7.8691    2.4615   -1.5006 C.ar    1  UNL1        0.1581
     13 C           9.1061    2.9442   -2.0429 C.1     1  UNL1        0.1206
     14 N          10.1172    3.3224   -2.4937 N.1     1  UNL1       -0.1892
     15 C           6.6952    2.4680   -2.2219 C.ar    1  UNL1        0.0642
     16 N           5.5420    2.0141   -1.7073 N.ar    1  UNL1       -0.2483
     17 C           2.4069    0.3744    3.0876 C.ar    1  UNL1       -0.0518
     18 C           1.2127   -0.0428    3.6198 C.ar    1  UNL1       -0.0255
     19 C           0.3297   -0.7643    2.8519 C.ar    1  UNL1        0.1289
     20 F          -0.8240   -1.1316    3.4667 F       1  UNL1       -0.2051
     21 N          -0.4922   -3.1198    1.4154 N.2     1  UNL1       -0.2521
     22 C          -1.3590   -4.0026    1.0812 C.2     1  UNL1        0.1485
     23 N          -1.4723   -5.2138    1.7889 N.pl3   1  UNL1       -0.3380
     24 S          -2.3980   -3.5937   -0.3052 S.3     1  UNL1       -0.0746
     25 C          -2.6713   -1.7659   -0.1843 C.3     1  UNL1        0.1054
     26 C          -3.5390   -1.1839   -1.1925 C.2     1  UNL1        0.2324
     27 O          -4.2287   -2.0542   -1.8720 O.2     1  UNL1       -0.2741
     28 N          -3.7706    0.1414   -1.5680 N.am    1  UNL1       -0.3003
     29 C          -4.7299    0.4204   -2.6637 C.3     1  UNL1        0.0147
     30 C          -5.9011    1.1146   -2.0440 C.3     1  UNL1       -0.0371
     31 C          -5.3883    2.3986   -1.4140 C.3     1  UNL1       -0.0502
     32 C          -3.9059    2.5374   -1.5630 C.3     1  UNL1       -0.0371
     33 C          -3.1720    1.3184   -0.9946 C.3     1  UNL1        0.0147
     34 C          -2.8423   -1.3630    1.2729 C.3     1  UNL1       -0.0220
     35 C          -1.6072   -1.0866    0.5227 C.3     1  UNL1        0.0134
     36 H          -0.3989   -2.5052   -1.3798 H       1  UNL1        0.0256
     37 H           0.4421   -0.9961   -1.0496 H       1  UNL1        0.0256
     38 H           1.2515   -2.5451   -0.6379 H       1  UNL1        0.0256
     39 H           2.1423   -0.8574    0.0134 H       1  UNL1        0.0628
     40 H           4.8573    0.4974    1.9604 H       1  UNL1        0.0653
     41 H           6.6394    1.1355    1.2785 H       1  UNL1        0.0852
     42 H           6.7703    2.8672   -3.2364 H       1  UNL1        0.0859
     43 H           3.1164    0.9478    3.6829 H       1  UNL1        0.0624
     44 H           0.9884    0.2091    4.6489 H       1  UNL1        0.0646
     45 H          -0.6939   -5.5230    2.4183 H       1  UNL1        0.1442
     46 H          -2.2986   -5.8498    1.7332 H       1  UNL1        0.1442
     47 H          -4.2693    1.0872   -3.4114 H       1  UNL1        0.0464
     48 H          -5.0090   -0.5305   -3.1666 H       1  UNL1        0.0464
     49 H          -6.2774    0.4756   -1.2128 H       1  UNL1        0.0280
     50 H          -6.7143    1.3130   -2.7607 H       1  UNL1        0.0280
     51 H          -5.8866    3.2341   -1.9122 H       1  UNL1        0.0266
     52 H          -5.6215    2.4418   -0.3304 H       1  UNL1        0.0266
     53 H          -3.5956    3.3962   -0.9053 H       1  UNL1        0.0280
     54 H          -3.5702    2.7832   -2.5726 H       1  UNL1        0.0280
     55 H          -3.2267    1.3606    0.1179 H       1  UNL1        0.0464
     56 H          -2.1224    1.4517   -1.3258 H       1  UNL1        0.0464
     57 H          -2.8656   -2.1386    2.0644 H       1  UNL1        0.0287
     58 H          -3.5844   -0.5758    1.4231 H       1  UNL1        0.0287
     59 H          -1.3930   -0.0103    0.3548 H       1  UNL1        0.0346
@<TRIPOS>BOND
     1     2     1    1
     2     2     3    1
     3     3     4   ar
     4     4     5   ar
     5     5     6    1
     6     6     7    2
     7     7     8    1
     8     7     9    1
     9     9    10   ar
    10    10    11   ar
    11    11    12   ar
    12    12    13    1
    13    13    14    3
    14    12    15   ar
    15    15    16   ar
    16     5    17   ar
    17    17    18   ar
    18    18    19   ar
    19    19    20    1
    20     2    21    1
    21    21    22    2
    22    22    23    1
    23    22    24    1
    24    24    25    1
    25    25    26    1
    26    26    27    2
    27    26    28   am
    28    28    29    1
    29    29    30    1
    30    30    31    1
    31    31    32    1
    32    32    33    1
    33    25    34    1
    34    34    35    1
    35    35     2    1
    36    19     3   ar
    37    35    25    1
    38    16     9   ar
    39    33    28    1
    40     1    36    1
    41     1    37    1
    42     1    38    1
    43     4    39    1
    44     6    40    1
    45    10    41    1
    46    15    42    1
    47    17    43    1
    48    18    44    1
    49    23    45    1
    50    23    46    1
    51    29    47    1
    52    29    48    1
    53    30    49    1
    54    30    50    1
    55    31    51    1
    56    31    52    1
    57    32    53    1
    58    32    54    1
    59    33    55    1
    60    33    56    1
    61    34    57    1
    62    34    58    1
    63    35    59    1
