@<TRIPOS>MOLECULE
*****
 50 52 0 0 0
SMALL
GASTEIGER

@<TRIPOS>ATOM
      1 C           7.2076    0.6044    1.5754 C.3     1  UNL1        0.0121
      2 C           5.7393    0.6745    1.1965 C.2     1  UNL1        0.2100
      3 O           4.9221    0.0509    1.8970 O.2     1  UNL1       -0.2761
      4 N           5.3224    1.4153    0.0974 N.am    1  UNL1       -0.3128
      5 C           4.0410    1.6257   -0.4729 C.3     1  UNL1        0.0405
      6 C           3.3769    0.4492   -1.0853 C.3     1  UNL1        0.0843
      7 O           4.2731   -0.0429   -2.0693 O.3     1  UNL1       -0.3869
      8 C           2.1903    0.9354   -1.9573 C.3     1  UNL1       -0.0066
      9 C           0.8849    0.8838   -1.1839 C.3     1  UNL1        0.0175
     10 N           0.6503   -0.4623   -0.7127 N.pl3   1  UNL1       -0.2994
     11 C          -0.6029   -0.8405   -0.2214 C.ar    1  UNL1        0.2214
     12 N          -1.6554   -0.0333   -0.1444 N.ar    1  UNL1       -0.1790
     13 C          -2.8824   -0.4134    0.3398 C.ar    1  UNL1        0.2254
     14 O          -3.8428    0.4624    0.3684 O.3     1  UNL1       -0.4378
     15 C          -5.0675    0.8419    0.6253 C.ar    1  UNL1        0.1331
     16 C          -5.4209    2.1825    0.3287 C.ar    1  UNL1       -0.0191
     17 C          -6.6611    2.7022    0.5481 C.ar    1  UNL1       -0.0556
     18 C          -7.6060    1.8578    1.0888 C.ar    1  UNL1       -0.0262
     19 C          -7.2905    0.5509    1.3868 C.ar    1  UNL1        0.1269
     20 F          -8.2275   -0.2978    1.9264 F       1  UNL1       -0.2054
     21 C          -6.0388    0.0179    1.1678 C.ar    1  UNL1        0.0160
     22 C          -2.9568   -1.7202    0.7524 C.ar    1  UNL1        0.0305
     23 C          -1.8896   -2.6131    0.6966 C.ar    1  UNL1        0.1522
     24 C          -2.0551   -4.0137    1.1648 C.3     1  UNL1        0.4345
     25 F          -2.4248   -4.7628    0.0466 F       1  UNL1       -0.1644
     26 F          -0.8950   -4.4699    1.7217 F       1  UNL1       -0.1644
     27 F          -3.1274   -4.0769    2.0343 F       1  UNL1       -0.1644
     28 N          -0.7489   -2.1220    0.2054 N.ar    1  UNL1       -0.2101
     29 C           1.7606   -1.3682   -0.7789 C.3     1  UNL1        0.0175
     30 C           2.9324   -0.5717   -0.1173 C.3     1  UNL1       -0.0066
     31 H           7.3625   -0.3116    2.1756 H       1  UNL1        0.0322
     32 H           7.4843    1.4662    2.2164 H       1  UNL1        0.0322
     33 H           7.8275    0.5337    0.6536 H       1  UNL1        0.0322
     34 H           6.1514    1.9228   -0.4109 H       1  UNL1        0.1488
     35 H           4.0681    2.5088   -1.1693 H       1  UNL1        0.0490
     36 H           3.3624    1.9257    0.4053 H       1  UNL1        0.0490
     37 H           4.2282   -1.0288   -2.1217 H       1  UNL1        0.2102
     38 H           2.3913    1.9932   -2.1947 H       1  UNL1        0.0309
     39 H           2.1050    0.3448   -2.8851 H       1  UNL1        0.0309
     40 H           0.0952    1.1805   -1.8770 H       1  UNL1        0.0465
     41 H           0.9354    1.6316   -0.3726 H       1  UNL1        0.0465
     42 H          -4.6676    2.8509   -0.1010 H       1  UNL1        0.0654
     43 H          -6.9331    3.7316    0.3205 H       1  UNL1        0.0620
     44 H          -8.6115    2.2075    1.2883 H       1  UNL1        0.0646
     45 H          -5.8555   -1.0246    1.4263 H       1  UNL1        0.0683
     46 H          -3.8760   -2.1187    1.1490 H       1  UNL1        0.0692
     47 H           1.6549   -2.2671   -0.1695 H       1  UNL1        0.0465
     48 H           2.0429   -1.5755   -1.8101 H       1  UNL1        0.0465
     49 H           2.5646   -0.1244    0.8058 H       1  UNL1        0.0309
     50 H           3.7623   -1.2931    0.0429 H       1  UNL1        0.0309
@<TRIPOS>BOND
     1     1     2    1
     2     2     3    2
     3     2     4   am
     4     4     5    1
     5     5     6    1
     6     6     7    1
     7     6     8    1
     8     8     9    1
     9     9    10    1
    10    10    11    1
    11    11    12   ar
    12    12    13   ar
    13    13    14    1
    14    14    15    1
    15    15    16   ar
    16    16    17   ar
    17    17    18   ar
    18    18    19   ar
    19    19    20    1
    20    19    21   ar
    21    13    22   ar
    22    22    23   ar
    23    23    24    1
    24    24    25    1
    25    24    26    1
    26    24    27    1
    27    23    28   ar
    28    10    29    1
    29    29    30    1
    30    30     6    1
    31    28    11   ar
    32    21    15   ar
    33     1    31    1
    34     1    32    1
    35     1    33    1
    36     4    34    1
    37     5    35    1
    38     5    36    1
    39     7    37    1
    40     8    38    1
    41     8    39    1
    42     9    40    1
    43     9    41    1
    44    16    42    1
    45    17    43    1
    46    18    44    1
    47    21    45    1
    48    22    46    1
    49    29    47    1
    50    29    48    1
    51    30    49    1
    52    30    50    1
