
     RDKit          3D

 50 52  0  0  0  0  0  0  0  0999 V2000
    7.2076    0.6044    1.5754 C   0  0  0  0  0  0  0  0  0  0  0  0
    5.7393    0.6745    1.1965 C   0  0  0  0  0  0  0  0  0  0  0  0
    4.9221    0.0509    1.8970 O   0  0  0  0  0  0  0  0  0  0  0  0
    5.3224    1.4153    0.0974 N   0  0  0  0  0  0  0  0  0  0  0  0
    4.0410    1.6257   -0.4729 C   0  0  0  0  0  0  0  0  0  0  0  0
    3.3769    0.4492   -1.0853 C   0  0  0  0  0  0  0  0  0  0  0  0
    4.2731   -0.0429   -2.0693 O   0  0  0  0  0  0  0  0  0  0  0  0
    2.1903    0.9354   -1.9573 C   0  0  0  0  0  0  0  0  0  0  0  0
    0.8849    0.8838   -1.1839 C   0  0  0  0  0  0  0  0  0  0  0  0
    0.6503   -0.4623   -0.7127 N   0  0  0  0  0  0  0  0  0  0  0  0
   -0.6029   -0.8405   -0.2214 C   0  0  0  0  0  0  0  0  0  0  0  0
   -1.6554   -0.0333   -0.1444 N   0  0  0  0  0  0  0  0  0  0  0  0
   -2.8824   -0.4134    0.3398 C   0  0  0  0  0  0  0  0  0  0  0  0
   -3.8428    0.4624    0.3684 O   0  0  0  0  0  0  0  0  0  0  0  0
   -5.0675    0.8419    0.6253 C   0  0  0  0  0  0  0  0  0  0  0  0
   -5.4209    2.1825    0.3287 C   0  0  0  0  0  0  0  0  0  0  0  0
   -6.6611    2.7022    0.5481 C   0  0  0  0  0  0  0  0  0  0  0  0
   -7.6060    1.8578    1.0888 C   0  0  0  0  0  0  0  0  0  0  0  0
   -7.2905    0.5509    1.3868 C   0  0  0  0  0  0  0  0  0  0  0  0
   -8.2275   -0.2978    1.9264 F   0  0  0  0  0  0  0  0  0  0  0  0
   -6.0388    0.0179    1.1678 C   0  0  0  0  0  0  0  0  0  0  0  0
   -2.9568   -1.7202    0.7524 C   0  0  0  0  0  0  0  0  0  0  0  0
   -1.8896   -2.6131    0.6966 C   0  0  0  0  0  0  0  0  0  0  0  0
   -2.0551   -4.0137    1.1648 C   0  0  0  0  0  0  0  0  0  0  0  0
   -2.4248   -4.7628    0.0466 F   0  0  0  0  0  0  0  0  0  0  0  0
   -0.8950   -4.4699    1.7217 F   0  0  0  0  0  0  0  0  0  0  0  0
   -3.1274   -4.0769    2.0343 F   0  0  0  0  0  0  0  0  0  0  0  0
   -0.7489   -2.1220    0.2054 N   0  0  0  0  0  0  0  0  0  0  0  0
    1.7606   -1.3682   -0.7789 C   0  0  0  0  0  0  0  0  0  0  0  0
    2.9324   -0.5717   -0.1173 C   0  0  0  0  0  0  0  0  0  0  0  0
    7.3625   -0.3116    2.1756 H   0  0  0  0  0  0  0  0  0  0  0  0
    7.4843    1.4662    2.2164 H   0  0  0  0  0  0  0  0  0  0  0  0
    7.8275    0.5337    0.6536 H   0  0  0  0  0  0  0  0  0  0  0  0
    6.1514    1.9228   -0.4109 H   0  0  0  0  0  0  0  0  0  0  0  0
    4.0681    2.5088   -1.1693 H   0  0  0  0  0  0  0  0  0  0  0  0
    3.3624    1.9257    0.4053 H   0  0  0  0  0  0  0  0  0  0  0  0
    4.2282   -1.0288   -2.1217 H   0  0  0  0  0  0  0  0  0  0  0  0
    2.3913    1.9932   -2.1947 H   0  0  0  0  0  0  0  0  0  0  0  0
    2.1050    0.3448   -2.8851 H   0  0  0  0  0  0  0  0  0  0  0  0
    0.0952    1.1805   -1.8770 H   0  0  0  0  0  0  0  0  0  0  0  0
    0.9354    1.6316   -0.3726 H   0  0  0  0  0  0  0  0  0  0  0  0
   -4.6676    2.8509   -0.1010 H   0  0  0  0  0  0  0  0  0  0  0  0
   -6.9331    3.7316    0.3205 H   0  0  0  0  0  0  0  0  0  0  0  0
   -8.6115    2.2075    1.2883 H   0  0  0  0  0  0  0  0  0  0  0  0
   -5.8555   -1.0246    1.4263 H   0  0  0  0  0  0  0  0  0  0  0  0
   -3.8760   -2.1187    1.1490 H   0  0  0  0  0  0  0  0  0  0  0  0
    1.6549   -2.2671   -0.1695 H   0  0  0  0  0  0  0  0  0  0  0  0
    2.0429   -1.5755   -1.8101 H   0  0  0  0  0  0  0  0  0  0  0  0
    2.5646   -0.1244    0.8058 H   0  0  0  0  0  0  0  0  0  0  0  0
    3.7623   -1.2931    0.0429 H   0  0  0  0  0  0  0  0  0  0  0  0
  1  2  1  0
  2  3  2  0
  2  4  1  0
  4  5  1  0
  5  6  1  0
  6  7  1  0
  6  8  1  0
  8  9  1  0
  9 10  1  0
 10 11  1  0
 11 12  2  0
 12 13  1  0
 13 14  1  0
 14 15  1  0
 15 16  2  0
 16 17  1  0
 17 18  2  0
 18 19  1  0
 19 20  1  0
 19 21  2  0
 13 22  2  0
 22 23  1  0
 23 24  1  0
 24 25  1  0
 24 26  1  0
 24 27  1  0
 23 28  2  0
 10 29  1  0
 29 30  1  0
 30  6  1  0
 28 11  1  0
 21 15  1  0
  1 31  1  0
  1 32  1  0
  1 33  1  0
  4 34  1  0
  5 35  1  0
  5 36  1  0
  7 37  1  0
  8 38  1  0
  8 39  1  0
  9 40  1  0
  9 41  1  0
 16 42  1  0
 17 43  1  0
 18 44  1  0
 21 45  1  0
 22 46  1  0
 29 47  1  0
 29 48  1  0
 30 49  1  0
 30 50  1  0
M  END
$$$$
