@<TRIPOS>MOLECULE
*****
 26 26 0 0 0
SMALL
GASTEIGER

@<TRIPOS>ATOM
      1 C          -1.5621   -0.6090   -1.2709 C.3     1  UNL1       -0.0469
      2 C          -1.5138   -0.1201    0.1468 C.3     1  UNL1        0.0148
      3 C          -2.6533   -0.8459    0.8778 C.3     1  UNL1       -0.0469
      4 N          -1.8772    1.2750    0.1932 N.3     1  UNL1       -0.3248
      5 C          -0.2839   -0.4854    0.8911 C.3     1  UNL1       -0.0100
      6 C           0.9923   -0.0070    0.3586 C.ar    1  UNL1       -0.0456
      7 C           1.5665    1.2052    0.7098 C.ar    1  UNL1       -0.0585
      8 C           2.7765    1.5479    0.1392 C.ar    1  UNL1       -0.0615
      9 C           3.4689    0.7761   -0.7611 C.ar    1  UNL1       -0.0617
     10 C           2.8963   -0.4272   -1.1081 C.ar    1  UNL1       -0.0615
     11 C           1.6846   -0.8091   -0.5595 C.ar    1  UNL1       -0.0585
     12 H          -1.2657   -1.6767   -1.3398 H       1  UNL1        0.0247
     13 H          -1.0086    0.0221   -1.9858 H       1  UNL1        0.0247
     14 H          -2.6390   -0.5863   -1.6120 H       1  UNL1        0.0247
     15 H          -2.6506   -0.4899    1.9365 H       1  UNL1        0.0247
     16 H          -2.3930   -1.9229    0.9472 H       1  UNL1        0.0247
     17 H          -3.6246   -0.6925    0.4069 H       1  UNL1        0.0247
     18 H          -1.5973    1.6822    1.1103 H       1  UNL1        0.1187
     19 H          -2.8980    1.3474    0.0073 H       1  UNL1        0.1187
     20 H          -0.2462   -1.5966    0.9116 H       1  UNL1        0.0331
     21 H          -0.4542   -0.2019    1.9591 H       1  UNL1        0.0331
     22 H           1.0587    1.8401    1.4109 H       1  UNL1        0.0620
     23 H           3.1732    2.5132    0.4576 H       1  UNL1        0.0618
     24 H           4.4139    1.1150   -1.1645 H       1  UNL1        0.0618
     25 H           3.3998   -1.0788   -1.8163 H       1  UNL1        0.0618
     26 H           1.2371   -1.7749   -0.8458 H       1  UNL1        0.0620
@<TRIPOS>BOND
     1     1     2    1
     2     2     3    1
     3     2     4    1
     4     2     5    1
     5     5     6    1
     6     6     7   ar
     7     7     8   ar
     8     8     9   ar
     9     9    10   ar
    10    10    11   ar
    11    11     6   ar
    12     1    12    1
    13     1    13    1
    14     1    14    1
    15     3    15    1
    16     3    16    1
    17     3    17    1
    18     4    18    1
    19     4    19    1
    20     5    20    1
    21     5    21    1
    22     7    22    1
    23     8    23    1
    24     9    24    1
    25    10    25    1
    26    11    26    1
