@<TRIPOS>MOLECULE
*****
 56 60 0 0 0
SMALL
GASTEIGER

@<TRIPOS>ATOM
      1 C           9.4205    0.4611   -0.8840 C.3     1  UNL1       -0.0307
      2 C           7.9970    0.1142   -1.2973 C.3     1  UNL1        0.0868
      3 O           7.1639    0.3601   -0.2078 O.3     1  UNL1       -0.4922
      4 C           5.7951    0.1608   -0.2074 C.ar    1  UNL1        0.1211
      5 C           5.1329   -0.3096   -1.3163 C.ar    1  UNL1       -0.0193
      6 C           3.7662   -0.5154   -1.3356 C.ar    1  UNL1       -0.0506
      7 C           3.0159   -0.2456   -0.2114 C.ar    1  UNL1       -0.0170
      8 C           1.6320   -0.4536   -0.2300 C.ar    1  UNL1       -0.0448
      9 C           0.8837   -0.1869    0.8877 C.ar    1  UNL1        0.0035
     10 C          -0.5593   -0.4123    0.9302 C.ar    1  UNL1        0.1053
     11 N          -1.4970    0.5081    1.3096 N.ar    1  UNL1       -0.1686
     12 N          -2.7070    0.0159    1.2650 N.ar    1  UNL1       -0.2454
     13 C          -3.9769    0.6575    1.5844 C.3     1  UNL1        0.0467
     14 C          -4.6114    1.3389    0.4192 C.3     1  UNL1       -0.0191
     15 C          -4.8832    0.3550   -0.6683 C.3     1  UNL1       -0.0359
     16 C          -5.7388    0.9284   -1.7784 C.3     1  UNL1       -0.0038
     17 N          -6.1295    2.2821   -1.5325 N.3     1  UNL1       -0.3160
     18 C          -6.7168    2.5160   -0.2492 C.3     1  UNL1       -0.0038
     19 C          -5.9314    1.9169    0.8954 C.3     1  UNL1       -0.0359
     20 C          -2.5853   -1.2613    0.8485 C.ar    1  UNL1        0.1638
     21 N          -3.4720   -2.2454    0.6265 N.ar    1  UNL1       -0.2161
     22 C          -3.1031   -3.4699    0.2136 C.ar    1  UNL1        0.1204
     23 N          -1.8009   -3.7425    0.0088 N.ar    1  UNL1       -0.2204
     24 C          -0.8484   -2.8183    0.2059 C.ar    1  UNL1        0.1308
     25 N           0.5101   -3.1595   -0.0005 N.pl3   1  UNL1       -0.3425
     26 C          -1.2419   -1.5668    0.6279 C.ar    1  UNL1        0.0859
     27 C           1.5433    0.2867    2.0057 C.ar    1  UNL1       -0.0519
     28 C           2.9011    0.4936    2.0307 C.ar    1  UNL1       -0.0533
     29 C           3.6622    0.2275    0.9123 C.ar    1  UNL1       -0.0144
     30 C           5.0357    0.4276    0.9120 C.ar    1  UNL1       -0.0122
     31 H           9.7296    1.4493   -1.2777 H       1  UNL1        0.0262
     32 H          10.1358   -0.3084   -1.2674 H       1  UNL1        0.0262
     33 H           9.4971    0.4328    0.2405 H       1  UNL1        0.0262
     34 H           7.7257    0.8300   -2.1074 H       1  UNL1        0.0694
     35 H           7.9974   -0.9334   -1.6371 H       1  UNL1        0.0694
     36 H           5.7029   -0.5206   -2.1882 H       1  UNL1        0.0654
     37 H           3.2318   -0.8847   -2.2001 H       1  UNL1        0.0625
     38 H           1.1543   -0.8033   -1.1250 H       1  UNL1        0.0630
     39 H          -4.7105   -0.0939    1.9818 H       1  UNL1        0.0512
     40 H          -3.8524    1.3954    2.4180 H       1  UNL1        0.0512
     41 H          -3.9886    2.1969    0.0913 H       1  UNL1        0.0319
     42 H          -5.4646   -0.4820   -0.2324 H       1  UNL1        0.0281
     43 H          -3.9388   -0.0582   -1.0516 H       1  UNL1        0.0281
     44 H          -6.6473    0.3262   -1.9735 H       1  UNL1        0.0424
     45 H          -5.1361    0.9035   -2.7020 H       1  UNL1        0.0424
     46 H          -5.3958    2.9563   -1.7930 H       1  UNL1        0.1219
     47 H          -7.7638    2.1779   -0.1734 H       1  UNL1        0.0424
     48 H          -6.7160    3.6288   -0.0889 H       1  UNL1        0.0424
     49 H          -6.4978    1.0696    1.3659 H       1  UNL1        0.0281
     50 H          -5.7802    2.6569    1.7174 H       1  UNL1        0.0281
     51 H          -3.8978   -4.1917    0.0638 H       1  UNL1        0.1048
     52 H           1.2119   -3.2567    0.7598 H       1  UNL1        0.1437
     53 H           0.8327   -3.3249   -0.9747 H       1  UNL1        0.1437
     54 H           0.9750    0.5014    2.8881 H       1  UNL1        0.0624
     55 H           3.4203    0.8690    2.9182 H       1  UNL1        0.0624
     56 H           5.5186    0.8001    1.8082 H       1  UNL1        0.0660
@<TRIPOS>BOND
     1     1     2    1
     2     2     3    1
     3     3     4    1
     4     4     5   ar
     5     5     6   ar
     6     6     7   ar
     7     7     8   ar
     8     8     9   ar
     9     9    10    1
    10    10    11   ar
    11    11    12   ar
    12    12    13    1
    13    13    14    1
    14    14    15    1
    15    15    16    1
    16    16    17    1
    17    17    18    1
    18    18    19    1
    19    12    20   ar
    20    20    21   ar
    21    21    22   ar
    22    22    23   ar
    23    23    24   ar
    24    24    25    1
    25    24    26   ar
    26     9    27   ar
    27    27    28   ar
    28    28    29   ar
    29    29    30   ar
    30    30     4   ar
    31    29     7   ar
    32    26    10   ar
    33    19    14    1
    34    26    20   ar
    35     1    31    1
    36     1    32    1
    37     1    33    1
    38     2    34    1
    39     2    35    1
    40     5    36    1
    41     6    37    1
    42     8    38    1
    43    13    39    1
    44    13    40    1
    45    14    41    1
    46    15    42    1
    47    15    43    1
    48    16    44    1
    49    16    45    1
    50    17    46    1
    51    18    47    1
    52    18    48    1
    53    19    49    1
    54    19    50    1
    55    22    51    1
    56    25    52    1
    57    25    53    1
    58    27    54    1
    59    28    55    1
    60    30    56    1
