@<TRIPOS>MOLECULE
*****
 8 8 0 0 0
SMALL
GASTEIGER

@<TRIPOS>ATOM
      1 N          -0.7536   -0.6922   -0.0332 N.ar    1  UNL1       -0.2655
      2 C          -0.7590    0.6662    0.0071 C.ar    1  UNL1        0.1113
      3 N           0.5401    1.0180    0.0393 N.ar    1  UNL1       -0.2231
      4 C           1.3281   -0.0782    0.0198 C.ar    1  UNL1        0.1377
      5 N           0.4958   -1.1112   -0.0248 N.ar    1  UNL1       -0.1611
      6 H          -1.6345   -1.2844   -0.0655 H       1  UNL1        0.1900
      7 H          -1.5983    1.3617    0.0138 H       1  UNL1        0.1041
      8 H           2.3814    0.1201    0.0433 H       1  UNL1        0.1065
@<TRIPOS>BOND
     1     1     2   ar
     2     2     3   ar
     3     3     4   ar
     4     4     5   ar
     5     5     1   ar
     6     1     6    1
     7     2     7    1
     8     4     8    1
