@<TRIPOS>MOLECULE
*****
 58 61 0 0 0
SMALL
GASTEIGER

@<TRIPOS>ATOM
      1 C          -3.4418   -2.2567   -2.6336 C.3     1  UNL1        0.0790
      2 O          -2.8023   -1.6736   -1.5204 O.3     1  UNL1       -0.4914
      3 C          -3.5507   -1.1470   -0.4782 C.ar    1  UNL1        0.1622
      4 C          -3.0008   -0.5496    0.6668 C.ar    1  UNL1        0.1619
      5 O          -1.6542   -0.5692    0.5877 O.3     1  UNL1       -0.4883
      6 C          -0.6607   -0.1038    1.4261 C.3     1  UNL1        0.0909
      7 C          -0.6173    1.3585    1.6867 C.3     1  UNL1       -0.0058
      8 C          -0.4229    2.2583    0.5122 C.3     1  UNL1        0.0020
      9 N           0.7384    2.1566   -0.2533 N.3     1  UNL1       -0.3022
     10 C           0.9780    1.0750   -1.0941 C.3     1  UNL1       -0.0005
     11 C           2.2981    0.3793   -0.9781 C.3     1  UNL1       -0.0318
     12 C           3.3605    1.0879   -0.2204 C.3     1  UNL1        0.0075
     13 C           2.8781    2.1055    0.7635 C.3     1  UNL1       -0.0318
     14 C           1.8513    2.9790    0.0795 C.3     1  UNL1       -0.0005
     15 C           4.2142    0.1192    0.5561 C.ar    1  UNL1        0.0945
     16 N           4.1492   -0.3606    1.8114 N.ar    1  UNL1       -0.0818
     17 O           5.1231   -1.1843    2.0305 O.2     1  UNL1       -0.3543
     18 C           5.8905   -1.3176    0.9786 C.ar    1  UNL1        0.1702
     19 C           5.3322   -0.5032    0.0411 C.ar    1  UNL1        0.0447
     20 C           5.9531   -0.4455   -1.2040 C.ar    1  UNL1       -0.0464
     21 C           7.0819   -1.1920   -1.4454 C.ar    1  UNL1       -0.0256
     22 C           7.6574   -2.0234   -0.4988 C.ar    1  UNL1        0.1270
     23 F           8.7708   -2.7533   -0.7538 F       1  UNL1       -0.2054
     24 C           7.0229   -2.0675    0.7384 C.ar    1  UNL1        0.0192
     25 C          -3.9082   -0.0894    1.5860 C.ar    1  UNL1       -0.0156
     26 C          -5.2747   -0.1688    1.4680 C.ar    1  UNL1       -0.0476
     27 C          -5.7826   -0.7602    0.3328 C.ar    1  UNL1        0.0208
     28 C          -4.9378   -1.2509   -0.6425 C.ar    1  UNL1       -0.0058
     29 C          -7.2191   -0.8624    0.1675 C.2     1  UNL1        0.1602
     30 C          -8.1446   -0.3324    1.2095 C.3     1  UNL1       -0.0014
     31 O          -7.6967   -1.4111   -0.8806 O.2     1  UNL1       -0.2924
     32 H          -4.0948   -1.5216   -3.1675 H       1  UNL1        0.0660
     33 H          -4.1339   -3.0840   -2.3232 H       1  UNL1        0.0660
     34 H          -2.7388   -2.7003   -3.3437 H       1  UNL1        0.0660
     35 H           0.3629   -0.4092    1.0547 H       1  UNL1        0.0697
     36 H          -0.8199   -0.6649    2.4167 H       1  UNL1        0.0697
     37 H          -1.6172    1.6653    2.1298 H       1  UNL1        0.0310
     38 H           0.1822    1.6176    2.4345 H       1  UNL1        0.0310
     39 H          -0.4483    3.3155    0.9480 H       1  UNL1        0.0428
     40 H          -1.3739    2.2512   -0.1290 H       1  UNL1        0.0428
     41 H           0.1164    0.3889   -1.1442 H       1  UNL1        0.0427
     42 H           0.9752    1.5146   -2.1656 H       1  UNL1        0.0427
     43 H           2.6678    0.1014   -2.0122 H       1  UNL1        0.0284
     44 H           2.1242   -0.6044   -0.5018 H       1  UNL1        0.0284
     45 H           4.0306    1.6064   -0.9392 H       1  UNL1        0.0366
     46 H           3.7657    2.7011    1.0954 H       1  UNL1        0.0284
     47 H           2.4123    1.6042    1.6114 H       1  UNL1        0.0284
     48 H           2.3704    3.3726   -0.8403 H       1  UNL1        0.0427
     49 H           1.5057    3.8015    0.7312 H       1  UNL1        0.0427
     50 H           5.5253    0.2035   -1.9813 H       1  UNL1        0.0626
     51 H           7.5593   -1.1474   -2.4046 H       1  UNL1        0.0646
     52 H           7.4541   -2.7097    1.4932 H       1  UNL1        0.0684
     53 H          -3.4860    0.3475    2.4496 H       1  UNL1        0.0655
     54 H          -5.8749    0.2361    2.2715 H       1  UNL1        0.0626
     55 H          -5.4055   -1.6994   -1.5006 H       1  UNL1        0.0662
     56 H          -9.1260   -0.8259    1.0596 H       1  UNL1        0.0309
     57 H          -8.2998    0.7552    1.1246 H       1  UNL1        0.0309
     58 H          -7.8185   -0.6128    2.2297 H       1  UNL1        0.0309
@<TRIPOS>BOND
     1     1     2    1
     2     2     3    1
     3     3     4   ar
     4     4     5    1
     5     5     6    1
     6     6     7    1
     7     7     8    1
     8     8     9    1
     9     9    10    1
    10    10    11    1
    11    11    12    1
    12    12    13    1
    13    13    14    1
    14    12    15    1
    15    15    16   ar
    16    16    17   ar
    17    17    18   ar
    18    18    19   ar
    19    19    20   ar
    20    20    21   ar
    21    21    22   ar
    22    22    23    1
    23    22    24   ar
    24     4    25   ar
    25    25    26   ar
    26    26    27   ar
    27    27    28   ar
    28    27    29    1
    29    29    30    1
    30    29    31    2
    31    28     3   ar
    32    14     9    1
    33    19    15   ar
    34    24    18   ar
    35     1    32    1
    36     1    33    1
    37     1    34    1
    38     6    35    1
    39     6    36    1
    40     7    37    1
    41     7    38    1
    42     8    39    1
    43     8    40    1
    44    10    41    1
    45    10    42    1
    46    11    43    1
    47    11    44    1
    48    12    45    1
    49    13    46    1
    50    13    47    1
    51    14    48    1
    52    14    49    1
    53    20    50    1
    54    21    51    1
    55    24    52    1
    56    25    53    1
    57    26    54    1
    58    28    55    1
    59    30    56    1
    60    30    57    1
    61    30    58    1
