
     RDKit          3D

 58 61  0  0  0  0  0  0  0  0999 V2000
   -3.4418   -2.2567   -2.6336 C   0  0  0  0  0  0  0  0  0  0  0  0
   -2.8023   -1.6736   -1.5204 O   0  0  0  0  0  0  0  0  0  0  0  0
   -3.5507   -1.1470   -0.4782 C   0  0  0  0  0  0  0  0  0  0  0  0
   -3.0008   -0.5496    0.6668 C   0  0  0  0  0  0  0  0  0  0  0  0
   -1.6542   -0.5692    0.5877 O   0  0  0  0  0  0  0  0  0  0  0  0
   -0.6607   -0.1038    1.4261 C   0  0  0  0  0  0  0  0  0  0  0  0
   -0.6173    1.3585    1.6867 C   0  0  0  0  0  0  0  0  0  0  0  0
   -0.4229    2.2583    0.5122 C   0  0  0  0  0  0  0  0  0  0  0  0
    0.7384    2.1566   -0.2533 N   0  0  0  0  0  0  0  0  0  0  0  0
    0.9780    1.0750   -1.0941 C   0  0  0  0  0  0  0  0  0  0  0  0
    2.2981    0.3793   -0.9781 C   0  0  0  0  0  0  0  0  0  0  0  0
    3.3605    1.0879   -0.2204 C   0  0  0  0  0  0  0  0  0  0  0  0
    2.8781    2.1055    0.7635 C   0  0  0  0  0  0  0  0  0  0  0  0
    1.8513    2.9790    0.0795 C   0  0  0  0  0  0  0  0  0  0  0  0
    4.2142    0.1192    0.5561 C   0  0  0  0  0  0  0  0  0  0  0  0
    4.1492   -0.3606    1.8114 N   0  0  0  0  0  0  0  0  0  0  0  0
    5.1231   -1.1843    2.0305 O   0  0  0  0  0  0  0  0  0  0  0  0
    5.8905   -1.3176    0.9786 C   0  0  0  0  0  0  0  0  0  0  0  0
    5.3322   -0.5032    0.0411 C   0  0  0  0  0  0  0  0  0  0  0  0
    5.9531   -0.4455   -1.2040 C   0  0  0  0  0  0  0  0  0  0  0  0
    7.0819   -1.1920   -1.4454 C   0  0  0  0  0  0  0  0  0  0  0  0
    7.6574   -2.0234   -0.4988 C   0  0  0  0  0  0  0  0  0  0  0  0
    8.7708   -2.7533   -0.7538 F   0  0  0  0  0  0  0  0  0  0  0  0
    7.0229   -2.0675    0.7384 C   0  0  0  0  0  0  0  0  0  0  0  0
   -3.9082   -0.0894    1.5860 C   0  0  0  0  0  0  0  0  0  0  0  0
   -5.2747   -0.1688    1.4680 C   0  0  0  0  0  0  0  0  0  0  0  0
   -5.7826   -0.7602    0.3328 C   0  0  0  0  0  0  0  0  0  0  0  0
   -4.9378   -1.2509   -0.6425 C   0  0  0  0  0  0  0  0  0  0  0  0
   -7.2191   -0.8624    0.1675 C   0  0  0  0  0  0  0  0  0  0  0  0
   -8.1446   -0.3324    1.2095 C   0  0  0  0  0  0  0  0  0  0  0  0
   -7.6967   -1.4111   -0.8806 O   0  0  0  0  0  0  0  0  0  0  0  0
   -4.0948   -1.5216   -3.1675 H   0  0  0  0  0  0  0  0  0  0  0  0
   -4.1339   -3.0840   -2.3232 H   0  0  0  0  0  0  0  0  0  0  0  0
   -2.7388   -2.7003   -3.3437 H   0  0  0  0  0  0  0  0  0  0  0  0
    0.3629   -0.4092    1.0547 H   0  0  0  0  0  0  0  0  0  0  0  0
   -0.8199   -0.6649    2.4167 H   0  0  0  0  0  0  0  0  0  0  0  0
   -1.6172    1.6653    2.1298 H   0  0  0  0  0  0  0  0  0  0  0  0
    0.1822    1.6176    2.4345 H   0  0  0  0  0  0  0  0  0  0  0  0
   -0.4483    3.3155    0.9480 H   0  0  0  0  0  0  0  0  0  0  0  0
   -1.3739    2.2512   -0.1290 H   0  0  0  0  0  0  0  0  0  0  0  0
    0.1164    0.3889   -1.1442 H   0  0  0  0  0  0  0  0  0  0  0  0
    0.9752    1.5146   -2.1656 H   0  0  0  0  0  0  0  0  0  0  0  0
    2.6678    0.1014   -2.0122 H   0  0  0  0  0  0  0  0  0  0  0  0
    2.1242   -0.6044   -0.5018 H   0  0  0  0  0  0  0  0  0  0  0  0
    4.0306    1.6064   -0.9392 H   0  0  0  0  0  0  0  0  0  0  0  0
    3.7657    2.7011    1.0954 H   0  0  0  0  0  0  0  0  0  0  0  0
    2.4123    1.6042    1.6114 H   0  0  0  0  0  0  0  0  0  0  0  0
    2.3704    3.3726   -0.8403 H   0  0  0  0  0  0  0  0  0  0  0  0
    1.5057    3.8015    0.7312 H   0  0  0  0  0  0  0  0  0  0  0  0
    5.5253    0.2035   -1.9813 H   0  0  0  0  0  0  0  0  0  0  0  0
    7.5593   -1.1474   -2.4046 H   0  0  0  0  0  0  0  0  0  0  0  0
    7.4541   -2.7097    1.4932 H   0  0  0  0  0  0  0  0  0  0  0  0
   -3.4860    0.3475    2.4496 H   0  0  0  0  0  0  0  0  0  0  0  0
   -5.8749    0.2361    2.2715 H   0  0  0  0  0  0  0  0  0  0  0  0
   -5.4055   -1.6994   -1.5006 H   0  0  0  0  0  0  0  0  0  0  0  0
   -9.1260   -0.8259    1.0596 H   0  0  0  0  0  0  0  0  0  0  0  0
   -8.2998    0.7552    1.1246 H   0  0  0  0  0  0  0  0  0  0  0  0
   -7.8185   -0.6128    2.2297 H   0  0  0  0  0  0  0  0  0  0  0  0
  1  2  1  0
  2  3  1  0
  3  4  2  0
  4  5  1  0
  5  6  1  0
  6  7  1  0
  7  8  1  0
  8  9  1  0
  9 10  1  0
 10 11  1  0
 11 12  1  0
 12 13  1  0
 13 14  1  0
 12 15  1  0
 15 16  2  0
 16 17  1  0
 17 18  1  0
 18 19  2  0
 19 20  1  0
 20 21  2  0
 21 22  1  0
 22 23  1  0
 22 24  2  0
  4 25  1  0
 25 26  2  0
 26 27  1  0
 27 28  2  0
 27 29  1  0
 29 30  1  0
 29 31  2  0
 28  3  1  0
 14  9  1  0
 19 15  1  0
 24 18  1  0
  1 32  1  0
  1 33  1  0
  1 34  1  0
  6 35  1  0
  6 36  1  0
  7 37  1  0
  7 38  1  0
  8 39  1  0
  8 40  1  0
 10 41  1  0
 10 42  1  0
 11 43  1  0
 11 44  1  0
 12 45  1  0
 13 46  1  0
 13 47  1  0
 14 48  1  0
 14 49  1  0
 20 50  1  0
 21 51  1  0
 24 52  1  0
 25 53  1  0
 26 54  1  0
 28 55  1  0
 30 56  1  0
 30 57  1  0
 30 58  1  0
M  END
$$$$
