
     RDKit          3D

 58 61  0  0  0  0  0  0  0  0999 V2000
    2.2048    0.4254    0.0231 O   0  0  0  0  0  0  0  0  0  0  0  0
    2.0020   -0.7650    0.3469 C   0  0  0  0  0  0  0  0  0  0  0  0
    3.0587   -1.6896    0.8345 C   0  0  0  0  0  0  0  0  0  0  0  0
    4.3535   -1.0405    0.8881 N   0  0  0  0  0  0  0  0  0  0  0  0
    4.9593   -0.4948   -0.2814 C   0  0  0  0  0  0  0  0  0  0  0  0
    4.3037   -0.6136   -1.3454 O   0  0  0  0  0  0  0  0  0  0  0  0
    6.2583    0.1559   -0.2243 C   0  0  0  0  0  0  0  0  0  0  0  0
    6.7719    0.6602   -1.4212 C   0  0  0  0  0  0  0  0  0  0  0  0
    8.0018    1.2931   -1.4503 C   0  0  0  0  0  0  0  0  0  0  0  0
    8.7644    1.4514   -0.3129 C   0  0  0  0  0  0  0  0  0  0  0  0
    8.2631    0.9561    0.8704 C   0  0  0  0  0  0  0  0  0  0  0  0
    9.0392    1.0965    2.1302 C   0  0  0  0  0  0  0  0  0  0  0  0
   10.3399    1.4235    1.8289 F   0  0  0  0  0  0  0  0  0  0  0  0
    9.0616   -0.1286    2.8050 F   0  0  0  0  0  0  0  0  0  0  0  0
    8.4500    1.9929    3.0001 F   0  0  0  0  0  0  0  0  0  0  0  0
    7.0184    0.3154    0.9006 C   0  0  0  0  0  0  0  0  0  0  0  0
    0.6799   -1.2788    0.2466 N   0  0  0  0  0  0  0  0  0  0  0  0
   -0.4256   -0.4696   -0.2153 C   0  0  0  0  0  0  0  0  0  0  0  0
   -1.6207   -0.5273    0.7128 C   0  0  0  0  0  0  0  0  0  0  0  0
   -2.5039   -0.8654   -0.3632 N   0  0  0  0  0  0  0  0  0  0  0  0
   -3.2022    0.2325   -0.9752 C   0  0  1  0  0  0  0  0  0  0  0  0
   -4.0731   -0.3490   -2.0796 C   0  0  0  0  0  0  0  0  0  0  0  0
   -5.3612   -0.8966   -1.4996 C   0  0  0  0  0  0  0  0  0  0  0  0
   -6.1914    0.1966   -0.8599 C   0  0  1  0  0  0  0  0  0  0  0  0
   -7.2832    0.5247   -1.6595 O   0  0  0  0  0  0  0  0  0  0  0  0
   -6.6282   -0.2087    0.4852 C   0  0  0  0  0  0  0  0  0  0  0  0
   -7.3845    0.4252    1.4405 C   0  0  0  0  0  0  0  0  0  0  0  0
   -7.6392   -0.1475    2.5709 C   0  0  0  0  0  0  0  0  0  0  0  0
   -7.1397   -1.4528    2.8522 N   0  0  0  0  0  0  0  0  0  0  0  0
   -6.2448   -1.7881    1.2954 S   0  0  0  0  0  0  0  0  0  0  0  0
   -5.3234    1.4257   -0.7309 C   0  0  0  0  0  0  0  0  0  0  0  0
   -4.0518    1.0157   -0.0110 C   0  0  0  0  0  0  0  0  0  0  0  0
   -1.3377   -1.2153   -1.1639 C   0  0  0  0  0  0  0  0  0  0  0  0
    2.7585   -1.9987    1.8536 H   0  0  0  0  0  0  0  0  0  0  0  0
    3.0834   -2.6021    0.2054 H   0  0  0  0  0  0  0  0  0  0  0  0
    4.8292   -0.9857    1.8146 H   0  0  0  0  0  0  0  0  0  0  0  0
    6.1811    0.5429   -2.3286 H   0  0  0  0  0  0  0  0  0  0  0  0
    8.3966    1.6856   -2.3942 H   0  0  0  0  0  0  0  0  0  0  0  0
    9.7255    1.9548   -0.3791 H   0  0  0  0  0  0  0  0  0  0  0  0
    6.6285   -0.0733    1.8382 H   0  0  0  0  0  0  0  0  0  0  0  0
    0.4608   -2.2720    0.5071 H   0  0  0  0  0  0  0  0  0  0  0  0
   -0.1836    0.5626   -0.4832 H   0  0  0  0  0  0  0  0  0  0  0  0
   -1.5609   -1.3646    1.4416 H   0  0  0  0  0  0  0  0  0  0  0  0
   -1.8970    0.4163    1.1992 H   0  0  0  0  0  0  0  0  0  0  0  0
   -2.4609    0.9206   -1.4032 H   0  0  0  0  0  0  0  0  0  0  0  0
   -3.5348   -1.2240   -2.5180 H   0  0  0  0  0  0  0  0  0  0  0  0
   -4.2367    0.3567   -2.9063 H   0  0  0  0  0  0  0  0  0  0  0  0
   -5.0814   -1.6674   -0.7600 H   0  0  0  0  0  0  0  0  0  0  0  0
   -5.8978   -1.4111   -2.3170 H   0  0  0  0  0  0  0  0  0  0  0  0
   -7.1592    0.0649   -2.5288 H   0  0  0  0  0  0  0  0  0  0  0  0
   -7.7577    1.4790    1.1495 H   0  0  0  0  0  0  0  0  0  0  0  0
   -8.2498    0.3178    3.3899 H   0  0  0  0  0  0  0  0  0  0  0  0
   -5.8651    2.2371   -0.2008 H   0  0  0  0  0  0  0  0  0  0  0  0
   -5.0335    1.8170   -1.7230 H   0  0  0  0  0  0  0  0  0  0  0  0
   -3.5558    1.9377    0.3509 H   0  0  0  0  0  0  0  0  0  0  0  0
   -4.2580    0.3894    0.8747 H   0  0  0  0  0  0  0  0  0  0  0  0
   -1.3067   -0.7835   -2.1727 H   0  0  0  0  0  0  0  0  0  0  0  0
   -1.1448   -2.3235   -1.1474 H   0  0  0  0  0  0  0  0  0  0  0  0
  1  2  2  0
  2  3  1  0
  3  4  1  0
  4  5  1  0
  5  6  2  0
  5  7  1  0
  7  8  2  0
  8  9  1  0
  9 10  2  0
 10 11  1  0
 11 12  1  0
 12 13  1  0
 12 14  1  0
 12 15  1  0
 11 16  2  0
  2 17  1  0
 17 18  1  0
 18 19  1  0
 19 20  1  0
 20 21  1  0
 21 22  1  0
 22 23  1  0
 23 24  1  0
 24 25  1  6
 24 26  1  0
 26 27  2  0
 27 28  1  0
 28 29  2  0
 29 30  1  0
 24 31  1  0
 31 32  1  0
 20 33  1  0
 16  7  1  0
 33 18  1  0
 32 21  1  0
 30 26  1  0
  3 34  1  0
  3 35  1  0
  4 36  1  0
  8 37  1  0
  9 38  1  0
 10 39  1  0
 16 40  1  0
 17 41  1  0
 18 42  1  0
 19 43  1  0
 19 44  1  0
 21 45  1  6
 22 46  1  0
 22 47  1  0
 23 48  1  0
 23 49  1  0
 25 50  1  0
 27 51  1  0
 28 52  1  0
 31 53  1  0
 31 54  1  0
 32 55  1  0
 32 56  1  0
 33 57  1  0
 33 58  1  0
M  END
$$$$
