@<TRIPOS>MOLECULE
*****
 58 61 0 0 0
SMALL
GASTEIGER

@<TRIPOS>ATOM
      1 O           2.2048    0.4254    0.0231 O.2     1  UNL1       -0.2741
      2 C           2.0020   -0.7650    0.3469 C.2     1  UNL1        0.2305
      3 C           3.0587   -1.6896    0.8345 C.3     1  UNL1        0.0884
      4 N           4.3535   -1.0405    0.8881 N.am    1  UNL1       -0.3028
      5 C           4.9593   -0.4948   -0.2814 C.2     1  UNL1        0.2445
      6 O           4.3037   -0.6136   -1.3454 O.2     1  UNL1       -0.2702
      7 C           6.2583    0.1559   -0.2243 C.ar    1  UNL1        0.0372
      8 C           6.7719    0.6602   -1.4212 C.ar    1  UNL1       -0.0496
      9 C           8.0018    1.2931   -1.4503 C.ar    1  UNL1       -0.0605
     10 C           8.7644    1.4514   -0.3129 C.ar    1  UNL1       -0.0501
     11 C           8.2631    0.9561    0.8704 C.ar    1  UNL1        0.0555
     12 C           9.0392    1.0965    2.1302 C.3     1  UNL1        0.4174
     13 F          10.3399    1.4235    1.8289 F       1  UNL1       -0.1659
     14 F           9.0616   -0.1286    2.8050 F       1  UNL1       -0.1659
     15 F           8.4500    1.9929    3.0001 F       1  UNL1       -0.1659
     16 C           7.0184    0.3154    0.9006 C.ar    1  UNL1       -0.0380
     17 N           0.6799   -1.2788    0.2466 N.am    1  UNL1       -0.3087
     18 C          -0.4256   -0.4696   -0.2153 C.3     1  UNL1        0.0486
     19 C          -1.6207   -0.5273    0.7128 C.3     1  UNL1        0.0189
     20 N          -2.5039   -0.8654   -0.3632 N.3     1  UNL1       -0.2958
     21 C          -3.2022    0.2325   -0.9752 C.3     1  UNL1        0.0107
     22 C          -4.0731   -0.3490   -2.0796 C.3     1  UNL1       -0.0344
     23 C          -5.3612   -0.8966   -1.4996 C.3     1  UNL1       -0.0179
     24 C          -6.1914    0.1966   -0.8599 C.3     1  UNL1        0.0985
     25 O          -7.2832    0.5247   -1.6595 O.3     1  UNL1       -0.3834
     26 C          -6.6282   -0.2087    0.4852 C.ar    1  UNL1        0.0410
     27 C          -7.3845    0.4252    1.4405 C.ar    1  UNL1       -0.0291
     28 C          -7.6392   -0.1475    2.5709 C.ar    1  UNL1        0.0370
     29 N          -7.1397   -1.4528    2.8522 N.ar    1  UNL1       -0.2184
     30 S          -6.2448   -1.7881    1.2954 S.2     1  UNL1        0.0095
     31 C          -5.3234    1.4257   -0.7309 C.3     1  UNL1       -0.0179
     32 C          -4.0518    1.0157   -0.0110 C.3     1  UNL1       -0.0344
     33 C          -1.3377   -1.2153   -1.1639 C.3     1  UNL1        0.0189
     34 H           2.7585   -1.9987    1.8536 H       1  UNL1        0.0558
     35 H           3.0834   -2.6021    0.2054 H       1  UNL1        0.0558
     36 H           4.8292   -0.9857    1.8146 H       1  UNL1        0.1495
     37 H           6.1811    0.5429   -2.3286 H       1  UNL1        0.0625
     38 H           8.3966    1.6856   -2.3942 H       1  UNL1        0.0618
     39 H           9.7255    1.9548   -0.3791 H       1  UNL1        0.0623
     40 H           6.6285   -0.0733    1.8382 H       1  UNL1        0.0631
     41 H           0.4608   -2.2720    0.5071 H       1  UNL1        0.1491
     42 H          -0.1836    0.5626   -0.4832 H       1  UNL1        0.0523
     43 H          -1.5609   -1.3646    1.4416 H       1  UNL1        0.0445
     44 H          -1.8970    0.4163    1.1992 H       1  UNL1        0.0445
     45 H          -2.4609    0.9206   -1.4032 H       1  UNL1        0.0462
     46 H          -3.5348   -1.2240   -2.5180 H       1  UNL1        0.0281
     47 H          -4.2367    0.3567   -2.9063 H       1  UNL1        0.0281
     48 H          -5.0814   -1.6674   -0.7600 H       1  UNL1        0.0297
     49 H          -5.8978   -1.4111   -2.3170 H       1  UNL1        0.0297
     50 H          -7.1592    0.0649   -2.5288 H       1  UNL1        0.2106
     51 H          -7.7577    1.4790    1.1495 H       1  UNL1        0.0642
     52 H          -8.2498    0.3178    3.3899 H       1  UNL1        0.0836
     53 H          -5.8651    2.2371   -0.2008 H       1  UNL1        0.0297
     54 H          -5.0335    1.8170   -1.7230 H       1  UNL1        0.0297
     55 H          -3.5558    1.9377    0.3509 H       1  UNL1        0.0281
     56 H          -4.2580    0.3894    0.8747 H       1  UNL1        0.0281
     57 H          -1.3067   -0.7835   -2.1727 H       1  UNL1        0.0445
     58 H          -1.1448   -2.3235   -1.1474 H       1  UNL1        0.0445
@<TRIPOS>BOND
     1     1     2    2
     2     2     3    1
     3     3     4    1
     4     4     5   am
     5     5     6    2
     6     5     7    1
     7     7     8   ar
     8     8     9   ar
     9     9    10   ar
    10    10    11   ar
    11    11    12    1
    12    12    13    1
    13    12    14    1
    14    12    15    1
    15    11    16   ar
    16     2    17   am
    17    17    18    1
    18    18    19    1
    19    19    20    1
    20    20    21    1
    21    21    22    1
    22    22    23    1
    23    23    24    1
    24    24    25    1
    25    24    26    1
    26    26    27   ar
    27    27    28   ar
    28    28    29   ar
    29    29    30   ar
    30    24    31    1
    31    31    32    1
    32    20    33    1
    33    16     7   ar
    34    33    18    1
    35    32    21    1
    36    30    26   ar
    37     3    34    1
    38     3    35    1
    39     4    36    1
    40     8    37    1
    41     9    38    1
    42    10    39    1
    43    16    40    1
    44    17    41    1
    45    18    42    1
    46    19    43    1
    47    19    44    1
    48    21    45    1
    49    22    46    1
    50    22    47    1
    51    23    48    1
    52    23    49    1
    53    25    50    1
    54    27    51    1
    55    28    52    1
    56    31    53    1
    57    31    54    1
    58    32    55    1
    59    32    56    1
    60    33    57    1
    61    33    58    1
