
     RDKit          3D

 61 65  0  0  0  0  0  0  0  0999 V2000
    2.9722   -1.0827    3.3303 C   0  0  0  0  0  0  0  0  0  0  0  0
    3.7982   -0.6437    2.1792 C   0  0  0  0  0  0  0  0  0  0  0  0
    5.1863   -0.6121    2.2999 C   0  0  0  0  0  0  0  0  0  0  0  0
    6.0219   -0.2198    1.2860 C   0  0  0  0  0  0  0  0  0  0  0  0
    5.5147    0.1687    0.0772 C   0  0  0  0  0  0  0  0  0  0  0  0
    4.1291    0.1353   -0.0380 C   0  0  0  0  0  0  0  0  0  0  0  0
    3.2578   -0.2607    0.9814 C   0  0  0  0  0  0  0  0  0  0  0  0
    1.8332   -0.2655    0.7779 C   0  0  0  0  0  0  0  0  0  0  0  0
    1.4685   -0.8275   -0.4397 C   0  0  0  0  0  0  0  0  0  0  0  0
    0.1279   -0.9161   -0.8061 C   0  0  0  0  0  0  0  0  0  0  0  0
   -0.8158   -0.4303    0.0753 C   0  0  0  0  0  0  0  0  0  0  0  0
   -0.4925    0.1339    1.2919 C   0  0  0  0  0  0  0  0  0  0  0  0
    0.8461    0.2031    1.6177 C   0  0  0  0  0  0  0  0  0  0  0  0
   -2.1470   -0.4855   -0.2203 N   0  0  0  0  0  0  0  0  0  0  0  0
   -2.5714   -1.0164   -1.3815 C   0  0  0  0  0  0  0  0  0  0  0  0
   -3.9837   -1.0508   -1.6450 N   0  0  0  0  0  0  0  0  0  0  0  0
   -4.8428   -0.4968   -0.6114 C   0  0  0  0  0  0  0  0  0  0  0  0
   -6.2707   -0.6350   -1.0922 C   0  0  0  0  0  0  0  0  0  0  0  0
   -7.2275   -0.1040   -0.1197 N   0  0  0  0  0  0  0  0  0  0  0  0
   -8.5464   -0.3084   -0.7243 C   0  0  0  0  0  0  0  0  0  0  0  0
   -9.6586    0.1456    0.1848 C   0  0  0  0  0  0  0  0  0  0  0  0
   -9.0981    0.9343    1.1856 O   0  0  0  0  0  0  0  0  0  0  0  0
   -8.2878    1.9379    0.6247 C   0  0  0  0  0  0  0  0  0  0  0  0
   -7.0683    1.3547   -0.0466 C   0  0  0  0  0  0  0  0  0  0  0  0
   -1.6595   -1.4936   -2.2493 N   0  0  0  0  0  0  0  0  0  0  0  0
   -0.3305   -1.4558   -1.9900 C   0  0  0  0  0  0  0  0  0  0  0  0
    6.3027    0.5969   -1.0486 C   0  0  0  0  0  0  0  0  0  0  0  0
    5.8150    0.9463   -2.1403 O   0  0  0  0  0  0  0  0  0  0  0  0
    7.7220    0.6480   -0.9803 N   0  0  0  0  0  0  0  0  0  0  0  0
    8.5694    1.0776   -2.1010 C   0  0  0  0  0  0  0  0  0  0  0  0
    9.9200    1.5872   -1.8433 C   0  0  0  0  0  0  0  0  0  0  0  0
    9.7765    0.1848   -2.3238 C   0  0  0  0  0  0  0  0  0  0  0  0
    2.8098   -0.2798    4.0819 H   0  0  0  0  0  0  0  0  0  0  0  0
    2.0202   -1.5792    3.0248 H   0  0  0  0  0  0  0  0  0  0  0  0
    3.5995   -1.8520    3.8674 H   0  0  0  0  0  0  0  0  0  0  0  0
    5.6123   -0.9214    3.2656 H   0  0  0  0  0  0  0  0  0  0  0  0
    7.0884   -0.2150    1.4355 H   0  0  0  0  0  0  0  0  0  0  0  0
    3.6715    0.4390   -0.9922 H   0  0  0  0  0  0  0  0  0  0  0  0
    2.1395   -1.2282   -1.1813 H   0  0  0  0  0  0  0  0  0  0  0  0
   -1.2361    0.5134    1.9796 H   0  0  0  0  0  0  0  0  0  0  0  0
    1.2044    0.6261    2.5455 H   0  0  0  0  0  0  0  0  0  0  0  0
   -4.2982   -1.4689   -2.5561 H   0  0  0  0  0  0  0  0  0  0  0  0
   -4.6191    0.5701   -0.4188 H   0  0  0  0  0  0  0  0  0  0  0  0
   -4.7101   -1.0812    0.3216 H   0  0  0  0  0  0  0  0  0  0  0  0
   -6.4443   -0.1185   -2.0447 H   0  0  0  0  0  0  0  0  0  0  0  0
   -6.4889   -1.7138   -1.2032 H   0  0  0  0  0  0  0  0  0  0  0  0
   -8.6115   -1.4185   -0.9110 H   0  0  0  0  0  0  0  0  0  0  0  0
   -8.5429    0.2369   -1.6805 H   0  0  0  0  0  0  0  0  0  0  0  0
  -10.4401    0.7012   -0.3732 H   0  0  0  0  0  0  0  0  0  0  0  0
  -10.0647   -0.7577    0.7107 H   0  0  0  0  0  0  0  0  0  0  0  0
   -8.0462    2.6369    1.4521 H   0  0  0  0  0  0  0  0  0  0  0  0
   -8.9081    2.5026   -0.1149 H   0  0  0  0  0  0  0  0  0  0  0  0
   -6.9870    1.7044   -1.1092 H   0  0  0  0  0  0  0  0  0  0  0  0
   -6.1270    1.6537    0.4410 H   0  0  0  0  0  0  0  0  0  0  0  0
    0.3976   -1.8364   -2.6823 H   0  0  0  0  0  0  0  0  0  0  0  0
    8.2540    0.3843   -0.1312 H   0  0  0  0  0  0  0  0  0  0  0  0
    7.9627    1.3505   -2.9877 H   0  0  0  0  0  0  0  0  0  0  0  0
   10.2321    1.7279   -0.7824 H   0  0  0  0  0  0  0  0  0  0  0  0
   10.2895    2.3604   -2.5482 H   0  0  0  0  0  0  0  0  0  0  0  0
   10.0075   -0.6134   -1.6007 H   0  0  0  0  0  0  0  0  0  0  0  0
    9.9740   -0.0729   -3.3687 H   0  0  0  0  0  0  0  0  0  0  0  0
  1  2  1  0
  2  3  2  0
  3  4  1  0
  4  5  2  0
  5  6  1  0
  6  7  2  0
  7  8  1  0
  8  9  2  0
  9 10  1  0
 10 11  2  0
 11 12  1  0
 12 13  2  0
 11 14  1  0
 14 15  2  0
 15 16  1  0
 16 17  1  0
 17 18  1  0
 18 19  1  0
 19 20  1  0
 20 21  1  0
 21 22  1  0
 22 23  1  0
 23 24  1  0
 15 25  1  0
 25 26  2  0
  5 27  1  0
 27 28  2  0
 27 29  1  0
 29 30  1  0
 30 31  1  0
 31 32  1  0
  7  2  1  0
 13  8  1  0
 24 19  1  0
 32 30  1  0
 26 10  1  0
  1 33  1  0
  1 34  1  0
  1 35  1  0
  3 36  1  0
  4 37  1  0
  6 38  1  0
  9 39  1  0
 12 40  1  0
 13 41  1  0
 16 42  1  0
 17 43  1  0
 17 44  1  0
 18 45  1  0
 18 46  1  0
 20 47  1  0
 20 48  1  0
 21 49  1  0
 21 50  1  0
 23 51  1  0
 23 52  1  0
 24 53  1  0
 24 54  1  0
 26 55  1  0
 29 56  1  0
 30 57  1  0
 31 58  1  0
 31 59  1  0
 32 60  1  0
 32 61  1  0
M  END
$$$$
