
     RDKit          3D

 51 53  0  0  0  0  0  0  0  0999 V2000
    7.5891   -0.3692   -1.3185 C   0  0  0  0  0  0  0  0  0  0  0  0
    6.3842   -0.7077   -1.9349 O   0  0  0  0  0  0  0  0  0  0  0  0
    5.1466   -0.2126   -1.5439 C   0  0  0  0  0  0  0  0  0  0  0  0
    4.0061   -0.6041   -2.2136 C   0  0  0  0  0  0  0  0  0  0  0  0
    2.7432   -0.1506   -1.8774 C   0  0  0  0  0  0  0  0  0  0  0  0
    2.5873    0.7326   -0.8307 C   0  0  0  0  0  0  0  0  0  0  0  0
    1.0413    1.3641   -0.3240 S   0  0  0  0  0  6  0  0  0  0  0  0
    1.1845    2.7472    0.2503 O   0  0  0  0  0  0  0  0  0  0  0  0
    0.1657    1.4214   -1.5601 O   0  0  0  0  0  0  0  0  0  0  0  0
    0.3931    0.3321    0.8618 N   0  0  0  0  0  0  0  0  0  0  0  0
    0.1417   -1.0003    0.4451 C   0  0  0  0  0  0  0  0  0  0  0  0
   -1.2795   -1.1805   -0.0264 C   0  0  0  0  0  0  0  0  0  0  0  0
   -2.1706   -0.7449    0.9829 N   0  0  0  0  0  0  0  0  0  0  0  0
   -3.5151   -1.1909    0.9050 C   0  0  0  0  0  0  0  0  0  0  0  0
   -4.0957   -0.7144   -0.4013 C   0  0  0  0  0  0  0  0  0  0  0  0
   -4.7273    0.5013   -0.4651 C   0  0  0  0  0  0  0  0  0  0  0  0
   -5.2672    0.9815   -1.6115 C   0  0  0  0  0  0  0  0  0  0  0  0
   -5.1825    0.2262   -2.7594 C   0  0  0  0  0  0  0  0  0  0  0  0
   -4.5483   -1.0014   -2.7085 C   0  0  0  0  0  0  0  0  0  0  0  0
   -4.0043   -1.4778   -1.5390 C   0  0  0  0  0  0  0  0  0  0  0  0
   -1.9720    0.5579    1.4930 C   0  0  0  0  0  0  0  0  0  0  0  0
   -0.5397    0.9232    1.7495 C   0  0  0  0  0  0  0  0  0  0  0  0
   -0.1936    0.6370    3.1614 C   0  0  0  0  0  0  0  0  0  0  0  0
    0.8289   -0.0606    3.4127 O   0  0  0  0  0  0  0  0  0  0  0  0
   -0.9832    1.1283    4.2341 N   0  0  0  0  0  0  0  0  0  0  0  0
   -0.6553    0.8600    5.4990 O   0  0  0  0  0  0  0  0  0  0  0  0
    3.7171    1.1308   -0.1547 C   0  0  0  0  0  0  0  0  0  0  0  0
    4.9804    0.6722   -0.4971 C   0  0  0  0  0  0  0  0  0  0  0  0
    8.4545   -0.4751   -2.0020 H   0  0  0  0  0  0  0  0  0  0  0  0
    7.5341    0.6992   -1.0204 H   0  0  0  0  0  0  0  0  0  0  0  0
    7.8160   -0.9524   -0.4109 H   0  0  0  0  0  0  0  0  0  0  0  0
    4.1495   -1.3096   -3.0469 H   0  0  0  0  0  0  0  0  0  0  0  0
    1.8613   -0.4870   -2.4364 H   0  0  0  0  0  0  0  0  0  0  0  0
    0.7977   -1.2326   -0.4194 H   0  0  0  0  0  0  0  0  0  0  0  0
    0.3457   -1.7422    1.2459 H   0  0  0  0  0  0  0  0  0  0  0  0
   -1.4537   -0.6434   -0.9764 H   0  0  0  0  0  0  0  0  0  0  0  0
   -1.4654   -2.2717   -0.2047 H   0  0  0  0  0  0  0  0  0  0  0  0
   -4.0908   -0.7404    1.7374 H   0  0  0  0  0  0  0  0  0  0  0  0
   -3.6408   -2.2910    1.0058 H   0  0  0  0  0  0  0  0  0  0  0  0
   -4.7831    1.0882    0.4662 H   0  0  0  0  0  0  0  0  0  0  0  0
   -5.7533    1.9566   -1.5825 H   0  0  0  0  0  0  0  0  0  0  0  0
   -5.6146    0.6146   -3.6701 H   0  0  0  0  0  0  0  0  0  0  0  0
   -4.4780   -1.6061   -3.6180 H   0  0  0  0  0  0  0  0  0  0  0  0
   -3.5056   -2.4476   -1.5082 H   0  0  0  0  0  0  0  0  0  0  0  0
   -2.5442    0.6770    2.4362 H   0  0  0  0  0  0  0  0  0  0  0  0
   -2.4160    1.3063    0.7763 H   0  0  0  0  0  0  0  0  0  0  0  0
   -0.4616    2.0428    1.6349 H   0  0  0  0  0  0  0  0  0  0  0  0
   -1.8278    1.7038    4.0466 H   0  0  0  0  0  0  0  0  0  0  0  0
   -0.1877   -0.0141    5.5746 H   0  0  0  0  0  0  0  0  0  0  0  0
    3.6597    1.8316    0.6872 H   0  0  0  0  0  0  0  0  0  0  0  0
    5.8294    1.0084    0.0557 H   0  0  0  0  0  0  0  0  0  0  0  0
  1  2  1  0
  2  3  1  0
  3  4  2  0
  4  5  1  0
  5  6  2  0
  6  7  1  0
  7  8  2  0
  7  9  2  0
  7 10  1  0
 10 11  1  0
 11 12  1  0
 12 13  1  0
 13 14  1  0
 14 15  1  0
 15 16  2  0
 16 17  1  0
 17 18  2  0
 18 19  1  0
 19 20  2  0
 13 21  1  0
 21 22  1  0
 22 23  1  0
 23 24  2  0
 23 25  1  0
 25 26  1  0
  6 27  1  0
 27 28  2  0
 28  3  1  0
 22 10  1  0
 20 15  1  0
  1 29  1  0
  1 30  1  0
  1 31  1  0
  4 32  1  0
  5 33  1  0
 11 34  1  0
 11 35  1  0
 12 36  1  0
 12 37  1  0
 14 38  1  0
 14 39  1  0
 16 40  1  0
 17 41  1  0
 18 42  1  0
 19 43  1  0
 20 44  1  0
 21 45  1  0
 21 46  1  0
 22 47  1  0
 25 48  1  0
 26 49  1  0
 27 50  1  0
 28 51  1  0
M  END
$$$$
