@<TRIPOS>MOLECULE
*****
 51 53 0 0 0
SMALL
GASTEIGER

@<TRIPOS>ATOM
      1 C           7.5891   -0.3692   -1.3185 C.3     1  UNL1        0.0788
      2 O           6.3842   -0.7077   -1.9349 O.3     1  UNL1       -0.4951
      3 C           5.1466   -0.2126   -1.5439 C.ar    1  UNL1        0.1202
      4 C           4.0061   -0.6041   -2.2136 C.ar    1  UNL1       -0.0181
      5 C           2.7432   -0.1506   -1.8774 C.ar    1  UNL1       -0.0319
      6 C           2.5873    0.7326   -0.8307 C.ar    1  UNL1        0.1057
      7 S           1.0413    1.3641   -0.3240 S.O2    1  UNL1        0.0616
      8 O           1.1845    2.7472    0.2503 O.2     1  UNL1       -0.1528
      9 O           0.1657    1.4214   -1.5601 O.2     1  UNL1       -0.1528
     10 N           0.3931    0.3321    0.8618 N.3     1  UNL1       -0.1622
     11 C           0.1417   -1.0003    0.4451 C.3     1  UNL1        0.0341
     12 C          -1.2795   -1.1805   -0.0264 C.3     1  UNL1        0.0137
     13 N          -2.1706   -0.7449    0.9829 N.3     1  UNL1       -0.2949
     14 C          -3.5151   -1.1909    0.9050 C.3     1  UNL1        0.0242
     15 C          -4.0957   -0.7144   -0.4013 C.ar    1  UNL1       -0.0334
     16 C          -4.7273    0.5013   -0.4651 C.ar    1  UNL1       -0.0573
     17 C          -5.2672    0.9815   -1.6115 C.ar    1  UNL1       -0.0615
     18 C          -5.1825    0.2262   -2.7594 C.ar    1  UNL1       -0.0617
     19 C          -4.5483   -1.0014   -2.7085 C.ar    1  UNL1       -0.0615
     20 C          -4.0043   -1.4778   -1.5390 C.ar    1  UNL1       -0.0573
     21 C          -1.9720    0.5579    1.4930 C.3     1  UNL1        0.0251
     22 C          -0.5397    0.9232    1.7495 C.3     1  UNL1        0.1224
     23 C          -0.1936    0.6370    3.1614 C.2     1  UNL1        0.2556
     24 O           0.8289   -0.0606    3.4127 O.2     1  UNL1       -0.2719
     25 N          -0.9832    1.1283    4.2341 N.am    1  UNL1       -0.1961
     26 O          -0.6553    0.8600    5.4990 O.3     1  UNL1       -0.2951
     27 C           3.7171    1.1308   -0.1547 C.ar    1  UNL1       -0.0319
     28 C           4.9804    0.6722   -0.4971 C.ar    1  UNL1       -0.0181
     29 H           8.4545   -0.4751   -2.0020 H       1  UNL1        0.0660
     30 H           7.5341    0.6992   -1.0204 H       1  UNL1        0.0660
     31 H           7.8160   -0.9524   -0.4109 H       1  UNL1        0.0660
     32 H           4.1495   -1.3096   -3.0469 H       1  UNL1        0.0655
     33 H           1.8613   -0.4870   -2.4364 H       1  UNL1        0.0638
     34 H           0.7977   -1.2326   -0.4194 H       1  UNL1        0.0457
     35 H           0.3457   -1.7422    1.2459 H       1  UNL1        0.0457
     36 H          -1.4537   -0.6434   -0.9764 H       1  UNL1        0.0440
     37 H          -1.4654   -2.2717   -0.2047 H       1  UNL1        0.0440
     38 H          -4.0908   -0.7404    1.7374 H       1  UNL1        0.0476
     39 H          -3.6408   -2.2910    1.0058 H       1  UNL1        0.0476
     40 H          -4.7831    1.0882    0.4662 H       1  UNL1        0.0621
     41 H          -5.7533    1.9566   -1.5825 H       1  UNL1        0.0618
     42 H          -5.6146    0.6146   -3.6701 H       1  UNL1        0.0618
     43 H          -4.4780   -1.6061   -3.6180 H       1  UNL1        0.0618
     44 H          -3.5056   -2.4476   -1.5082 H       1  UNL1        0.0621
     45 H          -2.5442    0.6770    2.4362 H       1  UNL1        0.0447
     46 H          -2.4160    1.3063    0.7763 H       1  UNL1        0.0447
     47 H          -0.4616    2.0428    1.6349 H       1  UNL1        0.0589
     48 H          -1.8278    1.7038    4.0466 H       1  UNL1        0.1822
     49 H          -0.1877   -0.0141    5.5746 H       1  UNL1        0.2414
     50 H           3.6597    1.8316    0.6872 H       1  UNL1        0.0638
     51 H           5.8294    1.0084    0.0557 H       1  UNL1        0.0655
@<TRIPOS>BOND
     1     1     2    1
     2     2     3    1
     3     3     4   ar
     4     4     5   ar
     5     5     6   ar
     6     6     7    1
     7     7     8    2
     8     7     9    2
     9     7    10    1
    10    10    11    1
    11    11    12    1
    12    12    13    1
    13    13    14    1
    14    14    15    1
    15    15    16   ar
    16    16    17   ar
    17    17    18   ar
    18    18    19   ar
    19    19    20   ar
    20    13    21    1
    21    21    22    1
    22    22    23    1
    23    23    24    2
    24    23    25   am
    25    25    26    1
    26     6    27   ar
    27    27    28   ar
    28    28     3   ar
    29    22    10    1
    30    20    15   ar
    31     1    29    1
    32     1    30    1
    33     1    31    1
    34     4    32    1
    35     5    33    1
    36    11    34    1
    37    11    35    1
    38    12    36    1
    39    12    37    1
    40    14    38    1
    41    14    39    1
    42    16    40    1
    43    17    41    1
    44    18    42    1
    45    19    43    1
    46    20    44    1
    47    21    45    1
    48    21    46    1
    49    22    47    1
    50    25    48    1
    51    26    49    1
    52    27    50    1
    53    28    51    1
