
     RDKit          3D

 72 75  0  0  0  0  0  0  0  0999 V2000
   -7.2084    2.7854   -0.4776 C   0  0  0  0  0  0  0  0  0  0  0  0
   -6.8866    1.4669   -0.1672 O   0  0  0  0  0  0  0  0  0  0  0  0
   -6.0648    0.8915   -1.1333 C   0  0  2  0  0  0  0  0  0  0  0  0
   -6.7295   -0.3637   -1.6694 C   0  0  0  0  0  0  0  0  0  0  0  0
   -6.5835   -1.4272   -0.8131 O   0  0  0  0  0  0  0  0  0  0  0  0
   -6.4792   -1.0597    0.5166 C   0  0  0  0  0  0  0  0  0  0  0  0
   -5.2002   -0.3031    0.8074 C   0  0  0  0  0  0  0  0  0  0  0  0
   -4.8037    0.4421   -0.4258 C   0  0  2  0  0  0  0  0  0  0  0  0
   -3.8974    1.5429   -0.1712 N   0  0  0  0  0  0  0  0  0  0  0  0
   -2.7371    0.9621    0.5103 C   0  0  2  0  0  0  0  0  0  0  0  0
   -1.7548    2.0744    0.8003 C   0  0  0  0  0  0  0  0  0  0  0  0
   -0.4299    1.3127    0.9610 C   0  0  0  0  0  0  0  0  0  0  0  0
   -0.5965   -0.0327    0.3688 C   0  0  1  0  0  0  0  0  0  0  0  0
    0.4803   -0.2991   -0.6100 C   0  0  0  0  0  0  0  0  0  0  0  0
    0.1153   -0.6770   -1.7974 O   0  0  0  0  0  0  0  0  0  0  0  0
    1.8693   -0.1904   -0.4092 N   0  0  0  0  0  0  0  0  0  0  0  0
    2.5732    0.2183    0.7544 C   0  0  0  0  0  0  0  0  0  0  0  0
    3.7993    1.0317    0.2869 C   0  0  0  0  0  0  0  0  0  0  0  0
    4.7052    0.0686   -0.2788 N   0  0  0  0  0  0  0  0  0  0  0  0
    6.0870    0.1818   -0.0898 C   0  0  0  0  0  0  0  0  0  0  0  0
    6.7138    1.2242    0.5464 C   0  0  0  0  0  0  0  0  0  0  0  0
    8.0738    1.2747    0.7030 C   0  0  0  0  0  0  0  0  0  0  0  0
    8.8374    0.2939    0.2322 N   0  0  0  0  0  0  0  0  0  0  0  0
    8.3033   -0.7629   -0.4033 C   0  0  0  0  0  0  0  0  0  0  0  0
    9.1665   -1.8702   -0.9347 C   0  0  0  0  0  0  0  0  0  0  0  0
    8.6742   -2.2954   -2.1456 F   0  0  0  0  0  0  0  0  0  0  0  0
   10.4648   -1.4821   -1.0749 F   0  0  0  0  0  0  0  0  0  0  0  0
    9.0475   -2.9093   -0.0022 F   0  0  0  0  0  0  0  0  0  0  0  0
    6.9353   -0.8267   -0.5679 C   0  0  0  0  0  0  0  0  0  0  0  0
    4.1084   -1.0009   -1.0474 C   0  0  0  0  0  0  0  0  0  0  0  0
    2.7260   -0.5621   -1.5618 C   0  0  0  0  0  0  0  0  0  0  0  0
   -0.8137   -1.1703    1.3123 C   0  0  0  0  0  0  0  0  0  0  0  0
   -0.9645   -2.4744    0.5447 C   0  0  0  0  0  0  0  0  0  0  0  0
    0.2635   -1.3868    2.3277 C   0  0  0  0  0  0  0  0  0  0  0  0
   -1.9420    0.0835   -0.3987 C   0  0  0  0  0  0  0  0  0  0  0  0
   -6.3323    3.4386   -0.5607 H   0  0  0  0  0  0  0  0  0  0  0  0
   -7.9036    2.8515   -1.3395 H   0  0  0  0  0  0  0  0  0  0  0  0
   -7.7916    3.1678    0.4080 H   0  0  0  0  0  0  0  0  0  0  0  0
   -5.8388    1.6111   -1.9521 H   0  0  0  0  0  0  0  0  0  0  0  0
   -7.7765   -0.1817   -1.9805 H   0  0  0  0  0  0  0  0  0  0  0  0
   -6.1721   -0.6195   -2.6170 H   0  0  0  0  0  0  0  0  0  0  0  0
   -7.3788   -0.5499    0.9072 H   0  0  0  0  0  0  0  0  0  0  0  0
   -6.4056   -2.0179    1.1043 H   0  0  0  0  0  0  0  0  0  0  0  0
   -5.3932    0.4463    1.6215 H   0  0  0  0  0  0  0  0  0  0  0  0
   -4.3860   -0.9789    1.1389 H   0  0  0  0  0  0  0  0  0  0  0  0
   -4.2979   -0.2790   -1.1089 H   0  0  0  0  0  0  0  0  0  0  0  0
   -3.6010    1.9249   -1.0770 H   0  0  0  0  0  0  0  0  0  0  0  0
   -3.0213    0.5029    1.4674 H   0  0  0  0  0  0  0  0  0  0  0  0
   -1.7409    2.7540   -0.0591 H   0  0  0  0  0  0  0  0  0  0  0  0
   -1.9487    2.6105    1.7273 H   0  0  0  0  0  0  0  0  0  0  0  0
    0.2934    1.9496    0.3686 H   0  0  0  0  0  0  0  0  0  0  0  0
   -0.1798    1.2843    2.0358 H   0  0  0  0  0  0  0  0  0  0  0  0
    2.0706    0.8617    1.4641 H   0  0  0  0  0  0  0  0  0  0  0  0
    3.0388   -0.6850    1.2556 H   0  0  0  0  0  0  0  0  0  0  0  0
    3.4297    1.6854   -0.5339 H   0  0  0  0  0  0  0  0  0  0  0  0
    4.1706    1.5988    1.1371 H   0  0  0  0  0  0  0  0  0  0  0  0
    6.1046    2.0469    0.9411 H   0  0  0  0  0  0  0  0  0  0  0  0
    8.5149    2.1065    1.2052 H   0  0  0  0  0  0  0  0  0  0  0  0
    6.4737   -1.6503   -1.0673 H   0  0  0  0  0  0  0  0  0  0  0  0
    4.6942   -1.2157   -1.9605 H   0  0  0  0  0  0  0  0  0  0  0  0
    3.9086   -1.9015   -0.4299 H   0  0  0  0  0  0  0  0  0  0  0  0
    2.8003    0.2574   -2.2829 H   0  0  0  0  0  0  0  0  0  0  0  0
    2.3080   -1.4467   -2.0834 H   0  0  0  0  0  0  0  0  0  0  0  0
   -1.7635   -1.0418    1.8912 H   0  0  0  0  0  0  0  0  0  0  0  0
   -0.6293   -3.3144    1.1869 H   0  0  0  0  0  0  0  0  0  0  0  0
   -2.0464   -2.6976    0.3275 H   0  0  0  0  0  0  0  0  0  0  0  0
   -0.3432   -2.4983   -0.3703 H   0  0  0  0  0  0  0  0  0  0  0  0
    1.0994   -1.9619    1.8458 H   0  0  0  0  0  0  0  0  0  0  0  0
    0.5819   -0.4300    2.7436 H   0  0  0  0  0  0  0  0  0  0  0  0
   -0.1419   -2.0704    3.1210 H   0  0  0  0  0  0  0  0  0  0  0  0
   -2.4343   -0.8796   -0.5063 H   0  0  0  0  0  0  0  0  0  0  0  0
   -1.8143    0.5613   -1.3664 H   0  0  0  0  0  0  0  0  0  0  0  0
  1  2  1  0
  2  3  1  0
  3  4  1  0
  4  5  1  0
  5  6  1  0
  6  7  1  0
  7  8  1  0
  8  9  1  0
  9 10  1  0
 10 11  1  0
 11 12  1  0
 12 13  1  0
 13 14  1  0
 14 15  2  0
 14 16  1  0
 16 17  1  0
 17 18  1  0
 18 19  1  0
 19 20  1  0
 20 21  2  0
 21 22  1  0
 22 23  2  0
 23 24  1  0
 24 25  1  0
 25 26  1  0
 25 27  1  0
 25 28  1  0
 24 29  2  0
 19 30  1  0
 30 31  1  0
 13 32  1  1
 32 33  1  0
 32 34  1  0
 13 35  1  0
  8  3  1  0
 35 10  1  0
 31 16  1  0
 29 20  1  0
  1 36  1  0
  1 37  1  0
  1 38  1  0
  3 39  1  6
  4 40  1  0
  4 41  1  0
  6 42  1  0
  6 43  1  0
  7 44  1  0
  7 45  1  0
  8 46  1  6
  9 47  1  0
 10 48  1  1
 11 49  1  0
 11 50  1  0
 12 51  1  0
 12 52  1  0
 17 53  1  0
 17 54  1  0
 18 55  1  0
 18 56  1  0
 21 57  1  0
 22 58  1  0
 29 59  1  0
 30 60  1  0
 30 61  1  0
 31 62  1  0
 31 63  1  0
 32 64  1  0
 33 65  1  0
 33 66  1  0
 33 67  1  0
 34 68  1  0
 34 69  1  0
 34 70  1  0
 35 71  1  0
 35 72  1  0
M  END
$$$$
