@<TRIPOS>MOLECULE
*****
 72 75 0 0 0
SMALL
GASTEIGER

@<TRIPOS>ATOM
      1 C          -7.2084    2.7854   -0.4776 C.3     1  UNL1        0.0370
      2 O          -6.8866    1.4669   -0.1672 O.3     1  UNL1       -0.3760
      3 C          -6.0648    0.8915   -1.1333 C.3     1  UNL1        0.0969
      4 C          -6.7295   -0.3637   -1.6694 C.3     1  UNL1        0.0753
      5 O          -6.5835   -1.4272   -0.8131 O.3     1  UNL1       -0.3771
      6 C          -6.4792   -1.0597    0.5166 C.3     1  UNL1        0.0493
      7 C          -5.2002   -0.3031    0.8074 C.3     1  UNL1       -0.0115
      8 C          -4.8037    0.4421   -0.4258 C.3     1  UNL1        0.0383
      9 N          -3.8974    1.5429   -0.1712 N.3     1  UNL1       -0.3079
     10 C          -2.7371    0.9621    0.5103 C.3     1  UNL1        0.0089
     11 C          -1.7548    2.0744    0.8003 C.3     1  UNL1       -0.0366
     12 C          -0.4299    1.3127    0.9610 C.3     1  UNL1       -0.0374
     13 C          -0.5965   -0.0327    0.3688 C.3     1  UNL1        0.0509
     14 C           0.4803   -0.2991   -0.6100 C.2     1  UNL1        0.2221
     15 O           0.1153   -0.6770   -1.7974 O.2     1  UNL1       -0.2750
     16 N           1.8693   -0.1904   -0.4092 N.am    1  UNL1       -0.2980
     17 C           2.5732    0.2183    0.7544 C.3     1  UNL1        0.0304
     18 C           3.7993    1.0317    0.2869 C.3     1  UNL1        0.0280
     19 N           4.7052    0.0686   -0.2788 N.pl3   1  UNL1       -0.3268
     20 C           6.0870    0.1818   -0.0898 C.ar    1  UNL1        0.0332
     21 C           6.7138    1.2242    0.5464 C.ar    1  UNL1       -0.0225
     22 C           8.0738    1.2747    0.7030 C.ar    1  UNL1        0.0299
     23 N           8.8374    0.2939    0.2322 N.ar    1  UNL1       -0.2509
     24 C           8.3033   -0.7629   -0.4033 C.ar    1  UNL1        0.1453
     25 C           9.1665   -1.8702   -0.9347 C.3     1  UNL1        0.4343
     26 F           8.6742   -2.2954   -2.1456 F       1  UNL1       -0.1644
     27 F          10.4648   -1.4821   -1.0749 F       1  UNL1       -0.1644
     28 F           9.0475   -2.9093   -0.0022 F       1  UNL1       -0.1644
     29 C           6.9353   -0.8267   -0.5679 C.ar    1  UNL1       -0.0106
     30 C           4.1084   -1.0009   -1.0474 C.3     1  UNL1        0.0280
     31 C           2.7260   -0.5621   -1.5618 C.3     1  UNL1        0.0304
     32 C          -0.8137   -1.1703    1.3123 C.3     1  UNL1       -0.0327
     33 C          -0.9645   -2.4744    0.5447 C.3     1  UNL1       -0.0617
     34 C           0.2635   -1.3868    2.3277 C.3     1  UNL1       -0.0617
     35 C          -1.9420    0.0835   -0.3987 C.3     1  UNL1       -0.0233
     36 H          -6.3323    3.4386   -0.5607 H       1  UNL1        0.0524
     37 H          -7.9036    2.8515   -1.3395 H       1  UNL1        0.0524
     38 H          -7.7916    3.1678    0.4080 H       1  UNL1        0.0524
     39 H          -5.8388    1.6111   -1.9521 H       1  UNL1        0.0634
     40 H          -7.7765   -0.1817   -1.9805 H       1  UNL1        0.0586
     41 H          -6.1721   -0.6195   -2.6170 H       1  UNL1        0.0586
     42 H          -7.3788   -0.5499    0.9072 H       1  UNL1        0.0560
     43 H          -6.4056   -2.0179    1.1043 H       1  UNL1        0.0560
     44 H          -5.3932    0.4463    1.6215 H       1  UNL1        0.0303
     45 H          -4.3860   -0.9789    1.1389 H       1  UNL1        0.0303
     46 H          -4.2979   -0.2790   -1.1089 H       1  UNL1        0.0487
     47 H          -3.6010    1.9249   -1.0770 H       1  UNL1        0.1225
     48 H          -3.0213    0.5029    1.4674 H       1  UNL1        0.0461
     49 H          -1.7409    2.7540   -0.0591 H       1  UNL1        0.0281
     50 H          -1.9487    2.6105    1.7273 H       1  UNL1        0.0281
     51 H           0.2934    1.9496    0.3686 H       1  UNL1        0.0276
     52 H          -0.1798    1.2843    2.0358 H       1  UNL1        0.0276
     53 H           2.0706    0.8617    1.4641 H       1  UNL1        0.0480
     54 H           3.0388   -0.6850    1.2556 H       1  UNL1        0.0480
     55 H           3.4297    1.6854   -0.5339 H       1  UNL1        0.0479
     56 H           4.1706    1.5988    1.1371 H       1  UNL1        0.0479
     57 H           6.1046    2.0469    0.9411 H       1  UNL1        0.0651
     58 H           8.5149    2.1065    1.2052 H       1  UNL1        0.0830
     59 H           6.4737   -1.6503   -1.0673 H       1  UNL1        0.0657
     60 H           4.6942   -1.2157   -1.9605 H       1  UNL1        0.0479
     61 H           3.9086   -1.9015   -0.4299 H       1  UNL1        0.0479
     62 H           2.8003    0.2574   -2.2829 H       1  UNL1        0.0480
     63 H           2.3080   -1.4467   -2.0834 H       1  UNL1        0.0480
     64 H          -1.7635   -1.0418    1.8912 H       1  UNL1        0.0305
     65 H          -0.6293   -3.3144    1.1869 H       1  UNL1        0.0233
     66 H          -2.0464   -2.6976    0.3275 H       1  UNL1        0.0233
     67 H          -0.3432   -2.4983   -0.3703 H       1  UNL1        0.0233
     68 H           1.0994   -1.9619    1.8458 H       1  UNL1        0.0233
     69 H           0.5819   -0.4300    2.7436 H       1  UNL1        0.0233
     70 H          -0.1419   -2.0704    3.1210 H       1  UNL1        0.0233
     71 H          -2.4343   -0.8796   -0.5063 H       1  UNL1        0.0290
     72 H          -1.8143    0.5613   -1.3664 H       1  UNL1        0.0290
@<TRIPOS>BOND
     1     1     2    1
     2     2     3    1
     3     3     4    1
     4     4     5    1
     5     5     6    1
     6     6     7    1
     7     7     8    1
     8     8     9    1
     9     9    10    1
    10    10    11    1
    11    11    12    1
    12    12    13    1
    13    13    14    1
    14    14    15    2
    15    14    16   am
    16    16    17    1
    17    17    18    1
    18    18    19    1
    19    19    20    1
    20    20    21   ar
    21    21    22   ar
    22    22    23   ar
    23    23    24   ar
    24    24    25    1
    25    25    26    1
    26    25    27    1
    27    25    28    1
    28    24    29   ar
    29    19    30    1
    30    30    31    1
    31    13    32    1
    32    32    33    1
    33    32    34    1
    34    13    35    1
    35     8     3    1
    36    35    10    1
    37    31    16    1
    38    29    20   ar
    39     1    36    1
    40     1    37    1
    41     1    38    1
    42     3    39    1
    43     4    40    1
    44     4    41    1
    45     6    42    1
    46     6    43    1
    47     7    44    1
    48     7    45    1
    49     8    46    1
    50     9    47    1
    51    10    48    1
    52    11    49    1
    53    11    50    1
    54    12    51    1
    55    12    52    1
    56    17    53    1
    57    17    54    1
    58    18    55    1
    59    18    56    1
    60    21    57    1
    61    22    58    1
    62    29    59    1
    63    30    60    1
    64    30    61    1
    65    31    62    1
    66    31    63    1
    67    32    64    1
    68    33    65    1
    69    33    66    1
    70    33    67    1
    71    34    68    1
    72    34    69    1
    73    34    70    1
    74    35    71    1
    75    35    72    1
