@<TRIPOS>MOLECULE
*****
 36 38 0 0 0
SMALL
GASTEIGER

@<TRIPOS>ATOM
      1 C          -5.5519   -1.6190   -0.3148 C.3     1  UNL1        0.0790
      2 O          -4.7098   -0.5432   -0.0630 O.3     1  UNL1       -0.4914
      3 C          -3.3475   -0.5021   -0.1184 C.ar    1  UNL1        0.1635
      4 C          -2.6600   -1.6488   -0.4638 C.ar    1  UNL1        0.0098
      5 C          -1.2925   -1.6491   -0.5309 C.ar    1  UNL1        0.0797
      6 N          -0.5945   -2.7649   -0.8681 N.ar    1  UNL1       -0.2352
      7 C           0.7258   -2.7762   -0.9356 C.ar    1  UNL1        0.1187
      8 N           1.3981   -1.6710   -0.6681 N.ar    1  UNL1       -0.2200
      9 C           0.7689   -0.5084   -0.3217 C.ar    1  UNL1        0.1340
     10 N           1.5269    0.6487   -0.0450 N.pl3   1  UNL1       -0.2988
     11 C           2.9396    0.5746   -0.0195 C.ar    1  UNL1        0.0339
     12 C           3.6847    1.6907   -0.4316 C.ar    1  UNL1       -0.0377
     13 C           5.0614    1.7027   -0.4155 C.ar    1  UNL1       -0.0232
     14 C           5.7633    0.5825    0.0199 C.ar    1  UNL1        0.1417
     15 F           7.1258    0.5818    0.0406 F       1  UNL1       -0.2040
     16 C           5.0527   -0.5118    0.4246 C.ar    1  UNL1        0.0778
     17 CL          5.8949   -1.9301    0.9751 Cl      1  UNL1       -0.0805
     18 C           3.6814   -0.4964    0.3986 C.ar    1  UNL1       -0.0194
     19 C          -0.6128   -0.4734   -0.2447 C.ar    1  UNL1        0.0441
     20 C          -1.3117    0.6612    0.0981 C.ar    1  UNL1       -0.0038
     21 C          -2.7152    0.6810    0.1723 C.ar    1  UNL1        0.1623
     22 O          -3.3089    1.8412    0.5171 O.3     1  UNL1       -0.4914
     23 C          -2.7820    3.0663    0.8243 C.3     1  UNL1        0.0790
     24 H          -5.9021   -2.1467    0.6050 H       1  UNL1        0.0660
     25 H          -5.1582   -2.3907   -0.9855 H       1  UNL1        0.0660
     26 H          -6.4782   -1.2244   -0.8139 H       1  UNL1        0.0660
     27 H          -3.1523   -2.5908   -0.6954 H       1  UNL1        0.0677
     28 H           1.3111   -3.6640   -1.2052 H       1  UNL1        0.1048
     29 H           1.1306    1.5954    0.1498 H       1  UNL1        0.1536
     30 H           3.1818    2.5849   -0.7780 H       1  UNL1        0.0637
     31 H           5.6595    2.5458   -0.7266 H       1  UNL1        0.0647
     32 H           3.1407   -1.3823    0.7446 H       1  UNL1        0.0652
     33 H          -0.7794    1.5578    0.3171 H       1  UNL1        0.0663
     34 H          -3.4696    3.9112    0.8369 H       1  UNL1        0.0660
     35 H          -1.8905    3.2575    0.1548 H       1  UNL1        0.0660
     36 H          -2.3303    3.0100    1.8517 H       1  UNL1        0.0660
@<TRIPOS>BOND
     1     1     2    1
     2     2     3    1
     3     3     4   ar
     4     4     5   ar
     5     5     6   ar
     6     6     7   ar
     7     7     8   ar
     8     8     9   ar
     9     9    10    1
    10    10    11    1
    11    11    12   ar
    12    12    13   ar
    13    13    14   ar
    14    14    15    1
    15    14    16   ar
    16    16    17    1
    17    16    18   ar
    18     9    19   ar
    19    19    20   ar
    20    20    21   ar
    21    21    22    1
    22    22    23    1
    23    21     3   ar
    24    19     5   ar
    25    18    11   ar
    26     1    24    1
    27     1    25    1
    28     1    26    1
    29     4    27    1
    30     7    28    1
    31    10    29    1
    32    12    30    1
    33    13    31    1
    34    18    32    1
    35    20    33    1
    36    23    34    1
    37    23    35    1
    38    23    36    1
