
     RDKit          3D

 36 38  0  0  0  0  0  0  0  0999 V2000
   -5.5519   -1.6190   -0.3148 C   0  0  0  0  0  0  0  0  0  0  0  0
   -4.7098   -0.5432   -0.0630 O   0  0  0  0  0  0  0  0  0  0  0  0
   -3.3475   -0.5021   -0.1184 C   0  0  0  0  0  0  0  0  0  0  0  0
   -2.6600   -1.6488   -0.4638 C   0  0  0  0  0  0  0  0  0  0  0  0
   -1.2925   -1.6491   -0.5309 C   0  0  0  0  0  0  0  0  0  0  0  0
   -0.5945   -2.7649   -0.8681 N   0  0  0  0  0  0  0  0  0  0  0  0
    0.7258   -2.7762   -0.9356 C   0  0  0  0  0  0  0  0  0  0  0  0
    1.3981   -1.6710   -0.6681 N   0  0  0  0  0  0  0  0  0  0  0  0
    0.7689   -0.5084   -0.3217 C   0  0  0  0  0  0  0  0  0  0  0  0
    1.5269    0.6487   -0.0450 N   0  0  0  0  0  0  0  0  0  0  0  0
    2.9396    0.5746   -0.0195 C   0  0  0  0  0  0  0  0  0  0  0  0
    3.6847    1.6907   -0.4316 C   0  0  0  0  0  0  0  0  0  0  0  0
    5.0614    1.7027   -0.4155 C   0  0  0  0  0  0  0  0  0  0  0  0
    5.7633    0.5825    0.0199 C   0  0  0  0  0  0  0  0  0  0  0  0
    7.1258    0.5818    0.0406 F   0  0  0  0  0  0  0  0  0  0  0  0
    5.0527   -0.5118    0.4246 C   0  0  0  0  0  0  0  0  0  0  0  0
    5.8949   -1.9301    0.9751 Cl  0  0  0  0  0  0  0  0  0  0  0  0
    3.6814   -0.4964    0.3986 C   0  0  0  0  0  0  0  0  0  0  0  0
   -0.6128   -0.4734   -0.2447 C   0  0  0  0  0  0  0  0  0  0  0  0
   -1.3117    0.6612    0.0981 C   0  0  0  0  0  0  0  0  0  0  0  0
   -2.7152    0.6810    0.1723 C   0  0  0  0  0  0  0  0  0  0  0  0
   -3.3089    1.8412    0.5171 O   0  0  0  0  0  0  0  0  0  0  0  0
   -2.7820    3.0663    0.8243 C   0  0  0  0  0  0  0  0  0  0  0  0
   -5.9021   -2.1467    0.6050 H   0  0  0  0  0  0  0  0  0  0  0  0
   -5.1582   -2.3907   -0.9855 H   0  0  0  0  0  0  0  0  0  0  0  0
   -6.4782   -1.2244   -0.8139 H   0  0  0  0  0  0  0  0  0  0  0  0
   -3.1523   -2.5908   -0.6954 H   0  0  0  0  0  0  0  0  0  0  0  0
    1.3111   -3.6640   -1.2052 H   0  0  0  0  0  0  0  0  0  0  0  0
    1.1306    1.5954    0.1498 H   0  0  0  0  0  0  0  0  0  0  0  0
    3.1818    2.5849   -0.7780 H   0  0  0  0  0  0  0  0  0  0  0  0
    5.6595    2.5458   -0.7266 H   0  0  0  0  0  0  0  0  0  0  0  0
    3.1407   -1.3823    0.7446 H   0  0  0  0  0  0  0  0  0  0  0  0
   -0.7794    1.5578    0.3171 H   0  0  0  0  0  0  0  0  0  0  0  0
   -3.4696    3.9112    0.8369 H   0  0  0  0  0  0  0  0  0  0  0  0
   -1.8905    3.2575    0.1548 H   0  0  0  0  0  0  0  0  0  0  0  0
   -2.3303    3.0100    1.8517 H   0  0  0  0  0  0  0  0  0  0  0  0
  1  2  1  0
  2  3  1  0
  3  4  2  0
  4  5  1  0
  5  6  2  0
  6  7  1  0
  7  8  2  0
  8  9  1  0
  9 10  1  0
 10 11  1  0
 11 12  2  0
 12 13  1  0
 13 14  2  0
 14 15  1  0
 14 16  1  0
 16 17  1  0
 16 18  2  0
  9 19  2  0
 19 20  1  0
 20 21  2  0
 21 22  1  0
 22 23  1  0
 21  3  1  0
 19  5  1  0
 18 11  1  0
  1 24  1  0
  1 25  1  0
  1 26  1  0
  4 27  1  0
  7 28  1  0
 10 29  1  0
 12 30  1  0
 13 31  1  0
 18 32  1  0
 20 33  1  0
 23 34  1  0
 23 35  1  0
 23 36  1  0
M  END
$$$$
