@<TRIPOS>MOLECULE
*****
 63 66 0 0 0
SMALL
GASTEIGER

@<TRIPOS>ATOM
      1 C           1.1575    3.1440    2.1920 C.3     1  UNL1       -0.0421
      2 C           1.2358    2.5758    0.7742 C.3     1  UNL1        0.0515
      3 C           2.3765    1.6713    0.6157 C.ar    1  UNL1       -0.0271
      4 C           3.3369    1.5619    1.5911 C.ar    1  UNL1       -0.0562
      5 C           4.4161    0.7101    1.4486 C.ar    1  UNL1       -0.0536
      6 C           4.5705   -0.0684    0.3120 C.ar    1  UNL1       -0.0151
      7 C           5.7255   -0.9696    0.1764 C.ar    1  UNL1        0.0175
      8 C           6.1020   -1.7635    1.2340 C.ar    1  UNL1       -0.0486
      9 C           7.1974   -2.6288    1.1294 C.ar    1  UNL1       -0.0257
     10 C           7.9087   -2.6924   -0.0363 C.ar    1  UNL1        0.1262
     11 F           8.9564   -3.5279   -0.1188 F       1  UNL1       -0.2054
     12 C           7.5451   -1.9022   -1.1096 C.ar    1  UNL1        0.0094
     13 C           6.4539   -1.0486   -0.9870 C.ar    1  UNL1        0.1338
     14 F           6.0871   -0.2758   -2.0161 F       1  UNL1       -0.2048
     15 C           3.6147    0.0355   -0.6673 C.ar    1  UNL1       -0.0536
     16 C           2.5477    0.8901   -0.5049 C.ar    1  UNL1       -0.0562
     17 N          -0.0226    1.9696    0.3965 N.am    1  UNL1       -0.2605
     18 C          -0.4672    0.8059    1.1059 C.3     1  UNL1        0.0224
     19 C          -1.9325    0.5126    1.0254 C.3     1  UNL1        0.0075
     20 C          -2.6567    0.9611   -0.1846 C.3     1  UNL1        0.1426
     21 C          -4.0981    1.2400    0.1614 C.3     1  UNL1        0.0058
     22 C          -4.9047    0.1438    0.7170 C.3     1  UNL1        0.0224
     23 N          -5.1050   -1.0176   -0.0753 N.3     1  UNL1       -0.1800
     24 S          -6.0912   -2.1932    0.7495 S.O2    1  UNL1        0.0921
     25 N          -7.6517   -1.5811    1.0926 N.3     1  UNL1       -0.1934
     26 O          -6.2561   -3.3542   -0.2045 O.2     1  UNL1       -0.1415
     27 O          -5.4252   -2.6670    2.0008 O.2     1  UNL1       -0.1415
     28 C          -2.5622    0.1558   -1.3871 C.ar    1  UNL1       -0.0039
     29 C          -3.2462    0.5823   -2.5088 C.ar    1  UNL1       -0.0521
     30 C          -3.2034   -0.1018   -3.7116 C.ar    1  UNL1       -0.0261
     31 C          -2.4627   -1.2381   -3.8045 C.ar    1  UNL1        0.1234
     32 F          -2.4215   -1.9058   -4.9812 F       1  UNL1       -0.2055
     33 C          -1.7711   -1.6801   -2.6924 C.ar    1  UNL1       -0.0261
     34 C          -1.8130   -1.0030   -1.4996 C.ar    1  UNL1       -0.0521
     35 O          -2.1836    2.2756   -0.5865 O.3     1  UNL1       -0.4388
     36 C          -0.8275    2.4829   -0.6470 C.2     1  UNL1        0.4042
     37 O          -0.2701    3.1175   -1.6019 O.2     1  UNL1       -0.2262
     38 H           0.1798    3.6956    2.2248 H       1  UNL1        0.0251
     39 H           1.1783    2.3636    2.9550 H       1  UNL1        0.0251
     40 H           1.9908    3.8696    2.2772 H       1  UNL1        0.0251
     41 H           1.4327    3.4746    0.1180 H       1  UNL1        0.0549
     42 H           3.2956    2.1379    2.5203 H       1  UNL1        0.0621
     43 H           5.1916    0.6066    2.2105 H       1  UNL1        0.0624
     44 H           5.5498   -1.7191    2.1499 H       1  UNL1        0.0625
     45 H           7.4955   -3.2530    1.9575 H       1  UNL1        0.0646
     46 H           8.1221   -1.9649   -2.0305 H       1  UNL1        0.0675
     47 H           3.7029   -0.5530   -1.5605 H       1  UNL1        0.0624
     48 H           1.7729    0.9857   -1.2794 H       1  UNL1        0.0621
     49 H           0.1111   -0.1047    0.8117 H       1  UNL1        0.0467
     50 H          -0.2261    0.9968    2.2025 H       1  UNL1        0.0467
     51 H          -2.0566   -0.5611    1.2651 H       1  UNL1        0.0322
     52 H          -2.4085    1.0303    1.9149 H       1  UNL1        0.0322
     53 H          -4.1178    2.0899    0.9126 H       1  UNL1        0.0320
     54 H          -4.6410    1.6249   -0.7532 H       1  UNL1        0.0320
     55 H          -4.4396   -0.2010    1.6829 H       1  UNL1        0.0443
     56 H          -5.9100    0.5814    0.9778 H       1  UNL1        0.0443
     57 H          -4.2541   -1.5284   -0.3467 H       1  UNL1        0.1491
     58 H          -7.9812   -1.8438    2.0551 H       1  UNL1        0.1453
     59 H          -7.7724   -0.5758    0.8844 H       1  UNL1        0.1453
     60 H          -3.8622    1.4885   -2.5415 H       1  UNL1        0.0622
     61 H          -3.7447    0.2382   -4.5927 H       1  UNL1        0.0646
     62 H          -1.1795   -2.5968   -2.7852 H       1  UNL1        0.0646
     63 H          -1.2890   -1.3328   -0.6277 H       1  UNL1        0.0622
@<TRIPOS>BOND
     1     1     2    1
     2     2     3    1
     3     3     4   ar
     4     4     5   ar
     5     5     6   ar
     6     6     7    1
     7     7     8   ar
     8     8     9   ar
     9     9    10   ar
    10    10    11    1
    11    10    12   ar
    12    12    13   ar
    13    13    14    1
    14     6    15   ar
    15    15    16   ar
    16     2    17    1
    17    17    18    1
    18    18    19    1
    19    19    20    1
    20    20    21    1
    21    21    22    1
    22    22    23    1
    23    23    24    1
    24    24    25    1
    25    24    26    2
    26    24    27    2
    27    20    28    1
    28    28    29   ar
    29    29    30   ar
    30    30    31   ar
    31    31    32    1
    32    31    33   ar
    33    33    34   ar
    34    20    35    1
    35    35    36    1
    36    36    37    2
    37    16     3   ar
    38    36    17   am
    39    13     7   ar
    40    34    28   ar
    41     1    38    1
    42     1    39    1
    43     1    40    1
    44     2    41    1
    45     4    42    1
    46     5    43    1
    47     8    44    1
    48     9    45    1
    49    12    46    1
    50    15    47    1
    51    16    48    1
    52    18    49    1
    53    18    50    1
    54    19    51    1
    55    19    52    1
    56    21    53    1
    57    21    54    1
    58    22    55    1
    59    22    56    1
    60    23    57    1
    61    25    58    1
    62    25    59    1
    63    29    60    1
    64    30    61    1
    65    33    62    1
    66    34    63    1
