@<TRIPOS>MOLECULE
*****
 121 122 0 0 0
SMALL
GASTEIGER

@<TRIPOS>ATOM
      1 C          -7.2804   -5.6002   -3.0346 C.3     1  UNK1        0.0817
      2 O          -6.6485   -5.1799   -1.8433 O.3     1  UNK1       -0.4666
      3 C          -6.5745   -3.8451   -1.4499 C.2     1  UNK1        0.3297
      4 O          -7.1093   -3.0165   -2.2178 O.2     1  UNK1       -0.2487
      5 C          -5.9143   -3.3889   -0.2124 C.3     1  UNK1        0.1437
      6 C          -6.5182   -4.0822    0.9787 C.3     1  UNK1        0.0730
      7 O          -6.3683   -5.4483    0.7571 O.3     1  UNK1       -0.3926
      8 N          -5.9812   -1.9542   -0.1533 N.am    1  UNK1       -0.2991
      9 C          -4.8051   -1.1312   -0.1913 C.2     1  UNK1        0.2340
     10 O          -3.7215   -1.7962   -0.2796 O.2     1  UNK1       -0.2738
     11 C          -4.7876    0.3305   -0.1410 C.3     1  UNK1        0.0994
     12 C          -5.4782    0.9467   -1.3475 C.3     1  UNK1       -0.0258
     13 C          -5.5506    2.4280   -1.3404 C.3     1  UNK1       -0.0461
     14 C          -6.3790    2.9892   -0.1998 C.3     1  UNK1       -0.0124
     15 C          -7.8086    2.4886   -0.2888 C.3     1  UNK1       -0.0309
     16 N          -8.6330    2.9852    0.7665 N.4     1  UNK1        0.2369
     17 C          -8.6138    2.1413    1.9560 C.3     1  UNK1       -0.0418
     18 C          -8.4017    4.3466    1.1464 C.3     1  UNK1       -0.0418
     19 C         -10.0448    2.9414    0.3127 C.3     1  UNK1       -0.0418
     20 N          -3.3561    0.7031   -0.2400 N.am    1  UNK1       -0.3025
     21 C          -2.7266    1.6139    0.6477 C.2     1  UNK1        0.2340
     22 O          -3.4649    2.0898    1.5295 O.2     1  UNK1       -0.2738
     23 C          -1.2948    1.9491    0.5080 C.3     1  UNK1        0.0996
     24 C          -0.9296    3.3625    0.2998 C.3     1  UNK1       -0.0236
     25 C          -1.2900    4.3516    1.3364 C.3     1  UNK1       -0.0446
     26 C          -0.6664    3.9740    2.6758 C.3     1  UNK1       -0.0626
     27 C          -2.6788    4.8467    1.4075 C.3     1  UNK1       -0.0626
     28 N          -0.7410    1.0787   -0.5090 N.am    1  UNK1       -0.3025
     29 C           0.3862    0.2703   -0.3294 C.2     1  UNK1        0.2337
     30 O           0.9842    0.3350    0.7788 O.2     1  UNK1       -0.2738
     31 C           0.9366   -0.6584   -1.3160 C.3     1  UNK1        0.0966
     32 C          -0.0642   -1.8608   -1.4541 C.3     1  UNK1       -0.0381
     33 N           2.1842   -1.2430   -0.9526 N.am    1  UNK1       -0.3027
     34 C           2.7637   -2.4290   -1.4225 C.2     1  UNK1        0.2343
     35 O           2.1013   -3.1059   -2.2543 O.2     1  UNK1       -0.2738
     36 C           4.1013   -2.9250   -0.9885 C.3     1  UNK1        0.1036
     37 C           3.8694   -3.7648    0.2779 C.3     1  UNK1       -0.0006
     38 C           5.0957   -4.3077    0.8523 C.ar    1  UNK1       -0.0451
     39 C           5.8046   -3.5917    1.7951 C.ar    1  UNK1       -0.0585
     40 C           6.9558   -4.0823    2.3641 C.ar    1  UNK1       -0.0615
     41 C           7.4109   -5.3165    1.9844 C.ar    1  UNK1       -0.0617
     42 C           6.7306   -6.0733    1.0383 C.ar    1  UNK1       -0.0615
     43 C           5.5741   -5.5414    0.4887 C.ar    1  UNK1       -0.0585
     44 N           5.0037   -1.8628   -0.5677 N.am    1  UNK1       -0.2997
     45 C           6.2939   -1.7522   -1.1871 C.2     0  UNK0        0.2447
     46 O           6.4988   -2.6582   -2.0761 O.2     0  UNK0       -0.2702
     47 C           7.3069   -0.7772   -0.9134 C.ar    0  UNK0        0.0367
     48 C           7.2426    0.2896   -0.0655 C.ar    0  UNK0       -0.0494
     49 C           8.3267    1.1652    0.0844 C.ar    0  UNK0       -0.0574
     50 C           9.5006    1.0013   -0.6042 C.ar    0  UNK0       -0.0419
     51 C          10.6215    1.9334   -0.4286 C.3     0  UNK0       -0.0127
     52 C          10.4805    3.0362   -1.4777 C.3     0  UNK0       -0.0560
     53 C          10.5787    2.6028    0.9047 C.3     0  UNK0       -0.0560
     54 C          11.9565    1.2516   -0.7003 C.3     0  UNK0       -0.0560
     55 C           9.5792   -0.0825   -1.4717 C.ar    0  UNK0       -0.0574
     56 C           8.5166   -0.9233   -1.6062 C.ar    0  UNK0       -0.0494
     57 H          -6.6727   -5.4216   -3.9463 H       1  UNK1        0.0661
     58 H          -8.1932   -4.9676   -3.1697 H       1  UNK1        0.0661
     59 H          -7.6376   -6.6425   -2.9697 H       1  UNK1        0.0661
     60 H          -4.8423   -3.7114   -0.2702 H       1  UNK1        0.0638
     61 H          -7.5946   -3.8983    1.1023 H       1  UNK1        0.0581
     62 H          -5.9424   -3.8748    1.9078 H       1  UNK1        0.0581
     63 H          -6.4440   -5.9806    1.5879 H       1  UNK1        0.2095
     64 H          -6.8827   -1.4877   -0.0820 H       1  UNK1        0.1496
     65 H          -5.1711    0.7492    0.7631 H       1  UNK1        0.0594
     66 H          -4.8629    0.6530   -2.2313 H       1  UNK1        0.0288
     67 H          -6.4797    0.5332   -1.5290 H       1  UNK1        0.0288
     68 H          -4.5556    2.9054   -1.2768 H       1  UNK1        0.0268
     69 H          -6.0232    2.7616   -2.2804 H       1  UNK1        0.0268
     70 H          -6.4303    4.0858   -0.3575 H       1  UNK1        0.0317
     71 H          -5.9446    2.8305    0.7980 H       1  UNK1        0.0317
     72 H          -7.8631    1.3937   -0.3091 H       1  UNK1        0.0815
     73 H          -8.2666    2.8387   -1.2439 H       1  UNK1        0.0815
     74 H          -7.6475    2.2450    2.4509 H       1  UNK1        0.0778
     75 H          -9.4080    2.4569    2.6629 H       1  UNK1        0.0778
     76 H          -8.7352    1.1024    1.6028 H       1  UNK1        0.0778
     77 H          -9.2684    4.7729    1.7038 H       1  UNK1        0.0778
     78 H          -7.4990    4.4184    1.7781 H       1  UNK1        0.0778
     79 H          -8.3373    4.9609    0.2109 H       1  UNK1        0.0778
     80 H         -10.6990    3.3189    1.1033 H       1  UNK1        0.0778
     81 H         -10.2481    1.8778    0.0757 H       1  UNK1        0.0778
     82 H         -10.0767    3.5173   -0.6397 H       1  UNK1        0.0778
     83 H          -2.8613    0.2118   -1.0332 H       1  UNK1        0.1495
     84 H          -0.7393    1.6359    1.4610 H       1  UNK1        0.0594
     85 H           0.2107    3.3851    0.2610 H       1  UNK1        0.0290
     86 H          -1.3289    3.7678   -0.6759 H       1  UNK1        0.0290
     87 H          -0.6657    5.2862    1.0502 H       1  UNK1        0.0296
     88 H          -0.8155    4.7747    3.4099 H       1  UNK1        0.0232
     89 H           0.4299    3.9027    2.5039 H       1  UNK1        0.0232
     90 H          -0.9795    2.9736    3.0128 H       1  UNK1        0.0232
     91 H          -2.7108    5.9916    1.4704 H       1  UNK1        0.0232
     92 H          -3.3397    4.6202    0.5727 H       1  UNK1        0.0232
     93 H          -3.0988    4.5743    2.4214 H       1  UNK1        0.0232
     94 H          -1.2057    1.0799   -1.4382 H       1  UNK1        0.1495
     95 H           0.9653   -0.2571   -2.3195 H       1  UNK1        0.0592
     96 H           0.0213   -2.1844   -2.5016 H       1  UNK1        0.0252
     97 H          -1.0945   -1.4548   -1.3241 H       1  UNK1        0.0252
     98 H           0.2037   -2.6741   -0.7937 H       1  UNK1        0.0252
     99 H           2.7609   -0.7134   -0.2307 H       1  UNK1        0.1495
    100 H           4.5369   -3.5955   -1.7525 H       1  UNK1        0.0598
    101 H           3.1089   -4.5755    0.0816 H       1  UNK1        0.0336
    102 H           3.3813   -3.1152    1.0615 H       1  UNK1        0.0336
    103 H           5.4533   -2.6230    2.1008 H       1  UNK1        0.0620
    104 H           7.5127   -3.4983    3.1209 H       1  UNK1        0.0618
    105 H           8.3232   -5.7055    2.4348 H       1  UNK1        0.0618
    106 H           7.0962   -7.0632    0.7377 H       1  UNK1        0.0618
    107 H           5.0805   -6.1714   -0.2470 H       1  UNK1        0.0620
    108 H           4.7563   -1.1983    0.1444 H       1  UNK1        0.1498
    109 H           6.3142    0.4175    0.4808 H       0  UNK0        0.0625
    110 H           8.1671    1.9725    0.7755 H       0  UNK0        0.0621
    111 H           9.8088    3.8348   -1.1676 H       0  UNK0        0.0238
    112 H          11.4982    3.4749   -1.5795 H       0  UNK0        0.0238
    113 H          10.2445    2.5746   -2.4643 H       0  UNK0        0.0238
    114 H          10.4775    1.9373    1.7644 H       0  UNK0        0.0238
    115 H           9.7036    3.3009    0.9046 H       0  UNK0        0.0238
    116 H          11.4819    3.2613    1.0199 H       0  UNK0        0.0238
    117 H          12.7884    1.9365   -0.4283 H       0  UNK0        0.0238
    118 H          12.0175    0.3746   -0.0376 H       0  UNK0        0.0238
    119 H          12.0965    1.0279   -1.7620 H       0  UNK0        0.0238
    120 H          10.5158   -0.2103   -2.0184 H       0  UNK0        0.0621
    121 H           8.6364   -1.7671   -2.3041 H       0  UNK0        0.0625
@<TRIPOS>UNITY_ATOM_ATTR
16 1
charge 1
@<TRIPOS>BOND
     1     1     2    1
     2     2     3    1
     3     3     4    2
     4     3     5    1
     5     5     6    1
     6     6     7    1
     7     5     8    1
     8     8     9   am
     9     9    10    2
    10     9    11    1
    11    11    12    1
    12    12    13    1
    13    13    14    1
    14    14    15    1
    15    15    16    1
    16    16    17    1
    17    16    18    1
    18    16    19    1
    19    11    20    1
    20    20    21   am
    21    21    22    2
    22    21    23    1
    23    23    24    1
    24    24    25    1
    25    25    26    1
    26    25    27    1
    27    23    28    1
    28    28    29   am
    29    29    30    2
    30    29    31    1
    31    31    32    1
    32    31    33    1
    33    33    34   am
    34    34    35    2
    35    34    36    1
    36    36    37    1
    37    37    38    1
    38    38    39   ar
    39    39    40   ar
    40    40    41   ar
    41    41    42   ar
    42    42    43   ar
    43    36    44    1
    44    44    45   am
    45    45    46    2
    46    45    47    1
    47    47    48   ar
    48    48    49   ar
    49    49    50   ar
    50    50    51    1
    51    51    52    1
    52    51    53    1
    53    51    54    1
    54    50    55   ar
    55    55    56   ar
    56    43    38   ar
    57    56    47   ar
    58     1    57    1
    59     1    58    1
    60     1    59    1
    61     5    60    1
    62     6    61    1
    63     6    62    1
    64     7    63    1
    65     8    64    1
    66    11    65    1
    67    12    66    1
    68    12    67    1
    69    13    68    1
    70    13    69    1
    71    14    70    1
    72    14    71    1
    73    15    72    1
    74    15    73    1
    75    17    74    1
    76    17    75    1
    77    17    76    1
    78    18    77    1
    79    18    78    1
    80    18    79    1
    81    19    80    1
    82    19    81    1
    83    19    82    1
    84    20    83    1
    85    23    84    1
    86    24    85    1
    87    24    86    1
    88    25    87    1
    89    26    88    1
    90    26    89    1
    91    26    90    1
    92    27    91    1
    93    27    92    1
    94    27    93    1
    95    28    94    1
    96    31    95    1
    97    32    96    1
    98    32    97    1
    99    32    98    1
   100    33    99    1
   101    36   100    1
   102    37   101    1
   103    37   102    1
   104    39   103    1
   105    40   104    1
   106    41   105    1
   107    42   106    1
   108    43   107    1
   109    44   108    1
   110    48   109    1
   111    49   110    1
   112    52   111    1
   113    52   112    1
   114    52   113    1
   115    53   114    1
   116    53   115    1
   117    53   116    1
   118    54   117    1
   119    54   118    1
   120    54   119    1
   121    55   120    1
   122    56   121    1
