
     RDKit          3D

121122  0  0  0  0  0  0  0  0999 V2000
   -7.2804   -5.6002   -3.0346 C   0  0  0  0  0  0  0  0  0  0  0  0
   -6.6485   -5.1799   -1.8433 O   0  0  0  0  0  0  0  0  0  0  0  0
   -6.5745   -3.8451   -1.4499 C   0  0  0  0  0  0  0  0  0  0  0  0
   -7.1093   -3.0165   -2.2178 O   0  0  0  0  0  0  0  0  0  0  0  0
   -5.9143   -3.3889   -0.2124 C   0  0  2  0  0  0  0  0  0  0  0  0
   -6.5182   -4.0822    0.9787 C   0  0  0  0  0  0  0  0  0  0  0  0
   -6.3683   -5.4483    0.7571 O   0  0  0  0  0  0  0  0  0  0  0  0
   -5.9812   -1.9542   -0.1533 N   0  0  0  0  0  0  0  0  0  0  0  0
   -4.8051   -1.1312   -0.1913 C   0  0  0  0  0  0  0  0  0  0  0  0
   -3.7215   -1.7962   -0.2796 O   0  0  0  0  0  0  0  0  0  0  0  0
   -4.7876    0.3305   -0.1410 C   0  0  2  0  0  0  0  0  0  0  0  0
   -5.4782    0.9467   -1.3475 C   0  0  0  0  0  0  0  0  0  0  0  0
   -5.5506    2.4280   -1.3404 C   0  0  0  0  0  0  0  0  0  0  0  0
   -6.3790    2.9892   -0.1998 C   0  0  0  0  0  0  0  0  0  0  0  0
   -7.8086    2.4886   -0.2888 C   0  0  0  0  0  0  0  0  0  0  0  0
   -8.6330    2.9852    0.7665 N   0  0  0  0  0  4  0  0  0  0  0  0
   -8.6138    2.1413    1.9560 C   0  0  0  0  0  0  0  0  0  0  0  0
   -8.4017    4.3466    1.1464 C   0  0  0  0  0  0  0  0  0  0  0  0
  -10.0448    2.9414    0.3127 C   0  0  0  0  0  0  0  0  0  0  0  0
   -3.3561    0.7031   -0.2400 N   0  0  0  0  0  0  0  0  0  0  0  0
   -2.7266    1.6139    0.6477 C   0  0  0  0  0  0  0  0  0  0  0  0
   -3.4649    2.0898    1.5295 O   0  0  0  0  0  0  0  0  0  0  0  0
   -1.2948    1.9491    0.5080 C   0  0  2  0  0  0  0  0  0  0  0  0
   -0.9296    3.3625    0.2998 C   0  0  0  0  0  0  0  0  0  0  0  0
   -1.2900    4.3516    1.3364 C   0  0  0  0  0  0  0  0  0  0  0  0
   -0.6664    3.9740    2.6758 C   0  0  0  0  0  0  0  0  0  0  0  0
   -2.6788    4.8467    1.4075 C   0  0  0  0  0  0  0  0  0  0  0  0
   -0.7410    1.0787   -0.5090 N   0  0  0  0  0  0  0  0  0  0  0  0
    0.3862    0.2703   -0.3294 C   0  0  0  0  0  0  0  0  0  0  0  0
    0.9842    0.3350    0.7788 O   0  0  0  0  0  0  0  0  0  0  0  0
    0.9366   -0.6584   -1.3160 C   0  0  2  0  0  0  0  0  0  0  0  0
   -0.0642   -1.8608   -1.4541 C   0  0  0  0  0  0  0  0  0  0  0  0
    2.1842   -1.2430   -0.9526 N   0  0  0  0  0  0  0  0  0  0  0  0
    2.7637   -2.4290   -1.4225 C   0  0  0  0  0  0  0  0  0  0  0  0
    2.1013   -3.1059   -2.2543 O   0  0  0  0  0  0  0  0  0  0  0  0
    4.1013   -2.9250   -0.9885 C   0  0  2  0  0  0  0  0  0  0  0  0
    3.8694   -3.7648    0.2779 C   0  0  0  0  0  0  0  0  0  0  0  0
    5.0957   -4.3077    0.8523 C   0  0  0  0  0  0  0  0  0  0  0  0
    5.8046   -3.5917    1.7951 C   0  0  0  0  0  0  0  0  0  0  0  0
    6.9558   -4.0823    2.3641 C   0  0  0  0  0  0  0  0  0  0  0  0
    7.4109   -5.3165    1.9844 C   0  0  0  0  0  0  0  0  0  0  0  0
    6.7306   -6.0733    1.0383 C   0  0  0  0  0  0  0  0  0  0  0  0
    5.5741   -5.5414    0.4887 C   0  0  0  0  0  0  0  0  0  0  0  0
    5.0037   -1.8628   -0.5677 N   0  0  0  0  0  0  0  0  0  0  0  0
    6.2939   -1.7522   -1.1871 C   0  0  0  0  0  0  0  0  0  0  0  0
    6.4988   -2.6582   -2.0761 O   0  0  0  0  0  0  0  0  0  0  0  0
    7.3069   -0.7772   -0.9134 C   0  0  0  0  0  0  0  0  0  0  0  0
    7.2426    0.2896   -0.0655 C   0  0  0  0  0  0  0  0  0  0  0  0
    8.3267    1.1652    0.0844 C   0  0  0  0  0  0  0  0  0  0  0  0
    9.5006    1.0013   -0.6042 C   0  0  0  0  0  0  0  0  0  0  0  0
   10.6215    1.9334   -0.4286 C   0  0  0  0  0  0  0  0  0  0  0  0
   10.4805    3.0362   -1.4777 C   0  0  0  0  0  0  0  0  0  0  0  0
   10.5787    2.6028    0.9047 C   0  0  0  0  0  0  0  0  0  0  0  0
   11.9565    1.2516   -0.7003 C   0  0  0  0  0  0  0  0  0  0  0  0
    9.5792   -0.0825   -1.4717 C   0  0  0  0  0  0  0  0  0  0  0  0
    8.5166   -0.9233   -1.6062 C   0  0  0  0  0  0  0  0  0  0  0  0
   -6.6727   -5.4216   -3.9463 H   0  0  0  0  0  0  0  0  0  0  0  0
   -8.1932   -4.9676   -3.1697 H   0  0  0  0  0  0  0  0  0  0  0  0
   -7.6376   -6.6425   -2.9697 H   0  0  0  0  0  0  0  0  0  0  0  0
   -4.8423   -3.7114   -0.2702 H   0  0  0  0  0  0  0  0  0  0  0  0
   -7.5946   -3.8983    1.1023 H   0  0  0  0  0  0  0  0  0  0  0  0
   -5.9424   -3.8748    1.9078 H   0  0  0  0  0  0  0  0  0  0  0  0
   -6.4440   -5.9806    1.5879 H   0  0  0  0  0  0  0  0  0  0  0  0
   -6.8827   -1.4877   -0.0820 H   0  0  0  0  0  0  0  0  0  0  0  0
   -5.1711    0.7492    0.7631 H   0  0  0  0  0  0  0  0  0  0  0  0
   -4.8629    0.6530   -2.2313 H   0  0  0  0  0  0  0  0  0  0  0  0
   -6.4797    0.5332   -1.5290 H   0  0  0  0  0  0  0  0  0  0  0  0
   -4.5556    2.9054   -1.2768 H   0  0  0  0  0  0  0  0  0  0  0  0
   -6.0232    2.7616   -2.2804 H   0  0  0  0  0  0  0  0  0  0  0  0
   -6.4303    4.0858   -0.3575 H   0  0  0  0  0  0  0  0  0  0  0  0
   -5.9446    2.8305    0.7980 H   0  0  0  0  0  0  0  0  0  0  0  0
   -7.8631    1.3937   -0.3091 H   0  0  0  0  0  0  0  0  0  0  0  0
   -8.2666    2.8387   -1.2439 H   0  0  0  0  0  0  0  0  0  0  0  0
   -7.6475    2.2450    2.4509 H   0  0  0  0  0  0  0  0  0  0  0  0
   -9.4080    2.4569    2.6629 H   0  0  0  0  0  0  0  0  0  0  0  0
   -8.7352    1.1024    1.6028 H   0  0  0  0  0  0  0  0  0  0  0  0
   -9.2684    4.7729    1.7038 H   0  0  0  0  0  0  0  0  0  0  0  0
   -7.4990    4.4184    1.7781 H   0  0  0  0  0  0  0  0  0  0  0  0
   -8.3373    4.9609    0.2109 H   0  0  0  0  0  0  0  0  0  0  0  0
  -10.6990    3.3189    1.1033 H   0  0  0  0  0  0  0  0  0  0  0  0
  -10.2481    1.8778    0.0757 H   0  0  0  0  0  0  0  0  0  0  0  0
  -10.0767    3.5173   -0.6397 H   0  0  0  0  0  0  0  0  0  0  0  0
   -2.8613    0.2118   -1.0332 H   0  0  0  0  0  0  0  0  0  0  0  0
   -0.7393    1.6359    1.4610 H   0  0  0  0  0  0  0  0  0  0  0  0
    0.2107    3.3851    0.2610 H   0  0  0  0  0  0  0  0  0  0  0  0
   -1.3289    3.7678   -0.6759 H   0  0  0  0  0  0  0  0  0  0  0  0
   -0.6657    5.2862    1.0502 H   0  0  0  0  0  0  0  0  0  0  0  0
   -0.8155    4.7747    3.4099 H   0  0  0  0  0  0  0  0  0  0  0  0
    0.4299    3.9027    2.5039 H   0  0  0  0  0  0  0  0  0  0  0  0
   -0.9795    2.9736    3.0128 H   0  0  0  0  0  0  0  0  0  0  0  0
   -2.7108    5.9916    1.4704 H   0  0  0  0  0  0  0  0  0  0  0  0
   -3.3397    4.6202    0.5727 H   0  0  0  0  0  0  0  0  0  0  0  0
   -3.0988    4.5743    2.4214 H   0  0  0  0  0  0  0  0  0  0  0  0
   -1.2057    1.0799   -1.4382 H   0  0  0  0  0  0  0  0  0  0  0  0
    0.9653   -0.2571   -2.3195 H   0  0  0  0  0  0  0  0  0  0  0  0
    0.0213   -2.1844   -2.5016 H   0  0  0  0  0  0  0  0  0  0  0  0
   -1.0945   -1.4548   -1.3241 H   0  0  0  0  0  0  0  0  0  0  0  0
    0.2037   -2.6741   -0.7937 H   0  0  0  0  0  0  0  0  0  0  0  0
    2.7609   -0.7134   -0.2307 H   0  0  0  0  0  0  0  0  0  0  0  0
    4.5369   -3.5955   -1.7525 H   0  0  0  0  0  0  0  0  0  0  0  0
    3.1089   -4.5755    0.0816 H   0  0  0  0  0  0  0  0  0  0  0  0
    3.3813   -3.1152    1.0615 H   0  0  0  0  0  0  0  0  0  0  0  0
    5.4533   -2.6230    2.1008 H   0  0  0  0  0  0  0  0  0  0  0  0
    7.5127   -3.4983    3.1209 H   0  0  0  0  0  0  0  0  0  0  0  0
    8.3232   -5.7055    2.4348 H   0  0  0  0  0  0  0  0  0  0  0  0
    7.0962   -7.0632    0.7377 H   0  0  0  0  0  0  0  0  0  0  0  0
    5.0805   -6.1714   -0.2470 H   0  0  0  0  0  0  0  0  0  0  0  0
    4.7563   -1.1983    0.1444 H   0  0  0  0  0  0  0  0  0  0  0  0
    6.3142    0.4175    0.4808 H   0  0  0  0  0  0  0  0  0  0  0  0
    8.1671    1.9725    0.7755 H   0  0  0  0  0  0  0  0  0  0  0  0
    9.8088    3.8348   -1.1676 H   0  0  0  0  0  0  0  0  0  0  0  0
   11.4982    3.4749   -1.5795 H   0  0  0  0  0  0  0  0  0  0  0  0
   10.2445    2.5746   -2.4643 H   0  0  0  0  0  0  0  0  0  0  0  0
   10.4775    1.9373    1.7644 H   0  0  0  0  0  0  0  0  0  0  0  0
    9.7036    3.3009    0.9046 H   0  0  0  0  0  0  0  0  0  0  0  0
   11.4819    3.2613    1.0199 H   0  0  0  0  0  0  0  0  0  0  0  0
   12.7884    1.9365   -0.4283 H   0  0  0  0  0  0  0  0  0  0  0  0
   12.0175    0.3746   -0.0376 H   0  0  0  0  0  0  0  0  0  0  0  0
   12.0965    1.0279   -1.7620 H   0  0  0  0  0  0  0  0  0  0  0  0
   10.5158   -0.2103   -2.0184 H   0  0  0  0  0  0  0  0  0  0  0  0
    8.6364   -1.7671   -2.3041 H   0  0  0  0  0  0  0  0  0  0  0  0
  1  2  1  0
  2  3  1  0
  3  4  2  0
  3  5  1  0
  5  6  1  0
  6  7  1  0
  5  8  1  0
  8  9  1  0
  9 10  2  0
  9 11  1  0
 11 12  1  0
 12 13  1  0
 13 14  1  0
 14 15  1  0
 15 16  1  0
 16 17  1  0
 16 18  1  0
 16 19  1  0
 11 20  1  0
 20 21  1  0
 21 22  2  0
 21 23  1  0
 23 24  1  0
 24 25  1  0
 25 26  1  0
 25 27  1  0
 23 28  1  0
 28 29  1  0
 29 30  2  0
 29 31  1  0
 31 32  1  0
 31 33  1  0
 33 34  1  0
 34 35  2  0
 34 36  1  0
 36 37  1  0
 37 38  1  0
 38 39  2  0
 39 40  1  0
 40 41  2  0
 41 42  1  0
 42 43  2  0
 36 44  1  0
 44 45  1  0
 45 46  2  0
 45 47  1  0
 47 48  2  0
 48 49  1  0
 49 50  2  0
 50 51  1  0
 51 52  1  0
 51 53  1  0
 51 54  1  0
 50 55  1  0
 55 56  2  0
 43 38  1  0
 56 47  1  0
  1 57  1  0
  1 58  1  0
  1 59  1  0
  5 60  1  6
  6 61  1  0
  6 62  1  0
  7 63  1  0
  8 64  1  0
 11 65  1  1
 12 66  1  0
 12 67  1  0
 13 68  1  0
 13 69  1  0
 14 70  1  0
 14 71  1  0
 15 72  1  0
 15 73  1  0
 17 74  1  0
 17 75  1  0
 17 76  1  0
 18 77  1  0
 18 78  1  0
 18 79  1  0
 19 80  1  0
 19 81  1  0
 19 82  1  0
 20 83  1  0
 23 84  1  1
 24 85  1  0
 24 86  1  0
 25 87  1  0
 26 88  1  0
 26 89  1  0
 26 90  1  0
 27 91  1  0
 27 92  1  0
 27 93  1  0
 28 94  1  0
 31 95  1  6
 32 96  1  0
 32 97  1  0
 32 98  1  0
 33 99  1  0
 36100  1  6
 37101  1  0
 37102  1  0
 39103  1  0
 40104  1  0
 41105  1  0
 42106  1  0
 43107  1  0
 44108  1  0
 48109  1  0
 49110  1  0
 52111  1  0
 52112  1  0
 52113  1  0
 53114  1  0
 53115  1  0
 53116  1  0
 54117  1  0
 54118  1  0
 54119  1  0
 55120  1  0
 56121  1  0
M  CHG  1  16   1
M  END
$$$$
