
     RDKit          3D

 75 80  0  0  0  0  0  0  0  0999 V2000
    1.2437    8.1862    1.1866 C   0  0  0  0  0  0  0  0  0  0  0  0
    1.1346    6.7761    0.9013 N   0  0  0  0  0  0  0  0  0  0  0  0
   -0.2797    6.4324    0.9013 C   0  0  1  0  0  0  0  0  0  0  0  0
   -1.0139    7.2278   -0.1526 C   0  0  0  0  0  0  0  0  0  0  0  0
   -0.4512    4.9911    0.6527 C   0  0  0  0  0  0  0  0  0  0  0  0
    0.5559    4.2719    0.4857 O   0  0  0  0  0  0  0  0  0  0  0  0
   -1.7430    4.4349    0.6049 N   0  0  0  0  0  0  0  0  0  0  0  0
   -1.9453    3.0472    0.3690 C   0  0  0  0  0  0  0  0  0  0  0  0
   -3.1961    2.4764    0.3066 C   0  0  0  0  0  0  0  0  0  0  0  0
   -3.3355    1.1125    0.0671 C   0  0  0  0  0  0  0  0  0  0  0  0
   -2.2062    0.3531   -0.1036 C   0  0  0  0  0  0  0  0  0  0  0  0
   -2.3023   -1.0492   -0.3564 C   0  0  0  0  0  0  0  0  0  0  0  0
   -2.7682   -2.0205    0.4739 C   0  0  0  0  0  0  0  0  0  0  0  0
   -3.2790   -1.8314    1.8262 C   0  0  0  0  0  0  0  0  0  0  0  0
   -4.6029   -2.1826    2.1361 C   0  0  0  0  0  0  0  0  0  0  0  0
   -5.1449   -2.0315    3.3874 C   0  0  0  0  0  0  0  0  0  0  0  0
   -4.3002   -1.5023    4.3508 C   0  0  0  0  0  0  0  0  0  0  0  0
   -3.0363   -1.1673    4.0534 N   0  0  0  0  0  0  0  0  0  0  0  0
   -2.5145   -1.3179    2.8300 C   0  0  0  0  0  0  0  0  0  0  0  0
   -1.1827   -0.9554    2.5553 O   0  0  0  0  0  0  0  0  0  0  0  0
   -0.4376   -0.4269    3.6382 C   0  0  0  0  0  0  0  0  0  0  0  0
   -2.6648   -3.1794   -0.2021 N   0  0  0  0  0  0  0  0  0  0  0  0
   -2.1425   -2.9340   -1.4368 C   0  0  0  0  0  0  0  0  0  0  0  0
   -1.8208   -3.7048   -2.5345 C   0  0  0  0  0  0  0  0  0  0  0  0
   -1.2940   -3.2083   -3.6968 C   0  0  0  0  0  0  0  0  0  0  0  0
   -0.9526   -4.0471   -4.8724 C   0  0  0  0  0  0  0  0  0  0  0  0
   -1.0726   -1.8411   -3.7676 C   0  0  0  0  0  0  0  0  0  0  0  0
   -1.3957   -1.0795   -2.6706 C   0  0  0  0  0  0  0  0  0  0  0  0
   -1.9113   -1.6027   -1.5451 N   0  0  0  0  0  0  0  0  0  0  0  0
   -0.9823    0.9740   -0.0308 C   0  0  0  0  0  0  0  0  0  0  0  0
    0.2189    0.1689   -0.2114 C   0  0  0  0  0  0  0  0  0  0  0  0
    1.2041   -0.5118   -0.3494 C   0  0  0  0  0  0  0  0  0  0  0  0
    2.3705   -1.3394   -0.4982 C   0  0  0  0  0  0  0  0  0  0  0  0
    3.4211   -0.9640   -1.3074 C   0  0  0  0  0  0  0  0  0  0  0  0
    4.5603   -1.7366   -1.4827 C   0  0  0  0  0  0  0  0  0  0  0  0
    4.6547   -2.9556   -0.8105 C   0  0  0  0  0  0  0  0  0  0  0  0
    5.7697   -3.7527   -0.9637 C   0  0  0  0  0  0  0  0  0  0  0  0
    6.8765   -3.2992   -1.8514 C   0  0  0  0  0  0  0  0  0  0  0  0
    5.8100   -4.9109   -0.3020 N   0  0  0  0  0  0  0  0  0  0  0  0
    4.8187   -5.3479    0.5101 C   0  0  0  0  0  0  0  0  0  0  0  0
    3.6963   -4.5674    0.6771 C   0  0  0  0  0  0  0  0  0  0  0  0
    3.6188   -3.3481    0.0005 C   0  0  0  0  0  0  0  0  0  0  0  0
    2.5004   -2.5662    0.1591 C   0  0  0  0  0  0  0  0  0  0  0  0
   -0.8699    2.2720    0.1972 N   0  0  0  0  0  0  0  0  0  0  0  0
    1.5100    8.7086    0.2388 H   0  0  0  0  0  0  0  0  0  0  0  0
    0.2932    8.6119    1.5623 H   0  0  0  0  0  0  0  0  0  0  0  0
    2.0560    8.3489    1.9336 H   0  0  0  0  0  0  0  0  0  0  0  0
    1.6157    6.1869    1.6225 H   0  0  0  0  0  0  0  0  0  0  0  0
   -0.6580    6.7448    1.9137 H   0  0  0  0  0  0  0  0  0  0  0  0
   -0.3404    8.0547   -0.4774 H   0  0  0  0  0  0  0  0  0  0  0  0
   -1.9854    7.6272    0.2238 H   0  0  0  0  0  0  0  0  0  0  0  0
   -1.2467    6.5756   -1.0207 H   0  0  0  0  0  0  0  0  0  0  0  0
   -2.5661    5.0556    0.7468 H   0  0  0  0  0  0  0  0  0  0  0  0
   -4.0700    3.0907    0.4443 H   0  0  0  0  0  0  0  0  0  0  0  0
   -4.3440    0.7325    0.0302 H   0  0  0  0  0  0  0  0  0  0  0  0
   -5.2246   -2.6001    1.3292 H   0  0  0  0  0  0  0  0  0  0  0  0
   -6.1676   -2.3051    3.6188 H   0  0  0  0  0  0  0  0  0  0  0  0
   -4.6928   -1.3673    5.3519 H   0  0  0  0  0  0  0  0  0  0  0  0
   -0.3947   -1.1337    4.4928 H   0  0  0  0  0  0  0  0  0  0  0  0
   -0.9575    0.4864    4.0541 H   0  0  0  0  0  0  0  0  0  0  0  0
    0.5623   -0.0742    3.3183 H   0  0  0  0  0  0  0  0  0  0  0  0
   -1.9890   -4.7734   -2.4882 H   0  0  0  0  0  0  0  0  0  0  0  0
   -0.1098   -3.6428   -5.4637 H   0  0  0  0  0  0  0  0  0  0  0  0
   -1.8537   -4.0018   -5.5533 H   0  0  0  0  0  0  0  0  0  0  0  0
   -0.8411   -5.1160   -4.6049 H   0  0  0  0  0  0  0  0  0  0  0  0
   -0.6506   -1.3947   -4.6809 H   0  0  0  0  0  0  0  0  0  0  0  0
   -1.2291   -0.0153   -2.7093 H   0  0  0  0  0  0  0  0  0  0  0  0
    3.3841   -0.0106   -1.8521 H   0  0  0  0  0  0  0  0  0  0  0  0
    5.3758   -1.4250   -2.1221 H   0  0  0  0  0  0  0  0  0  0  0  0
    7.1630   -2.2679   -1.6043 H   0  0  0  0  0  0  0  0  0  0  0  0
    7.7466   -3.9785   -1.6484 H   0  0  0  0  0  0  0  0  0  0  0  0
    6.5420   -3.4244   -2.9111 H   0  0  0  0  0  0  0  0  0  0  0  0
    4.8787   -6.2855    1.0294 H   0  0  0  0  0  0  0  0  0  0  0  0
    2.8692   -4.8442    1.3021 H   0  0  0  0  0  0  0  0  0  0  0  0
    1.7160   -2.9061    0.7990 H   0  0  0  0  0  0  0  0  0  0  0  0
  1  2  1  0
  2  3  1  0
  3  4  1  0
  3  5  1  0
  5  6  2  0
  5  7  1  0
  7  8  1  0
  8  9  2  0
  9 10  1  0
 10 11  2  0
 11 12  1  0
 12 13  2  0
 13 14  1  0
 14 15  2  0
 15 16  1  0
 16 17  2  0
 17 18  1  0
 18 19  2  0
 19 20  1  0
 20 21  1  0
 13 22  1  0
 22 23  2  0
 23 24  1  0
 24 25  2  0
 25 26  1  0
 25 27  1  0
 27 28  2  0
 28 29  1  0
 11 30  1  0
 30 31  1  0
 31 32  3  0
 32 33  1  0
 33 34  2  0
 34 35  1  0
 35 36  2  0
 36 37  1  0
 37 38  1  0
 37 39  2  0
 39 40  1  0
 40 41  2  0
 41 42  1  0
 42 43  2  0
 30 44  2  0
 44  8  1  0
 29 12  1  0
 43 33  1  0
 19 14  1  0
 29 23  1  0
 42 36  1  0
  1 45  1  0
  1 46  1  0
  1 47  1  0
  2 48  1  0
  3 49  1  1
  4 50  1  0
  4 51  1  0
  4 52  1  0
  7 53  1  0
  9 54  1  0
 10 55  1  0
 15 56  1  0
 16 57  1  0
 17 58  1  0
 21 59  1  0
 21 60  1  0
 21 61  1  0
 24 62  1  0
 26 63  1  0
 26 64  1  0
 26 65  1  0
 27 66  1  0
 28 67  1  0
 34 68  1  0
 35 69  1  0
 38 70  1  0
 38 71  1  0
 38 72  1  0
 40 73  1  0
 41 74  1  0
 43 75  1  0
M  END
$$$$
