@<TRIPOS>MOLECULE
*****
 75 80 0 0 0
SMALL
GASTEIGER

@<TRIPOS>ATOM
      1 C           1.2437    8.1862    1.1866 C.3     1  UNL1       -0.0151
      2 N           1.1346    6.7761    0.9013 N.3     1  UNL1       -0.3089
      3 C          -0.2797    6.4324    0.9013 C.3     1  UNL1        0.0820
      4 C          -1.0139    7.2278   -0.1526 C.3     1  UNL1       -0.0411
      5 C          -0.4512    4.9911    0.6527 C.2     1  UNL1        0.2350
      6 O           0.5559    4.2719    0.4857 O.2     1  UNL1       -0.2737
      7 N          -1.7430    4.4349    0.6049 N.am    1  UNL1       -0.2691
      8 C          -1.9453    3.0472    0.3690 C.ar    1  UNL1        0.1263
      9 C          -3.1961    2.4764    0.3066 C.ar    1  UNL1       -0.0208
     10 C          -3.3355    1.1125    0.0671 C.ar    1  UNL1       -0.0466
     11 C          -2.2062    0.3531   -0.1036 C.ar    1  UNL1        0.0349
     12 C          -2.3023   -1.0492   -0.3564 C.ar    1  UNL1        0.0838
     13 C          -2.7682   -2.0205    0.4739 C.ar    1  UNL1        0.1028
     14 C          -3.2790   -1.8314    1.8262 C.ar    1  UNL1        0.0639
     15 C          -4.6029   -2.1826    2.1361 C.ar    1  UNL1       -0.0460
     16 C          -5.1449   -2.0315    3.3874 C.ar    1  UNL1       -0.0427
     17 C          -4.3002   -1.5023    4.3508 C.ar    1  UNL1        0.0314
     18 N          -3.0363   -1.1673    4.0534 N.ar    1  UNL1       -0.2208
     19 C          -2.5145   -1.3179    2.8300 C.ar    1  UNL1        0.2239
     20 O          -1.1827   -0.9554    2.5553 O.3     1  UNL1       -0.4792
     21 C          -0.4376   -0.4269    3.6382 C.3     1  UNL1        0.0804
     22 N          -2.6648   -3.1794   -0.2021 N.ar    1  UNL1       -0.2270
     23 C          -2.1425   -2.9340   -1.4368 C.ar    1  UNL1        0.1390
     24 C          -1.8208   -3.7048   -2.5345 C.ar    1  UNL1       -0.0158
     25 C          -1.2940   -3.2083   -3.6968 C.ar    1  UNL1       -0.0456
     26 C          -0.9526   -4.0471   -4.8724 C.3     1  UNL1       -0.0395
     27 C          -1.0726   -1.8411   -3.7676 C.ar    1  UNL1       -0.0421
     28 C          -1.3957   -1.0795   -2.6706 C.ar    1  UNL1        0.0120
     29 N          -1.9113   -1.6027   -1.5451 N.ar    1  UNL1       -0.2986
     30 C          -0.9823    0.9740   -0.0308 C.ar    1  UNL1        0.1250
     31 C           0.2189    0.1689   -0.2114 C.1     1  UNL1       -0.0404
     32 C           1.2041   -0.5118   -0.3494 C.1     1  UNL1       -0.0595
     33 C           2.3705   -1.3394   -0.4982 C.ar    1  UNL1        0.0259
     34 C           3.4211   -0.9640   -1.3074 C.ar    1  UNL1       -0.0457
     35 C           4.5603   -1.7366   -1.4827 C.ar    1  UNL1       -0.0512
     36 C           4.6547   -2.9556   -0.8105 C.ar    1  UNL1        0.0032
     37 C           5.7697   -3.7527   -0.9637 C.ar    1  UNL1        0.0459
     38 C           6.8765   -3.2992   -1.8514 C.3     1  UNL1       -0.0218
     39 N           5.8100   -4.9109   -0.3020 N.ar    1  UNL1       -0.2595
     40 C           4.8187   -5.3479    0.5101 C.ar    1  UNL1        0.0285
     41 C           3.6963   -4.5674    0.6771 C.ar    1  UNL1       -0.0358
     42 C           3.6188   -3.3481    0.0005 C.ar    1  UNL1       -0.0136
     43 C           2.5004   -2.5662    0.1591 C.ar    1  UNL1       -0.0385
     44 N          -0.8699    2.2720    0.1972 N.ar    1  UNL1       -0.2229
     45 H           1.5100    8.7086    0.2388 H       1  UNL1        0.0388
     46 H           0.2932    8.6119    1.5623 H       1  UNL1        0.0388
     47 H           2.0560    8.3489    1.9336 H       1  UNL1        0.0388
     48 H           1.6157    6.1869    1.6225 H       1  UNL1        0.1223
     49 H          -0.6580    6.7448    1.9137 H       1  UNL1        0.0554
     50 H          -0.3404    8.0547   -0.4774 H       1  UNL1        0.0249
     51 H          -1.9854    7.6272    0.2238 H       1  UNL1        0.0249
     52 H          -1.2467    6.5756   -1.0207 H       1  UNL1        0.0249
     53 H          -2.5661    5.0556    0.7468 H       1  UNL1        0.1563
     54 H          -4.0700    3.0907    0.4443 H       1  UNL1        0.0652
     55 H          -4.3440    0.7325    0.0302 H       1  UNL1        0.0626
     56 H          -5.2246   -2.6001    1.3292 H       1  UNL1        0.0626
     57 H          -6.1676   -2.3051    3.6188 H       1  UNL1        0.0633
     58 H          -4.6928   -1.3673    5.3519 H       1  UNL1        0.0831
     59 H          -0.3947   -1.1337    4.4928 H       1  UNL1        0.0660
     60 H          -0.9575    0.4864    4.0541 H       1  UNL1        0.0660
     61 H           0.5623   -0.0742    3.3183 H       1  UNL1        0.0660
     62 H          -1.9890   -4.7734   -2.4882 H       1  UNL1        0.0657
     63 H          -0.1098   -3.6428   -5.4637 H       1  UNL1        0.0278
     64 H          -1.8537   -4.0018   -5.5533 H       1  UNL1        0.0278
     65 H          -0.8411   -5.1160   -4.6049 H       1  UNL1        0.0278
     66 H          -0.6506   -1.3947   -4.6809 H       1  UNL1        0.0635
     67 H          -1.2291   -0.0153   -2.7093 H       1  UNL1        0.0813
     68 H           3.3841   -0.0106   -1.8521 H       1  UNL1        0.0630
     69 H           5.3758   -1.4250   -2.1221 H       1  UNL1        0.0625
     70 H           7.1630   -2.2679   -1.6043 H       1  UNL1        0.0293
     71 H           7.7466   -3.9785   -1.6484 H       1  UNL1        0.0293
     72 H           6.5420   -3.4244   -2.9111 H       1  UNL1        0.0293
     73 H           4.8787   -6.2855    1.0294 H       1  UNL1        0.0830
     74 H           2.8692   -4.8442    1.3021 H       1  UNL1        0.0639
     75 H           1.7160   -2.9061    0.7990 H       1  UNL1        0.0636
@<TRIPOS>BOND
     1     1     2    1
     2     2     3    1
     3     3     4    1
     4     3     5    1
     5     5     6    2
     6     5     7   am
     7     7     8    1
     8     8     9   ar
     9     9    10   ar
    10    10    11   ar
    11    11    12    1
    12    12    13   ar
    13    13    14    1
    14    14    15   ar
    15    15    16   ar
    16    16    17   ar
    17    17    18   ar
    18    18    19   ar
    19    19    20    1
    20    20    21    1
    21    13    22   ar
    22    22    23   ar
    23    23    24   ar
    24    24    25   ar
    25    25    26    1
    26    25    27   ar
    27    27    28   ar
    28    28    29   ar
    29    11    30   ar
    30    30    31    1
    31    31    32    3
    32    32    33    1
    33    33    34   ar
    34    34    35   ar
    35    35    36   ar
    36    36    37   ar
    37    37    38    1
    38    37    39   ar
    39    39    40   ar
    40    40    41   ar
    41    41    42   ar
    42    42    43   ar
    43    30    44   ar
    44    44     8   ar
    45    29    12   ar
    46    43    33   ar
    47    19    14   ar
    48    29    23   ar
    49    42    36   ar
    50     1    45    1
    51     1    46    1
    52     1    47    1
    53     2    48    1
    54     3    49    1
    55     4    50    1
    56     4    51    1
    57     4    52    1
    58     7    53    1
    59     9    54    1
    60    10    55    1
    61    15    56    1
    62    16    57    1
    63    17    58    1
    64    21    59    1
    65    21    60    1
    66    21    61    1
    67    24    62    1
    68    26    63    1
    69    26    64    1
    70    26    65    1
    71    27    66    1
    72    28    67    1
    73    34    68    1
    74    35    69    1
    75    38    70    1
    76    38    71    1
    77    38    72    1
    78    40    73    1
    79    41    74    1
    80    43    75    1
