@<TRIPOS>MOLECULE
*****
 76 80 0 0 0
SMALL
GASTEIGER

@<TRIPOS>ATOM
      1 N          -2.2604    4.5237    1.1442 N.1     1  UNL1       -0.1901
      2 C          -1.3124    3.7059    0.6993 C.1     1  UNL1        0.1110
      3 C          -0.3158    2.8166    0.2298 C.2     1  UNL1        0.1408
      4 C           0.9551    3.3751   -0.2176 C.1     1  UNL1        0.1110
      5 N           1.9596    3.8092   -0.5505 N.1     1  UNL1       -0.1901
      6 C          -0.5885    1.5258    0.1860 C.2     1  UNL1        0.0739
      7 C          -1.9009    0.9098    0.5626 C.2     1  UNL1        0.2537
      8 O          -2.8847    1.6648    0.7197 O.2     1  UNL1       -0.2695
      9 N          -1.7325   -0.4708    0.6610 N.am    1  UNL1       -0.2625
     10 C          -2.7490   -1.4313    1.1224 C.3     1  UNL1        0.0451
     11 C          -4.1238   -0.8736    1.0557 C.ar    1  UNL1       -0.0295
     12 C          -5.0400   -1.1840    0.0275 C.ar    1  UNL1       -0.0536
     13 C          -6.2709   -0.6040   -0.0724 C.ar    1  UNL1       -0.0196
     14 C          -6.6793    0.3698    0.9095 C.ar    1  UNL1        0.1206
     15 O          -7.8900    0.9522    0.8165 O.3     1  UNL1       -0.4897
     16 C          -8.9443    0.8292   -0.0298 C.3     1  UNL1        0.1128
     17 C          -9.7743   -0.4167   -0.0217 C.3     1  UNL1        0.0818
     18 O         -10.4334   -0.6295    1.1574 O.3     1  UNL1       -0.3739
     19 C          -9.7494   -0.7880    2.3023 C.3     1  UNL1        0.0760
     20 C          -8.8873   -1.9986    2.4064 C.3     1  UNL1        0.1134
     21 F          -9.6123   -3.1763    2.2940 F       1  UNL1       -0.2467
     22 C          -5.7941    0.6605    1.8984 C.ar    1  UNL1       -0.0196
     23 C          -4.5492    0.0341    1.9428 C.ar    1  UNL1       -0.0536
     24 C          -0.3498   -0.7956    0.3562 C.ar    1  UNL1        0.0450
     25 C           0.3269   -1.9817    0.4207 C.ar    1  UNL1       -0.0378
     26 C           1.7229   -2.0201    0.2137 C.ar    1  UNL1       -0.0336
     27 C           2.3925   -0.8468   -0.0519 C.ar    1  UNL1        0.1062
     28 S           4.1174   -0.8766   -0.2028 S.O2    1  UNL1        0.0612
     29 O           4.4212   -2.3101   -0.7640 O.2     1  UNL1       -0.1528
     30 O           4.7755   -0.8855    1.1590 O.2     1  UNL1       -0.1528
     31 N           4.8385    0.1707   -1.2568 N.3     1  UNL1       -0.1703
     32 C           4.8241    1.5381   -1.2376 C.3     1  UNL1        0.0210
     33 C           4.8087    1.9804   -2.7235 C.3     1  UNL1       -0.0370
     34 C           4.4787    0.6749   -3.4691 C.3     1  UNL1       -0.0313
     35 C           5.2355   -0.3615   -2.5231 C.3     1  UNL1        0.0659
     36 C           6.7102   -0.0213   -2.7544 C.3     1  UNL1        0.1067
     37 O           7.4252   -0.1474   -1.7479 O.3     1  UNL1       -0.4904
     38 C           8.1572   -0.2951   -0.7097 C.ar    1  UNL1        0.1206
     39 C           8.3720   -1.5064    0.0644 C.ar    1  UNL1       -0.0199
     40 C           9.1966   -1.4486    1.1337 C.ar    1  UNL1       -0.0583
     41 C           9.8611   -0.3722    1.5860 C.ar    1  UNL1       -0.0615
     42 C           9.6738    0.8617    0.8418 C.ar    1  UNL1       -0.0583
     43 C           8.8677    0.7562   -0.1866 C.ar    1  UNL1       -0.0199
     44 C           1.7033    0.3236   -0.1238 C.ar    1  UNL1       -0.0256
     45 C           0.3222    0.4062    0.0761 C.ar    1  UNL1        0.0123
     46 H          -2.6622   -2.2815    0.3646 H       1  UNL1        0.0518
     47 H          -2.4919   -1.8831    2.0880 H       1  UNL1        0.0518
     48 H          -4.6669   -1.9515   -0.6552 H       1  UNL1        0.0622
     49 H          -6.9342   -0.8759   -0.8744 H       1  UNL1        0.0654
     50 H          -8.5532    0.9283   -1.0874 H       1  UNL1        0.0720
     51 H          -9.6171    1.7222    0.0953 H       1  UNL1        0.0720
     52 H          -9.1830   -1.2632   -0.3700 H       1  UNL1        0.0594
     53 H         -10.5543   -0.2792   -0.8360 H       1  UNL1        0.0594
     54 H          -9.1793    0.1535    2.6001 H       1  UNL1        0.0585
     55 H         -10.5072   -0.8486    3.1390 H       1  UNL1        0.0585
     56 H          -8.0406   -2.0389    1.6802 H       1  UNL1        0.0638
     57 H          -8.3760   -2.0719    3.3944 H       1  UNL1        0.0638
     58 H          -5.9972    1.3787    2.6948 H       1  UNL1        0.0654
     59 H          -3.8886    0.3020    2.7883 H       1  UNL1        0.0622
     60 H          -0.2057   -2.8925    0.6252 H       1  UNL1        0.0637
     61 H           2.1892   -2.9770    0.2710 H       1  UNL1        0.0638
     62 H           4.1047    2.0918   -0.6373 H       1  UNL1        0.0444
     63 H           5.8646    1.9001   -0.8688 H       1  UNL1        0.0444
     64 H           5.7101    2.4744   -3.0495 H       1  UNL1        0.0279
     65 H           3.9017    2.6042   -2.8309 H       1  UNL1        0.0279
     66 H           3.4256    0.4210   -3.3718 H       1  UNL1        0.0282
     67 H           4.8806    0.6260   -4.4627 H       1  UNL1        0.0282
     68 H           4.9547   -1.3698   -2.7518 H       1  UNL1        0.0513
     69 H           6.7800    0.8901   -3.4361 H       1  UNL1        0.0713
     70 H           6.9597   -0.8487   -3.6146 H       1  UNL1        0.0713
     71 H           7.8516   -2.3810   -0.2814 H       1  UNL1        0.0654
     72 H           9.3505   -2.3814    1.7283 H       1  UNL1        0.0619
     73 H          10.5200   -0.2917    2.4172 H       1  UNL1        0.0618
     74 H          10.1966    1.7205    1.1927 H       1  UNL1        0.0619
     75 H           8.7055    1.7251   -0.7932 H       1  UNL1        0.0654
     76 H           2.1583    1.2514   -0.3415 H       1  UNL1        0.0644
@<TRIPOS>BOND
     1     1     2    3
     2     2     3    1
     3     3     4    1
     4     4     5    3
     5     3     6    2
     6     6     7    1
     7     7     8    2
     8     7     9   am
     9     9    10    1
    10    10    11    1
    11    11    12   ar
    12    12    13   ar
    13    13    14   ar
    14    14    15    1
    15    15    16    1
    16    16    17    1
    17    17    18    1
    18    18    19    1
    19    19    20    1
    20    20    21    1
    21    14    22   ar
    22    22    23   ar
    23     9    24    1
    24    24    25   ar
    25    25    26   ar
    26    26    27   ar
    27    27    28    1
    28    28    29    2
    29    28    30    2
    30    28    31    1
    31    31    32    1
    32    32    33    1
    33    33    34    1
    34    34    35    1
    35    35    36    1
    36    36    37    1
    37    37    38    1
    38    38    39   ar
    39    39    40   ar
    40    40    41   ar
    41    41    42   ar
    42    42    43   ar
    43    27    44   ar
    44    44    45   ar
    45    45     6    1
    46    23    11   ar
    47    45    24   ar
    48    35    31    1
    49    43    38   ar
    50    10    46    1
    51    10    47    1
    52    12    48    1
    53    13    49    1
    54    16    50    1
    55    16    51    1
    56    17    52    1
    57    17    53    1
    58    19    54    1
    59    19    55    1
    60    20    56    1
    61    20    57    1
    62    22    58    1
    63    23    59    1
    64    25    60    1
    65    26    61    1
    66    32    62    1
    67    32    63    1
    68    33    64    1
    69    33    65    1
    70    34    66    1
    71    34    67    1
    72    35    68    1
    73    36    69    1
    74    36    70    1
    75    39    71    1
    76    40    72    1
    77    41    73    1
    78    42    74    1
    79    43    75    1
    80    44    76    1
