@<TRIPOS>MOLECULE
*****
 34 35 0 0 0
SMALL
GASTEIGER

@<TRIPOS>ATOM
      1 N          -6.0801    1.1506    1.3580 N.3     1  UNL1       -0.2035
      2 S          -5.4985    1.1069   -0.2622 S.O2    1  UNL1        0.0559
      3 O          -6.4017    0.3313   -1.1750 O.2     1  UNL1       -0.1533
      4 O          -5.3939    2.5203   -0.7804 O.2     1  UNL1       -0.1533
      5 C          -3.8789    0.4342   -0.2931 C.ar    1  UNL1        0.1050
      6 C          -3.7892   -0.9353   -0.4917 C.ar    1  UNL1       -0.0346
      7 C          -2.5097   -1.4973   -0.5183 C.ar    1  UNL1       -0.0478
      8 C          -1.3767   -0.7339   -0.3548 C.ar    1  UNL1        0.0368
      9 C          -1.4805    0.6264   -0.1581 C.ar    1  UNL1       -0.0478
     10 C          -2.7460    1.2008   -0.1289 C.ar    1  UNL1       -0.0346
     11 C          -0.0922   -1.3751   -0.4021 C.2     1  UNL1        0.2443
     12 O           0.0178   -2.5994   -0.6537 O.2     1  UNL1       -0.2702
     13 N           1.1394   -0.7027   -0.1744 N.am    1  UNL1       -0.3071
     14 C           2.3725   -1.4316   -0.2468 C.3     1  UNL1        0.0400
     15 C           3.5566   -0.6029    0.0366 C.ar    1  UNL1        0.0079
     16 C           3.9912    0.2680   -0.9456 C.ar    1  UNL1        0.1659
     17 F           3.3726    0.3997   -2.1661 F       1  UNL1       -0.2020
     18 C           5.0870    1.0881   -0.7893 C.ar    1  UNL1        0.1936
     19 F           5.5234    1.9507   -1.7479 F       1  UNL1       -0.1994
     20 C           5.7704    1.0186    0.4194 C.ar    1  UNL1        0.1613
     21 F           6.8491    1.8101    0.6084 F       1  UNL1       -0.2024
     22 C           5.3865    0.1673    1.4431 C.ar    1  UNL1       -0.0231
     23 C           4.2896   -0.6185    1.2209 C.ar    1  UNL1       -0.0515
     24 H          -6.8183    1.8950    1.4335 H       1  UNL1        0.1442
     25 H          -6.4352    0.2092    1.6535 H       1  UNL1        0.1442
     26 H          -4.6258   -1.6015   -0.6269 H       1  UNL1        0.0637
     27 H          -2.4134   -2.5683   -0.6723 H       1  UNL1        0.0626
     28 H          -0.6378    1.2790   -0.0239 H       1  UNL1        0.0626
     29 H          -2.8930    2.2751    0.0258 H       1  UNL1        0.0637
     30 H           1.1485    0.3187    0.0446 H       1  UNL1        0.1493
     31 H           2.2983   -2.2882    0.4533 H       1  UNL1        0.0513
     32 H           2.5174   -1.8365   -1.2689 H       1  UNL1        0.0513
     33 H           5.8755    0.0782    2.3816 H       1  UNL1        0.0647
     34 H           3.8751   -1.3371    1.9388 H       1  UNL1        0.0623
@<TRIPOS>BOND
     1     1     2    1
     2     2     3    2
     3     2     4    2
     4     2     5    1
     5     5     6   ar
     6     6     7   ar
     7     7     8   ar
     8     8     9   ar
     9     9    10   ar
    10     8    11    1
    11    11    12    2
    12    11    13   am
    13    13    14    1
    14    14    15    1
    15    15    16   ar
    16    16    17    1
    17    16    18   ar
    18    18    19    1
    19    18    20   ar
    20    20    21    1
    21    20    22   ar
    22    22    23   ar
    23    10     5   ar
    24    23    15   ar
    25     1    24    1
    26     1    25    1
    27     6    26    1
    28     7    27    1
    29     9    28    1
    30    10    29    1
    31    13    30    1
    32    14    31    1
    33    14    32    1
    34    22    33    1
    35    23    34    1
