@<TRIPOS>MOLECULE
*****
 52 55 0 0 0
SMALL
GASTEIGER

@<TRIPOS>ATOM
      1 C          -5.5195   -0.3232   -0.4328 C.3     1  UNL1       -0.0288
      2 C          -4.7194    0.0567    0.7983 C.3     1  UNL1        0.1831
      3 C          -5.6757    0.2605    1.9300 C.3     1  UNL1       -0.0288
      4 C          -3.6232   -0.8778    1.0967 C.2     1  UNL1        0.3067
      5 N          -3.7428   -1.7421    2.2188 N.pl3   1  UNL1       -0.2488
      6 N          -2.5984   -0.9160    0.3768 N.2     1  UNL1       -0.0727
      7 C          -2.2506   -0.1860   -0.7591 C.3     1  UNL1        0.1959
      8 C          -2.5896   -1.0589   -1.9949 C.3     1  UNL1       -0.0112
      9 C          -0.7606    0.0163   -0.8532 C.ar    1  UNL1        0.0420
     10 C           0.1407   -0.4041    0.0610 C.ar    1  UNL1       -0.0301
     11 C           1.5081   -0.1414   -0.0754 C.ar    1  UNL1        0.0330
     12 N           2.4339   -0.5825    0.9024 N.pl3   1  UNL1       -0.2977
     13 C           3.6637    0.0341    1.1950 C.ar    1  UNL1        0.1491
     14 N           3.6649    1.1222    1.9951 N.ar    1  UNL1       -0.2365
     15 C           4.7633    1.7715    2.3583 C.ar    1  UNL1        0.0487
     16 C           5.9994    1.3547    1.9232 C.ar    1  UNL1        0.0684
     17 CL          7.4723    2.1957    2.3944 Cl      1  UNL1       -0.0813
     18 C           6.0630    0.2495    1.1043 C.ar    1  UNL1        0.0249
     19 C           7.3028   -0.1650    0.6737 C.ar    1  UNL1       -0.0312
     20 C           7.4071   -1.2613   -0.1417 C.ar    1  UNL1        0.0597
     21 CL          8.9734   -1.7787   -0.6849 Cl      1  UNL1       -0.0820
     22 C           6.2127   -1.8994   -0.4886 C.ar    1  UNL1        0.0467
     23 N           5.0079   -1.4773   -0.0556 N.ar    1  UNL1       -0.2500
     24 C           4.8762   -0.4084    0.7432 C.ar    1  UNL1        0.1123
     25 C           1.9136    0.5655   -1.1836 C.ar    1  UNL1       -0.0378
     26 C           1.0039    1.0114   -2.1454 C.ar    1  UNL1       -0.0243
     27 C          -0.3367    0.7323   -1.9735 C.ar    1  UNL1        0.1311
     28 F          -1.2047    1.1691   -2.9267 F       1  UNL1       -0.2050
     29 C          -2.8263    1.1876   -0.9608 C.3     1  UNL1        0.1183
     30 S          -3.8892    1.6156    0.3865 S.O2    1  UNL1       -0.0101
     31 O          -3.1005    2.0856    1.5578 O.2     1  UNL1       -0.1731
     32 O          -4.9188    2.6196   -0.0445 O.2     1  UNL1       -0.1731
     33 H          -6.6115   -0.0503   -0.3265 H       1  UNL1        0.0256
     34 H          -5.5024   -1.4040   -0.6522 H       1  UNL1        0.0256
     35 H          -5.1972    0.2797   -1.3326 H       1  UNL1        0.0256
     36 H          -6.0743   -0.7430    2.2196 H       1  UNL1        0.0256
     37 H          -5.2404    0.8003    2.7855 H       1  UNL1        0.0256
     38 H          -6.5654    0.8567    1.6065 H       1  UNL1        0.0256
     39 H          -3.6676   -2.7729    2.1789 H       1  UNL1        0.2881
     40 H          -3.9192   -1.2910    3.1423 H       1  UNL1        0.2881
     41 H          -3.1187   -0.4562   -2.7651 H       1  UNL1        0.0279
     42 H          -1.6758   -1.4371   -2.4883 H       1  UNL1        0.0279
     43 H          -3.1653   -1.9604   -1.6849 H       1  UNL1        0.0279
     44 H          -0.2046   -0.9532    0.9119 H       1  UNL1        0.0641
     45 H           2.1779   -1.4425    1.4475 H       1  UNL1        0.1536
     46 H           4.7353    2.6400    2.9986 H       1  UNL1        0.0845
     47 H           8.1984    0.3627    0.9691 H       1  UNL1        0.0640
     48 H           6.3112   -2.7599   -1.1288 H       1  UNL1        0.0844
     49 H           2.9759    0.7736   -1.2994 H       1  UNL1        0.0637
     50 H           1.3625    1.5604   -2.9939 H       1  UNL1        0.0647
     51 H          -2.0431    1.9852   -0.9941 H       1  UNL1        0.0550
     52 H          -3.4266    1.1863   -1.9006 H       1  UNL1        0.0550
@<TRIPOS>BOND
     1     1     2    1
     2     2     3    1
     3     2     4    1
     4     4     5    1
     5     4     6    2
     6     6     7    1
     7     7     8    1
     8     7     9    1
     9     9    10   ar
    10    10    11   ar
    11    11    12    1
    12    12    13    1
    13    13    14   ar
    14    14    15   ar
    15    15    16   ar
    16    16    17    1
    17    16    18   ar
    18    18    19   ar
    19    19    20   ar
    20    20    21    1
    21    20    22   ar
    22    22    23   ar
    23    23    24   ar
    24    11    25   ar
    25    25    26   ar
    26    26    27   ar
    27    27    28    1
    28     7    29    1
    29    29    30    1
    30    30    31    2
    31    30    32    2
    32    30     2    1
    33    27     9   ar
    34    24    13   ar
    35    24    18   ar
    36     1    33    1
    37     1    34    1
    38     1    35    1
    39     3    36    1
    40     3    37    1
    41     3    38    1
    42     5    39    1
    43     5    40    1
    44     8    41    1
    45     8    42    1
    46     8    43    1
    47    10    44    1
    48    12    45    1
    49    15    46    1
    50    19    47    1
    51    22    48    1
    52    25    49    1
    53    26    50    1
    54    29    51    1
    55    29    52    1
