@<TRIPOS>MOLECULE
*****
 55 58 0 0 0
SMALL
GASTEIGER

@<TRIPOS>ATOM
      1 C          -3.8170   -1.9558   -1.1338 C.3     1  UNL1       -0.0118
      2 N          -4.1571   -0.7807   -0.4170 N.3     1  UNL1       -0.2919
      3 C          -5.0170    0.1293   -1.0825 C.3     1  UNL1        0.0010
      4 C          -5.9901    0.8111   -0.1479 C.3     1  UNL1       -0.0245
      5 C          -6.1902    0.0480    1.1433 C.3     1  UNL1        0.0128
      6 N          -5.0795    0.4162    2.0156 N.am    1  UNL1       -0.3137
      7 C          -3.7065    0.2679    1.6544 C.2     1  UNL1        0.2335
      8 O          -2.9130    0.5810    2.5776 O.2     1  UNL1       -0.2738
      9 C          -3.1075   -0.2001    0.3518 C.3     1  UNL1        0.1012
     10 C          -2.5581    1.0279   -0.3285 C.3     1  UNL1       -0.0100
     11 C          -1.3254    1.5613    0.3480 C.3     1  UNL1        0.0170
     12 N          -0.3512    0.5234    0.6138 N.pl3   1  UNL1       -0.2994
     13 C           1.0223    0.6883    0.2652 C.ar    1  UNL1        0.2214
     14 N           1.8988   -0.2789    0.5186 N.ar    1  UNL1       -0.1790
     15 C           3.2114   -0.2167    0.2277 C.ar    1  UNL1        0.2254
     16 O           3.9925   -1.2907    0.5476 O.3     1  UNL1       -0.4378
     17 C           5.3367   -1.4117    0.3316 C.ar    1  UNL1        0.1331
     18 C           5.8881   -1.9364   -0.8187 C.ar    1  UNL1       -0.0191
     19 C           7.2546   -2.0440   -1.0039 C.ar    1  UNL1       -0.0556
     20 C           8.1041   -1.6129   -0.0060 C.ar    1  UNL1       -0.0262
     21 C           7.5917   -1.0855    1.1519 C.ar    1  UNL1        0.1269
     22 F           8.4120   -0.6576    2.1415 F       1  UNL1       -0.2054
     23 C           6.2091   -0.9884    1.3130 C.ar    1  UNL1        0.0160
     24 C           3.6615    0.9365   -0.3744 C.ar    1  UNL1        0.0305
     25 C           2.7638    1.9587   -0.6479 C.ar    1  UNL1        0.1522
     26 C           3.2876    3.1880   -1.2986 C.3     1  UNL1        0.4345
     27 F           4.1222    2.9010   -2.3548 F       1  UNL1       -0.1644
     28 F           2.2466    3.9544   -1.8039 F       1  UNL1       -0.1644
     29 F           3.9179    3.9518   -0.3236 F       1  UNL1       -0.1644
     30 N           1.4674    1.8086   -0.3212 N.ar    1  UNL1       -0.2101
     31 C          -0.8062   -0.6830    1.2409 C.3     1  UNL1        0.0170
     32 C          -2.0522   -1.2326    0.5991 C.3     1  UNL1       -0.0100
     33 H          -4.7339   -2.3737   -1.5896 H       1  UNL1        0.0391
     34 H          -3.4825   -2.7344   -0.3872 H       1  UNL1        0.0391
     35 H          -3.0699   -1.8112   -1.9348 H       1  UNL1        0.0391
     36 H          -4.4584    0.8711   -1.6905 H       1  UNL1        0.0427
     37 H          -5.6328   -0.4570   -1.8170 H       1  UNL1        0.0427
     38 H          -6.9946    0.9045   -0.6301 H       1  UNL1        0.0293
     39 H          -5.6879    1.8608    0.0886 H       1  UNL1        0.0293
     40 H          -6.1163   -1.0466    0.8805 H       1  UNL1        0.0462
     41 H          -7.1651    0.2291    1.6008 H       1  UNL1        0.0462
     42 H          -5.3421    0.7987    2.9296 H       1  UNL1        0.1487
     43 H          -2.3190    0.8542   -1.3831 H       1  UNL1        0.0303
     44 H          -3.3199    1.8353   -0.2991 H       1  UNL1        0.0303
     45 H          -0.8532    2.2956   -0.3295 H       1  UNL1        0.0465
     46 H          -1.5341    2.0777    1.2928 H       1  UNL1        0.0465
     47 H           5.1740   -2.2657   -1.5835 H       1  UNL1        0.0654
     48 H           7.6642   -2.4507   -1.8962 H       1  UNL1        0.0620
     49 H           9.1735   -1.6868   -0.1281 H       1  UNL1        0.0646
     50 H           5.8181   -0.5750    2.2209 H       1  UNL1        0.0683
     51 H           4.6999    1.0097   -0.6152 H       1  UNL1        0.0692
     52 H          -0.0115   -1.4737    1.1015 H       1  UNL1        0.0465
     53 H          -0.8996   -0.5846    2.3508 H       1  UNL1        0.0465
     54 H          -1.7543   -1.6508   -0.3841 H       1  UNL1        0.0303
     55 H          -2.4717   -2.0052    1.2801 H       1  UNL1        0.0303
@<TRIPOS>BOND
     1     1     2    1
     2     2     3    1
     3     3     4    1
     4     4     5    1
     5     5     6    1
     6     6     7   am
     7     7     8    2
     8     7     9    1
     9     9    10    1
    10    10    11    1
    11    11    12    1
    12    12    13    1
    13    13    14   ar
    14    14    15   ar
    15    15    16    1
    16    16    17    1
    17    17    18   ar
    18    18    19   ar
    19    19    20   ar
    20    20    21   ar
    21    21    22    1
    22    21    23   ar
    23    15    24   ar
    24    24    25   ar
    25    25    26    1
    26    26    27    1
    27    26    28    1
    28    26    29    1
    29    25    30   ar
    30    12    31    1
    31    31    32    1
    32     9     2    1
    33    30    13   ar
    34    32     9    1
    35    23    17   ar
    36     1    33    1
    37     1    34    1
    38     1    35    1
    39     3    36    1
    40     3    37    1
    41     4    38    1
    42     4    39    1
    43     5    40    1
    44     5    41    1
    45     6    42    1
    46    10    43    1
    47    10    44    1
    48    11    45    1
    49    11    46    1
    50    18    47    1
    51    19    48    1
    52    20    49    1
    53    23    50    1
    54    24    51    1
    55    31    52    1
    56    31    53    1
    57    32    54    1
    58    32    55    1
