
     RDKit          3D

 55 58  0  0  0  0  0  0  0  0999 V2000
   -3.8170   -1.9558   -1.1338 C   0  0  0  0  0  0  0  0  0  0  0  0
   -4.1571   -0.7807   -0.4170 N   0  0  0  0  0  0  0  0  0  0  0  0
   -5.0170    0.1293   -1.0825 C   0  0  0  0  0  0  0  0  0  0  0  0
   -5.9901    0.8111   -0.1479 C   0  0  0  0  0  0  0  0  0  0  0  0
   -6.1902    0.0480    1.1433 C   0  0  0  0  0  0  0  0  0  0  0  0
   -5.0795    0.4162    2.0156 N   0  0  0  0  0  0  0  0  0  0  0  0
   -3.7065    0.2679    1.6544 C   0  0  0  0  0  0  0  0  0  0  0  0
   -2.9130    0.5810    2.5776 O   0  0  0  0  0  0  0  0  0  0  0  0
   -3.1075   -0.2001    0.3518 C   0  0  0  0  0  0  0  0  0  0  0  0
   -2.5581    1.0279   -0.3285 C   0  0  0  0  0  0  0  0  0  0  0  0
   -1.3254    1.5613    0.3480 C   0  0  0  0  0  0  0  0  0  0  0  0
   -0.3512    0.5234    0.6138 N   0  0  0  0  0  0  0  0  0  0  0  0
    1.0223    0.6883    0.2652 C   0  0  0  0  0  0  0  0  0  0  0  0
    1.8988   -0.2789    0.5186 N   0  0  0  0  0  0  0  0  0  0  0  0
    3.2114   -0.2167    0.2277 C   0  0  0  0  0  0  0  0  0  0  0  0
    3.9925   -1.2907    0.5476 O   0  0  0  0  0  0  0  0  0  0  0  0
    5.3367   -1.4117    0.3316 C   0  0  0  0  0  0  0  0  0  0  0  0
    5.8881   -1.9364   -0.8187 C   0  0  0  0  0  0  0  0  0  0  0  0
    7.2546   -2.0440   -1.0039 C   0  0  0  0  0  0  0  0  0  0  0  0
    8.1041   -1.6129   -0.0060 C   0  0  0  0  0  0  0  0  0  0  0  0
    7.5917   -1.0855    1.1519 C   0  0  0  0  0  0  0  0  0  0  0  0
    8.4120   -0.6576    2.1415 F   0  0  0  0  0  0  0  0  0  0  0  0
    6.2091   -0.9884    1.3130 C   0  0  0  0  0  0  0  0  0  0  0  0
    3.6615    0.9365   -0.3744 C   0  0  0  0  0  0  0  0  0  0  0  0
    2.7638    1.9587   -0.6479 C   0  0  0  0  0  0  0  0  0  0  0  0
    3.2876    3.1880   -1.2986 C   0  0  0  0  0  0  0  0  0  0  0  0
    4.1222    2.9010   -2.3548 F   0  0  0  0  0  0  0  0  0  0  0  0
    2.2466    3.9544   -1.8039 F   0  0  0  0  0  0  0  0  0  0  0  0
    3.9179    3.9518   -0.3236 F   0  0  0  0  0  0  0  0  0  0  0  0
    1.4674    1.8086   -0.3212 N   0  0  0  0  0  0  0  0  0  0  0  0
   -0.8062   -0.6830    1.2409 C   0  0  0  0  0  0  0  0  0  0  0  0
   -2.0522   -1.2326    0.5991 C   0  0  0  0  0  0  0  0  0  0  0  0
   -4.7339   -2.3737   -1.5896 H   0  0  0  0  0  0  0  0  0  0  0  0
   -3.4825   -2.7344   -0.3872 H   0  0  0  0  0  0  0  0  0  0  0  0
   -3.0699   -1.8112   -1.9348 H   0  0  0  0  0  0  0  0  0  0  0  0
   -4.4584    0.8711   -1.6905 H   0  0  0  0  0  0  0  0  0  0  0  0
   -5.6328   -0.4570   -1.8170 H   0  0  0  0  0  0  0  0  0  0  0  0
   -6.9946    0.9045   -0.6301 H   0  0  0  0  0  0  0  0  0  0  0  0
   -5.6879    1.8608    0.0886 H   0  0  0  0  0  0  0  0  0  0  0  0
   -6.1163   -1.0466    0.8805 H   0  0  0  0  0  0  0  0  0  0  0  0
   -7.1651    0.2291    1.6008 H   0  0  0  0  0  0  0  0  0  0  0  0
   -5.3421    0.7987    2.9296 H   0  0  0  0  0  0  0  0  0  0  0  0
   -2.3190    0.8542   -1.3831 H   0  0  0  0  0  0  0  0  0  0  0  0
   -3.3199    1.8353   -0.2991 H   0  0  0  0  0  0  0  0  0  0  0  0
   -0.8532    2.2956   -0.3295 H   0  0  0  0  0  0  0  0  0  0  0  0
   -1.5341    2.0777    1.2928 H   0  0  0  0  0  0  0  0  0  0  0  0
    5.1740   -2.2657   -1.5835 H   0  0  0  0  0  0  0  0  0  0  0  0
    7.6642   -2.4507   -1.8962 H   0  0  0  0  0  0  0  0  0  0  0  0
    9.1735   -1.6868   -0.1281 H   0  0  0  0  0  0  0  0  0  0  0  0
    5.8181   -0.5750    2.2209 H   0  0  0  0  0  0  0  0  0  0  0  0
    4.6999    1.0097   -0.6152 H   0  0  0  0  0  0  0  0  0  0  0  0
   -0.0115   -1.4737    1.1015 H   0  0  0  0  0  0  0  0  0  0  0  0
   -0.8996   -0.5846    2.3508 H   0  0  0  0  0  0  0  0  0  0  0  0
   -1.7543   -1.6508   -0.3841 H   0  0  0  0  0  0  0  0  0  0  0  0
   -2.4717   -2.0052    1.2801 H   0  0  0  0  0  0  0  0  0  0  0  0
  1  2  1  0
  2  3  1  0
  3  4  1  0
  4  5  1  0
  5  6  1  0
  6  7  1  0
  7  8  2  0
  7  9  1  0
  9 10  1  0
 10 11  1  0
 11 12  1  0
 12 13  1  0
 13 14  2  0
 14 15  1  0
 15 16  1  0
 16 17  1  0
 17 18  2  0
 18 19  1  0
 19 20  2  0
 20 21  1  0
 21 22  1  0
 21 23  2  0
 15 24  2  0
 24 25  1  0
 25 26  1  0
 26 27  1  0
 26 28  1  0
 26 29  1  0
 25 30  2  0
 12 31  1  0
 31 32  1  0
  9  2  1  0
 30 13  1  0
 32  9  1  0
 23 17  1  0
  1 33  1  0
  1 34  1  0
  1 35  1  0
  3 36  1  0
  3 37  1  0
  4 38  1  0
  4 39  1  0
  5 40  1  0
  5 41  1  0
  6 42  1  0
 10 43  1  0
 10 44  1  0
 11 45  1  0
 11 46  1  0
 18 47  1  0
 19 48  1  0
 20 49  1  0
 23 50  1  0
 24 51  1  0
 31 52  1  0
 31 53  1  0
 32 54  1  0
 32 55  1  0
M  END
$$$$
