
     RDKit          3D

 50 53  0  0  0  0  0  0  0  0999 V2000
    0.5454    2.0451    2.6537 C   0  0  0  0  0  0  0  0  0  0  0  0
    1.5945    1.3642    1.8650 C   0  0  0  0  0  0  0  0  0  0  0  0
    2.9075    1.4251    2.3317 C   0  0  0  0  0  0  0  0  0  0  0  0
    3.8889    0.7766    1.5877 C   0  0  0  0  0  0  0  0  0  0  0  0
    3.6095    0.0895    0.4267 C   0  0  0  0  0  0  0  0  0  0  0  0
    4.6574   -0.5805   -0.3323 C   0  0  0  0  0  0  0  0  0  0  0  0
    4.3106   -1.1861   -1.3841 O   0  0  0  0  0  0  0  0  0  0  0  0
    6.0161   -0.6068    0.0104 N   0  0  0  0  0  0  0  0  0  0  0  0
    7.0331   -1.2917   -0.7806 C   0  0  0  0  0  0  0  0  0  0  0  0
    8.1827   -1.8501   -0.0219 C   0  0  0  0  0  0  0  0  0  0  0  0
    8.3552   -0.5579   -0.8357 C   0  0  0  0  0  0  0  0  0  0  0  0
    2.2893    0.0744    0.0297 C   0  0  0  0  0  0  0  0  0  0  0  0
    1.2659    0.6921    0.7133 C   0  0  0  0  0  0  0  0  0  0  0  0
   -0.1084    0.6387    0.2289 C   0  0  0  0  0  0  0  0  0  0  0  0
   -0.6751   -0.5760   -0.1766 C   0  0  0  0  0  0  0  0  0  0  0  0
   -1.9728   -0.6160   -0.6391 C   0  0  0  0  0  0  0  0  0  0  0  0
   -2.7676    0.4941   -0.7296 C   0  0  0  0  0  0  0  0  0  0  0  0
   -4.1388    0.4643   -1.2161 C   0  0  0  0  0  0  0  0  0  0  0  0
   -4.8010    1.5459   -1.2649 O   0  0  0  0  0  0  0  0  0  0  0  0
   -4.8083   -0.7026   -1.6494 N   0  0  0  0  0  0  0  0  0  0  0  0
   -6.1911   -0.6712   -2.1296 C   0  0  0  0  0  0  0  0  0  0  0  0
   -7.1391   -0.1614   -1.0777 C   0  0  0  0  0  0  0  0  0  0  0  0
   -7.2123   -0.9303    0.1920 C   0  0  0  0  0  0  0  0  0  0  0  0
   -8.3659   -1.0265   -0.7873 C   0  0  0  0  0  0  0  0  0  0  0  0
   -2.2201    1.7054   -0.3315 C   0  0  0  0  0  0  0  0  0  0  0  0
   -0.9231    1.7474    0.1311 C   0  0  0  0  0  0  0  0  0  0  0  0
    0.8269    1.8804    3.7369 H   0  0  0  0  0  0  0  0  0  0  0  0
   -0.4356    1.5895    2.5336 H   0  0  0  0  0  0  0  0  0  0  0  0
    0.5338    3.1497    2.5120 H   0  0  0  0  0  0  0  0  0  0  0  0
    3.1645    1.9563    3.2410 H   0  0  0  0  0  0  0  0  0  0  0  0
    4.9282    0.8221    1.9529 H   0  0  0  0  0  0  0  0  0  0  0  0
    6.3407   -0.1203    0.8684 H   0  0  0  0  0  0  0  0  0  0  0  0
    6.7192   -1.8118   -1.6882 H   0  0  0  0  0  0  0  0  0  0  0  0
    8.7680   -2.6921   -0.3880 H   0  0  0  0  0  0  0  0  0  0  0  0
    8.1746   -1.7402    1.0812 H   0  0  0  0  0  0  0  0  0  0  0  0
    8.9720   -0.5984   -1.7422 H   0  0  0  0  0  0  0  0  0  0  0  0
    8.4771    0.3694   -0.2360 H   0  0  0  0  0  0  0  0  0  0  0  0
    2.0440   -0.4529   -0.8701 H   0  0  0  0  0  0  0  0  0  0  0  0
   -0.0358   -1.4347   -0.0980 H   0  0  0  0  0  0  0  0  0  0  0  0
   -2.3725   -1.5940   -0.9457 H   0  0  0  0  0  0  0  0  0  0  0  0
   -4.2848   -1.6035   -1.6185 H   0  0  0  0  0  0  0  0  0  0  0  0
   -6.2748    0.0407   -3.0029 H   0  0  0  0  0  0  0  0  0  0  0  0
   -6.4425   -1.6580   -2.5252 H   0  0  0  0  0  0  0  0  0  0  0  0
   -7.3866    0.9292   -1.0649 H   0  0  0  0  0  0  0  0  0  0  0  0
   -6.5419   -1.8017    0.2846 H   0  0  0  0  0  0  0  0  0  0  0  0
   -7.3554   -0.3213    1.1055 H   0  0  0  0  0  0  0  0  0  0  0  0
   -8.4485   -1.9814   -1.3478 H   0  0  0  0  0  0  0  0  0  0  0  0
   -9.3151   -0.5520   -0.5431 H   0  0  0  0  0  0  0  0  0  0  0  0
   -2.8437    2.5994   -0.3986 H   0  0  0  0  0  0  0  0  0  0  0  0
   -0.5441    2.7198    0.4262 H   0  0  0  0  0  0  0  0  0  0  0  0
  1  2  1  0
  2  3  2  0
  3  4  1  0
  4  5  2  0
  5  6  1  0
  6  7  2  0
  6  8  1  0
  8  9  1  0
  9 10  1  0
 10 11  1  0
  5 12  1  0
 12 13  2  0
 13 14  1  0
 14 15  2  0
 15 16  1  0
 16 17  2  0
 17 18  1  0
 18 19  2  0
 18 20  1  0
 20 21  1  0
 21 22  1  0
 22 23  1  0
 23 24  1  0
 17 25  1  0
 25 26  2  0
 13  2  1  0
 26 14  1  0
 11  9  1  0
 24 22  1  0
  1 27  1  0
  1 28  1  0
  1 29  1  0
  3 30  1  0
  4 31  1  0
  8 32  1  0
  9 33  1  0
 10 34  1  0
 10 35  1  0
 11 36  1  0
 11 37  1  0
 12 38  1  0
 15 39  1  0
 16 40  1  0
 20 41  1  0
 21 42  1  0
 21 43  1  0
 22 44  1  0
 23 45  1  0
 23 46  1  0
 24 47  1  0
 24 48  1  0
 25 49  1  0
 26 50  1  0
M  END
$$$$
