@<TRIPOS>MOLECULE
*****
 50 53 0 0 0
SMALL
GASTEIGER

@<TRIPOS>ATOM
      1 C           0.5454    2.0451    2.6537 C.3     1  UNL1       -0.0391
      2 C           1.5945    1.3642    1.8650 C.ar    1  UNL1       -0.0427
      3 C           2.9075    1.4251    2.3317 C.ar    1  UNL1       -0.0575
      4 C           3.8889    0.7766    1.5877 C.ar    1  UNL1       -0.0494
      5 C           3.6095    0.0895    0.4267 C.ar    1  UNL1        0.0373
      6 C           4.6574   -0.5805   -0.3323 C.2     1  UNL1        0.2443
      7 O           4.3106   -1.1861   -1.3841 O.2     1  UNL1       -0.2702
      8 N           6.0161   -0.6068    0.0104 N.am    1  UNL1       -0.3085
      9 C           7.0331   -1.2917   -0.7806 C.3     1  UNL1        0.0235
     10 C           8.1827   -1.8501   -0.0219 C.3     1  UNL1       -0.0328
     11 C           8.3552   -0.5579   -0.8357 C.3     1  UNL1       -0.0328
     12 C           2.2893    0.0744    0.0297 C.ar    1  UNL1       -0.0417
     13 C           1.2659    0.6921    0.7133 C.ar    1  UNL1       -0.0143
     14 C          -0.1084    0.6387    0.2289 C.ar    1  UNL1       -0.0176
     15 C          -0.6751   -0.5760   -0.1766 C.ar    1  UNL1       -0.0533
     16 C          -1.9728   -0.6160   -0.6391 C.ar    1  UNL1       -0.0491
     17 C          -2.7676    0.4941   -0.7296 C.ar    1  UNL1        0.0367
     18 C          -4.1388    0.4643   -1.2161 C.2     1  UNL1        0.2441
     19 O          -4.8010    1.5459   -1.2649 O.2     1  UNL1       -0.2702
     20 N          -4.8083   -0.7026   -1.6494 N.am    1  UNL1       -0.3111
     21 C          -6.1911   -0.6712   -2.1296 C.3     1  UNL1        0.0147
     22 C          -7.1391   -0.1614   -1.0777 C.3     1  UNL1       -0.0254
     23 C          -7.2123   -0.9303    0.1920 C.3     1  UNL1       -0.0485
     24 C          -8.3659   -1.0265   -0.7873 C.3     1  UNL1       -0.0485
     25 C          -2.2201    1.7054   -0.3315 C.ar    1  UNL1       -0.0491
     26 C          -0.9231    1.7474    0.1311 C.ar    1  UNL1       -0.0533
     27 H           0.8269    1.8804    3.7369 H       1  UNL1        0.0278
     28 H          -0.4356    1.5895    2.5336 H       1  UNL1        0.0278
     29 H           0.5338    3.1497    2.5120 H       1  UNL1        0.0278
     30 H           3.1645    1.9563    3.2410 H       1  UNL1        0.0621
     31 H           4.9282    0.8221    1.9529 H       1  UNL1        0.0625
     32 H           6.3407   -0.1203    0.8684 H       1  UNL1        0.1493
     33 H           6.7192   -1.8118   -1.6882 H       1  UNL1        0.0498
     34 H           8.7680   -2.6921   -0.3880 H       1  UNL1        0.0284
     35 H           8.1746   -1.7402    1.0812 H       1  UNL1        0.0284
     36 H           8.9720   -0.5984   -1.7422 H       1  UNL1        0.0284
     37 H           8.4771    0.3694   -0.2360 H       1  UNL1        0.0284
     38 H           2.0440   -0.4529   -0.8701 H       1  UNL1        0.0631
     39 H          -0.0358   -1.4347   -0.0980 H       1  UNL1        0.0624
     40 H          -2.3725   -1.5940   -0.9457 H       1  UNL1        0.0625
     41 H          -4.2848   -1.6035   -1.6185 H       1  UNL1        0.1490
     42 H          -6.2748    0.0407   -3.0029 H       1  UNL1        0.0465
     43 H          -6.4425   -1.6580   -2.5252 H       1  UNL1        0.0465
     44 H          -7.3866    0.9292   -1.0649 H       1  UNL1        0.0316
     45 H          -6.5419   -1.8017    0.2846 H       1  UNL1        0.0269
     46 H          -7.3554   -0.3213    1.1055 H       1  UNL1        0.0269
     47 H          -8.4485   -1.9814   -1.3478 H       1  UNL1        0.0269
     48 H          -9.3151   -0.5520   -0.5431 H       1  UNL1        0.0269
     49 H          -2.8437    2.5994   -0.3986 H       1  UNL1        0.0625
     50 H          -0.5441    2.7198    0.4262 H       1  UNL1        0.0624
@<TRIPOS>BOND
     1     1     2    1
     2     2     3   ar
     3     3     4   ar
     4     4     5   ar
     5     5     6    1
     6     6     7    2
     7     6     8   am
     8     8     9    1
     9     9    10    1
    10    10    11    1
    11     5    12   ar
    12    12    13   ar
    13    13    14    1
    14    14    15   ar
    15    15    16   ar
    16    16    17   ar
    17    17    18    1
    18    18    19    2
    19    18    20   am
    20    20    21    1
    21    21    22    1
    22    22    23    1
    23    23    24    1
    24    17    25   ar
    25    25    26   ar
    26    13     2   ar
    27    26    14   ar
    28    11     9    1
    29    24    22    1
    30     1    27    1
    31     1    28    1
    32     1    29    1
    33     3    30    1
    34     4    31    1
    35     8    32    1
    36     9    33    1
    37    10    34    1
    38    10    35    1
    39    11    36    1
    40    11    37    1
    41    12    38    1
    42    15    39    1
    43    16    40    1
    44    20    41    1
    45    21    42    1
    46    21    43    1
    47    22    44    1
    48    23    45    1
    49    23    46    1
    50    24    47    1
    51    24    48    1
    52    25    49    1
    53    26    50    1
