@<TRIPOS>MOLECULE
*****
 46 48 0 0 0
SMALL
GASTEIGER

@<TRIPOS>ATOM
      1 C          -4.6437   -1.5254    2.8944 C.3     1  UNL1        0.0790
      2 O          -4.5327   -1.2573    1.5068 O.3     1  UNL1       -0.4915
      3 C          -3.5438   -0.4123    1.0276 C.ar    1  UNL1        0.1615
      4 C          -2.6645    0.1694    1.9051 C.ar    1  UNL1       -0.0160
      5 C          -1.6704    1.0191    1.4183 C.ar    1  UNL1       -0.0545
      6 C          -1.5589    1.2805    0.0795 C.ar    1  UNL1       -0.0379
      7 C          -0.4965    2.1735   -0.5105 C.3     1  UNL1        0.0155
      8 C           0.4728    1.3854   -1.3042 C.ar    1  UNL1        0.0534
      9 N           0.3237    1.2607   -2.6460 N.ar    1  UNL1       -0.2589
     10 C           1.1060    0.5402   -3.4376 C.ar    1  UNL1        0.0285
     11 C           2.1582   -0.1417   -2.8709 C.ar    1  UNL1       -0.0357
     12 C           2.3583   -0.0497   -1.5089 C.ar    1  UNL1       -0.0110
     13 C           3.4114   -0.7136   -0.9273 C.ar    1  UNL1       -0.0085
     14 C           3.6514   -0.6356    0.4239 C.ar    1  UNL1        0.1621
     15 O           4.7072   -1.2953    1.0423 O.3     1  UNL1       -0.4914
     16 C           5.5588   -2.0754    0.2276 C.3     1  UNL1        0.0790
     17 C           2.8237    0.1282    1.2498 C.ar    1  UNL1        0.1621
     18 O           3.0806    0.1961    2.6108 O.3     1  UNL1       -0.4914
     19 C           2.2581    0.9591    3.4635 C.3     1  UNL1        0.0790
     20 C           1.7739    0.7852    0.6458 C.ar    1  UNL1       -0.0069
     21 C           1.5077    0.7213   -0.7208 C.ar    1  UNL1        0.0074
     22 C          -2.4702    0.6706   -0.7726 C.ar    1  UNL1       -0.0128
     23 C          -3.4586   -0.1690   -0.3274 C.ar    1  UNL1        0.1618
     24 O          -4.3665   -0.7717   -1.2124 O.3     1  UNL1       -0.4914
     25 C          -4.2170   -0.4716   -2.6029 C.3     1  UNL1        0.0790
     26 H          -3.8246   -2.2162    3.2053 H       1  UNL1        0.0660
     27 H          -4.6056   -0.6084    3.5024 H       1  UNL1        0.0660
     28 H          -5.6226   -2.0197    3.0643 H       1  UNL1        0.0660
     29 H          -2.7269   -0.0158    2.9559 H       1  UNL1        0.0655
     30 H          -0.9939    1.4770    2.1345 H       1  UNL1        0.0622
     31 H          -0.0636    2.7306    0.3267 H       1  UNL1        0.0377
     32 H          -1.0569    2.8373   -1.2233 H       1  UNL1        0.0377
     33 H           0.9256    0.4838   -4.5198 H       1  UNL1        0.0830
     34 H           2.7876   -0.7237   -3.5181 H       1  UNL1        0.0639
     35 H           4.0771   -1.3192   -1.5482 H       1  UNL1        0.0661
     36 H           6.0776   -1.4892   -0.5526 H       1  UNL1        0.0660
     37 H           4.9587   -2.8481   -0.3259 H       1  UNL1        0.0660
     38 H           6.2647   -2.6397    0.8801 H       1  UNL1        0.0660
     39 H           1.1787    0.9029    3.2264 H       1  UNL1        0.0660
     40 H           2.5414    2.0341    3.4955 H       1  UNL1        0.0660
     41 H           2.3648    0.6206    4.5357 H       1  UNL1        0.0660
     42 H           1.1443    1.3906    1.2658 H       1  UNL1        0.0662
     43 H          -2.3752    0.8833   -1.8274 H       1  UNL1        0.0658
     44 H          -4.5994    0.5424   -2.8380 H       1  UNL1        0.0660
     45 H          -4.8383   -1.1799   -3.2172 H       1  UNL1        0.0660
     46 H          -3.1822   -0.6133   -2.9446 H       1  UNL1        0.0660
@<TRIPOS>BOND
     1     1     2    1
     2     2     3    1
     3     3     4   ar
     4     4     5   ar
     5     5     6   ar
     6     6     7    1
     7     7     8    1
     8     8     9   ar
     9     9    10   ar
    10    10    11   ar
    11    11    12   ar
    12    12    13   ar
    13    13    14   ar
    14    14    15    1
    15    15    16    1
    16    14    17   ar
    17    17    18    1
    18    18    19    1
    19    17    20   ar
    20    20    21   ar
    21     6    22   ar
    22    22    23   ar
    23    23    24    1
    24    24    25    1
    25    23     3   ar
    26    21     8   ar
    27    21    12   ar
    28     1    26    1
    29     1    27    1
    30     1    28    1
    31     4    29    1
    32     5    30    1
    33     7    31    1
    34     7    32    1
    35    10    33    1
    36    11    34    1
    37    13    35    1
    38    16    36    1
    39    16    37    1
    40    16    38    1
    41    19    39    1
    42    19    40    1
    43    19    41    1
    44    20    42    1
    45    22    43    1
    46    25    44    1
    47    25    45    1
    48    25    46    1
