@<TRIPOS>MOLECULE
*****
 63 69 0 0 0
SMALL
GASTEIGER

@<TRIPOS>ATOM
      1 C          -2.1776    2.9427    4.0731 C.3     1  UNL1       -0.0455
      2 C          -2.2155    1.4500    4.1774 C.3     1  UNL1        0.0387
      3 N          -1.5451    0.7906    3.0782 N.ar    1  UNL1       -0.2714
      4 C          -2.1262    0.4221    1.9259 C.ar    1  UNL1        0.0313
      5 C          -1.1310   -0.1727    1.1546 C.ar    1  UNL1        0.0249
      6 C          -1.4272   -0.7098   -0.2185 C.3     1  UNL1        0.1671
      7 C          -2.4672   -1.7704    0.0658 C.ar    1  UNL1        0.2492
      8 N          -3.7028   -1.6151    0.5268 N.ar    1  UNL1       -0.1295
      9 N          -4.2137   -2.8551    0.6041 N.ar    1  UNL1       -0.1979
     10 C          -5.5319   -3.2400    1.0482 C.3     1  UNL1        0.0370
     11 C          -3.2841   -3.7437    0.1903 C.ar    1  UNL1        0.4379
     12 O          -3.3946   -5.0051    0.1205 O.2     1  UNL1       -0.2211
     13 O          -2.2398   -3.0395   -0.1267 O.2     1  UNL1       -0.3896
     14 N          -1.9878    0.3659   -0.9555 N.3     1  UNL1       -0.2847
     15 C          -1.2506    0.9564   -1.9987 C.3     1  UNL1        0.0714
     16 C          -0.0722    1.7460   -1.6356 C.ar    1  UNL1        0.1253
     17 N           0.9490    1.5293   -0.8015 N.ar    1  UNL1       -0.2294
     18 C           1.8265    2.5417   -0.7759 C.ar    1  UNL1        0.1070
     19 C           3.0705    2.6641    0.0124 C.ar    1  UNL1        0.0908
     20 C           3.4868    1.6684    0.8674 C.ar    1  UNL1       -0.0314
     21 C           4.6381    1.7497    1.6173 C.ar    1  UNL1       -0.0229
     22 C           5.4010    2.8666    1.5085 C.ar    1  UNL1        0.1414
     23 F           6.5310    2.9553    2.2396 F       1  UNL1       -0.2039
     24 C           4.9844    3.8703    0.6486 C.ar    1  UNL1        0.0635
     25 N           3.8445    3.7540   -0.0734 N.ar    1  UNL1       -0.2505
     26 C           1.3261    3.4729   -1.6600 C.ar    1  UNL1        0.0308
     27 N           0.1848    2.9789   -2.1677 N.ar    1  UNL1       -0.3464
     28 C          -0.8076   -0.1499   -2.9664 C.3     1  UNL1       -0.0028
     29 C           0.0249   -1.0765   -2.1575 C.ar    1  UNL1       -0.0146
     30 C          -0.2594   -1.3578   -0.8390 C.ar    1  UNL1        0.0546
     31 N           0.6636   -2.2122   -0.4301 N.ar    1  UNL1       -0.3556
     32 C           1.5368   -2.4977   -1.4281 C.ar    1  UNL1        0.0470
     33 C           2.6524   -3.2976   -1.5481 C.ar    1  UNL1       -0.0378
     34 C           3.3706   -3.3948   -2.7323 C.ar    1  UNL1       -0.0598
     35 C           2.9496   -2.6645   -3.8221 C.ar    1  UNL1       -0.0611
     36 C           1.8339   -1.8519   -3.7357 C.ar    1  UNL1       -0.0523
     37 C           1.1432   -1.7793   -2.5414 C.ar    1  UNL1        0.0032
     38 C           0.0228   -0.1398    1.8779 C.ar    1  UNL1        0.0552
     39 N          -0.2630    0.4467    3.0304 N.ar    1  UNL1       -0.1793
     40 H          -1.6612    3.4142    4.9431 H       1  UNL1        0.0247
     41 H          -3.2039    3.3991    4.0562 H       1  UNL1        0.0247
     42 H          -1.6576    3.3119    3.1701 H       1  UNL1        0.0247
     43 H          -3.3004    1.1510    4.2359 H       1  UNL1        0.0506
     44 H          -1.7827    1.1701    5.1648 H       1  UNL1        0.0506
     45 H          -3.1610    0.5586    1.6487 H       1  UNL1        0.0830
     46 H          -5.4217   -3.6344    2.0970 H       1  UNL1        0.0475
     47 H          -5.8565   -4.1015    0.4317 H       1  UNL1        0.0475
     48 H          -6.2543   -2.3984    0.9972 H       1  UNL1        0.0475
     49 H          -2.9241    0.0795   -1.3174 H       1  UNL1        0.1242
     50 H          -1.9689    1.5724   -2.6014 H       1  UNL1        0.0544
     51 H           2.8714    0.7834    0.9445 H       1  UNL1        0.0640
     52 H           4.8722    0.9056    2.2602 H       1  UNL1        0.0647
     53 H           5.6192    4.7404    0.5917 H       1  UNL1        0.0859
     54 H           1.8265    4.4120   -1.8539 H       1  UNL1        0.0829
     55 H          -0.4187    3.4751   -2.8726 H       1  UNL1        0.1666
     56 H          -1.6825   -0.6598   -3.4019 H       1  UNL1        0.0333
     57 H          -0.2276    0.2885   -3.8016 H       1  UNL1        0.0333
     58 H           0.7324   -2.6334    0.5318 H       1  UNL1        0.1657
     59 H           3.0066   -3.8815   -0.7122 H       1  UNL1        0.0638
     60 H           4.2481   -4.0158   -2.8476 H       1  UNL1        0.0618
     61 H           3.5008   -2.7250   -4.7681 H       1  UNL1        0.0618
     62 H           1.5322   -1.2932   -4.6106 H       1  UNL1        0.0624
     63 H           0.9686   -0.5170    1.5616 H       1  UNL1        0.0851
@<TRIPOS>BOND
     1     1     2    1
     2     2     3    1
     3     3     4   ar
     4     4     5   ar
     5     6     5    1
     6     6     7    1
     7     7     8   ar
     8     8     9   ar
     9     9    10    1
    10     9    11   ar
    11    11    12    2
    12    11    13   ar
    13     6    14    1
    14    14    15    1
    15    15    16    1
    16    16    17   ar
    17    17    18   ar
    18    18    19    1
    19    19    20   ar
    20    20    21   ar
    21    21    22   ar
    22    22    23    1
    23    22    24   ar
    24    24    25   ar
    25    18    26   ar
    26    26    27   ar
    27    15    28    1
    28    28    29    1
    29    29    30   ar
    30    30    31   ar
    31    31    32   ar
    32    32    33   ar
    33    33    34   ar
    34    34    35   ar
    35    35    36   ar
    36    36    37   ar
    37     5    38   ar
    38    38    39   ar
    39    39     3   ar
    40    30     6    1
    41    37    32   ar
    42    13     7   ar
    43    27    16   ar
    44    37    29   ar
    45    25    19   ar
    46     1    40    1
    47     1    41    1
    48     1    42    1
    49     2    43    1
    50     2    44    1
    51     4    45    1
    52    10    46    1
    53    10    47    1
    54    10    48    1
    55    14    49    1
    56    15    50    1
    57    20    51    1
    58    21    52    1
    59    24    53    1
    60    26    54    1
    61    27    55    1
    62    28    56    1
    63    28    57    1
    64    31    58    1
    65    33    59    1
    66    34    60    1
    67    35    61    1
    68    36    62    1
    69    38    63    1
