@<TRIPOS>MOLECULE
*****
 47 51 0 0 0
SMALL
GASTEIGER

@<TRIPOS>ATOM
      1 O           1.1944    2.3113   -3.2990 O.2     1  UNL1       -0.2677
      2 C           1.3124    1.8039   -2.1492 C.ar    1  UNL1        0.2533
      3 C           2.4065    1.0246   -1.8647 C.ar    1  UNL1        0.0427
      4 C           2.5200    0.4848   -0.6220 C.ar    1  UNL1        0.1285
      5 N           3.6583   -0.3231   -0.3335 N.pl3   1  UNL1       -0.3106
      6 C           4.6797   -0.5738   -1.3283 C.3     1  UNL1        0.0370
      7 C           5.4862   -1.7589   -0.8482 C.3     1  UNL1        0.0634
      8 O           6.0807   -1.5621    0.3702 O.3     1  UNL1       -0.3767
      9 C           5.3032   -0.9311    1.3077 C.3     1  UNL1        0.0634
     10 C           3.8304   -0.9233    0.9738 C.3     1  UNL1        0.0370
     11 N           1.5750    0.7149    0.3031 N.ar    1  UNL1       -0.2186
     12 C           0.4773    1.4850    0.0486 C.ar    1  UNL1        0.1191
     13 C          -0.5449    1.7123    1.1147 C.3     1  UNL1        0.0639
     14 C          -1.5743    0.6219    1.0833 C.ar    1  UNL1        0.1183
     15 N          -1.4257   -0.5454    1.7262 N.ar    1  UNL1       -0.2317
     16 C          -2.5045   -1.3021    1.5086 C.ar    1  UNL1        0.0920
     17 C          -2.9162   -2.5607    1.8919 C.ar    1  UNL1        0.0010
     18 C          -4.1141   -3.1240    1.5156 C.ar    1  UNL1        0.1255
     19 F          -4.4726   -4.3681    1.9207 F       1  UNL1       -0.2054
     20 C          -4.9223   -2.3575    0.7096 C.ar    1  UNL1       -0.0244
     21 C          -4.5432   -1.0909    0.3049 C.ar    1  UNL1       -0.0333
     22 C          -3.3308   -0.5489    0.6996 C.ar    1  UNL1        0.0692
     23 N          -2.7636    0.6634    0.4217 N.ar    1  UNL1       -0.3241
     24 C          -3.2403    1.7613   -0.3586 C.3     1  UNL1        0.0363
     25 C          -3.9904    1.6771   -1.6043 C.3     1  UNL1       -0.0302
     26 C          -4.6423    2.2200   -0.4185 C.3     1  UNL1       -0.0302
     27 N           0.3883    2.0060   -1.1839 N.ar    1  UNL1       -0.3104
     28 H           3.1611    0.8485   -2.6238 H       1  UNL1        0.0706
     29 H           4.2372   -0.8612   -2.3038 H       1  UNL1        0.0487
     30 H           5.3089    0.3327   -1.4233 H       1  UNL1        0.0487
     31 H           4.8022   -2.6229   -0.7633 H       1  UNL1        0.0575
     32 H           6.2548   -2.0145   -1.6009 H       1  UNL1        0.0575
     33 H           5.4136   -1.4807    2.2673 H       1  UNL1        0.0575
     34 H           5.6780    0.1094    1.5116 H       1  UNL1        0.0575
     35 H           3.4854   -1.9735    0.9830 H       1  UNL1        0.0487
     36 H           3.3115   -0.3188    1.7302 H       1  UNL1        0.0487
     37 H          -1.0288    2.6983    1.0002 H       1  UNL1        0.0422
     38 H           0.0100    1.6426    2.0774 H       1  UNL1        0.0422
     39 H          -2.2622   -3.1407    2.5246 H       1  UNL1        0.0668
     40 H          -5.8794   -2.7344    0.3737 H       1  UNL1        0.0647
     41 H          -5.1541   -0.4801   -0.3214 H       1  UNL1        0.0640
     42 H          -2.5308    2.6500   -0.3247 H       1  UNL1        0.0528
     43 H          -4.2475    0.7130   -2.1057 H       1  UNL1        0.0286
     44 H          -3.7410    2.4051   -2.4475 H       1  UNL1        0.0286
     45 H          -4.8562    3.3392   -0.4671 H       1  UNL1        0.0286
     46 H          -5.4580    1.7670    0.1610 H       1  UNL1        0.0286
     47 H          -0.4321    2.6046   -1.4297 H       1  UNL1        0.1700
@<TRIPOS>BOND
     1     1     2    2
     2     2     3   ar
     3     3     4   ar
     4     4     5    1
     5     5     6    1
     6     6     7    1
     7     7     8    1
     8     8     9    1
     9     9    10    1
    10     4    11   ar
    11    11    12   ar
    12    12    13    1
    13    13    14    1
    14    14    15   ar
    15    15    16   ar
    16    16    17   ar
    17    17    18   ar
    18    18    19    1
    19    18    20   ar
    20    20    21   ar
    21    21    22   ar
    22    22    23   ar
    23    23    24    1
    24    24    25    1
    25    25    26    1
    26    12    27   ar
    27    27     2   ar
    28    10     5    1
    29    23    14   ar
    30    26    24    1
    31    22    16   ar
    32     3    28    1
    33     6    29    1
    34     6    30    1
    35     7    31    1
    36     7    32    1
    37     9    33    1
    38     9    34    1
    39    10    35    1
    40    10    36    1
    41    13    37    1
    42    13    38    1
    43    17    39    1
    44    20    40    1
    45    21    41    1
    46    24    42    1
    47    25    43    1
    48    25    44    1
    49    26    45    1
    50    26    46    1
    51    27    47    1
