
     RDKit          3D

 47 51  0  0  0  0  0  0  0  0999 V2000
    1.1944    2.3113   -3.2990 O   0  0  0  0  0  0  0  0  0  0  0  0
    1.3124    1.8039   -2.1492 C   0  0  0  0  0  0  0  0  0  0  0  0
    2.4065    1.0246   -1.8647 C   0  0  0  0  0  0  0  0  0  0  0  0
    2.5200    0.4848   -0.6220 C   0  0  0  0  0  0  0  0  0  0  0  0
    3.6583   -0.3231   -0.3335 N   0  0  0  0  0  0  0  0  0  0  0  0
    4.6797   -0.5738   -1.3283 C   0  0  0  0  0  0  0  0  0  0  0  0
    5.4862   -1.7589   -0.8482 C   0  0  0  0  0  0  0  0  0  0  0  0
    6.0807   -1.5621    0.3702 O   0  0  0  0  0  0  0  0  0  0  0  0
    5.3032   -0.9311    1.3077 C   0  0  0  0  0  0  0  0  0  0  0  0
    3.8304   -0.9233    0.9738 C   0  0  0  0  0  0  0  0  0  0  0  0
    1.5750    0.7149    0.3031 N   0  0  0  0  0  0  0  0  0  0  0  0
    0.4773    1.4850    0.0486 C   0  0  0  0  0  0  0  0  0  0  0  0
   -0.5449    1.7123    1.1147 C   0  0  0  0  0  0  0  0  0  0  0  0
   -1.5743    0.6219    1.0833 C   0  0  0  0  0  0  0  0  0  0  0  0
   -1.4257   -0.5454    1.7262 N   0  0  0  0  0  0  0  0  0  0  0  0
   -2.5045   -1.3021    1.5086 C   0  0  0  0  0  0  0  0  0  0  0  0
   -2.9162   -2.5607    1.8919 C   0  0  0  0  0  0  0  0  0  0  0  0
   -4.1141   -3.1240    1.5156 C   0  0  0  0  0  0  0  0  0  0  0  0
   -4.4726   -4.3681    1.9207 F   0  0  0  0  0  0  0  0  0  0  0  0
   -4.9223   -2.3575    0.7096 C   0  0  0  0  0  0  0  0  0  0  0  0
   -4.5432   -1.0909    0.3049 C   0  0  0  0  0  0  0  0  0  0  0  0
   -3.3308   -0.5489    0.6996 C   0  0  0  0  0  0  0  0  0  0  0  0
   -2.7636    0.6634    0.4217 N   0  0  0  0  0  0  0  0  0  0  0  0
   -3.2403    1.7613   -0.3586 C   0  0  0  0  0  0  0  0  0  0  0  0
   -3.9904    1.6771   -1.6043 C   0  0  0  0  0  0  0  0  0  0  0  0
   -4.6423    2.2200   -0.4185 C   0  0  0  0  0  0  0  0  0  0  0  0
    0.3883    2.0060   -1.1839 N   0  0  0  0  0  0  0  0  0  0  0  0
    3.1611    0.8485   -2.6238 H   0  0  0  0  0  0  0  0  0  0  0  0
    4.2372   -0.8612   -2.3038 H   0  0  0  0  0  0  0  0  0  0  0  0
    5.3089    0.3327   -1.4233 H   0  0  0  0  0  0  0  0  0  0  0  0
    4.8022   -2.6229   -0.7633 H   0  0  0  0  0  0  0  0  0  0  0  0
    6.2548   -2.0145   -1.6009 H   0  0  0  0  0  0  0  0  0  0  0  0
    5.4136   -1.4807    2.2673 H   0  0  0  0  0  0  0  0  0  0  0  0
    5.6780    0.1094    1.5116 H   0  0  0  0  0  0  0  0  0  0  0  0
    3.4854   -1.9735    0.9830 H   0  0  0  0  0  0  0  0  0  0  0  0
    3.3115   -0.3188    1.7302 H   0  0  0  0  0  0  0  0  0  0  0  0
   -1.0288    2.6983    1.0002 H   0  0  0  0  0  0  0  0  0  0  0  0
    0.0100    1.6426    2.0774 H   0  0  0  0  0  0  0  0  0  0  0  0
   -2.2622   -3.1407    2.5246 H   0  0  0  0  0  0  0  0  0  0  0  0
   -5.8794   -2.7344    0.3737 H   0  0  0  0  0  0  0  0  0  0  0  0
   -5.1541   -0.4801   -0.3214 H   0  0  0  0  0  0  0  0  0  0  0  0
   -2.5308    2.6500   -0.3247 H   0  0  0  0  0  0  0  0  0  0  0  0
   -4.2475    0.7130   -2.1057 H   0  0  0  0  0  0  0  0  0  0  0  0
   -3.7410    2.4051   -2.4475 H   0  0  0  0  0  0  0  0  0  0  0  0
   -4.8562    3.3392   -0.4671 H   0  0  0  0  0  0  0  0  0  0  0  0
   -5.4580    1.7670    0.1610 H   0  0  0  0  0  0  0  0  0  0  0  0
   -0.4321    2.6046   -1.4297 H   0  0  0  0  0  0  0  0  0  0  0  0
  1  2  2  0
  2  3  1  0
  3  4  2  0
  4  5  1  0
  5  6  1  0
  6  7  1  0
  7  8  1  0
  8  9  1  0
  9 10  1  0
  4 11  1  0
 11 12  2  0
 12 13  1  0
 13 14  1  0
 14 15  2  0
 15 16  1  0
 16 17  2  0
 17 18  1  0
 18 19  1  0
 18 20  2  0
 20 21  1  0
 21 22  2  0
 22 23  1  0
 23 24  1  0
 24 25  1  0
 25 26  1  0
 12 27  1  0
 27  2  1  0
 10  5  1  0
 23 14  1  0
 26 24  1  0
 22 16  1  0
  3 28  1  0
  6 29  1  0
  6 30  1  0
  7 31  1  0
  7 32  1  0
  9 33  1  0
  9 34  1  0
 10 35  1  0
 10 36  1  0
 13 37  1  0
 13 38  1  0
 17 39  1  0
 20 40  1  0
 21 41  1  0
 24 42  1  0
 25 43  1  0
 25 44  1  0
 26 45  1  0
 26 46  1  0
 27 47  1  0
M  END
$$$$
