@<TRIPOS>MOLECULE
*****
 54 57 0 0 0
SMALL
GASTEIGER

@<TRIPOS>ATOM
      1 C           9.2602    2.5668    0.5567 C.3     1  UNL1        0.0788
      2 O           9.1264    1.1872    0.7403 O.3     1  UNL1       -0.4951
      3 C           7.8960    0.5458    0.6820 C.ar    1  UNL1        0.1201
      4 C           7.7900   -0.8097    0.8636 C.ar    1  UNL1       -0.0193
      5 C           6.5422   -1.3891    0.7947 C.ar    1  UNL1       -0.0477
      6 C           5.4022   -0.6623    0.5516 C.ar    1  UNL1        0.0176
      7 C           4.0953   -1.2677    0.4791 C.ar    1  UNL1        0.1410
      8 N           3.8592   -2.5973    0.6318 N.ar    1  UNL1       -0.2083
      9 C           2.5386   -2.8175    0.5047 C.ar    1  UNL1        0.1783
     10 N           1.8195   -3.9317    0.5711 N.ar    1  UNL1       -0.2338
     11 C           0.4894   -3.8642    0.4045 C.ar    1  UNL1        0.0378
     12 C          -0.1772   -2.6903    0.1660 C.ar    1  UNL1        0.0028
     13 C          -1.6769   -2.6722   -0.0147 C.ar    1  UNL1       -0.0086
     14 C          -2.2739   -3.7873   -0.6020 C.ar    1  UNL1       -0.0158
     15 S          -4.0757   -3.3774   -0.6323 S.2     1  UNL1       -0.0915
     16 C          -3.7898   -1.7139    0.1702 C.ar    1  UNL1        0.0744
     17 C          -4.9080   -0.8349    0.4426 C.2     1  UNL1        0.2507
     18 O          -6.0737   -1.1902    0.1389 O.2     1  UNL1       -0.2696
     19 N          -4.7604    0.4312    1.0460 N.am    1  UNL1       -0.3109
     20 C          -5.8382    1.3272    1.3337 C.3     1  UNL1        0.0121
     21 C          -6.6081    1.7418    0.1234 C.3     1  UNL1       -0.0350
     22 C          -5.8396    2.4780   -0.9210 C.3     1  UNL1       -0.0453
     23 C          -4.6892    1.7368   -1.5321 C.3     1  UNL1       -0.0626
     24 C          -6.7663    2.8790   -2.0742 C.3     1  UNL1       -0.0626
     25 C          -2.4794   -1.6593    0.3548 C.ar    1  UNL1       -0.0347
     26 C           0.5474   -1.5273    0.0934 C.ar    1  UNL1       -0.0255
     27 C           1.9350   -1.6074    0.2685 C.ar    1  UNL1        0.0861
     28 N           2.9183   -0.6908    0.2607 N.ar    1  UNL1       -0.3366
     29 C           5.5266    0.6976    0.3715 C.ar    1  UNL1       -0.0477
     30 C           6.7768    1.3131    0.4355 C.ar    1  UNL1       -0.0193
     31 H           8.7003    3.1670    1.3034 H       1  UNL1        0.0660
     32 H           8.9609    2.8819   -0.4854 H       1  UNL1        0.0660
     33 H          10.3570    2.8087    0.6147 H       1  UNL1        0.0660
     34 H           8.6386   -1.4301    1.0559 H       1  UNL1        0.0654
     35 H           6.4599   -2.4519    0.9373 H       1  UNL1        0.0626
     36 H          -0.0935   -4.7718    0.4587 H       1  UNL1        0.0836
     37 H          -1.8712   -4.7071   -0.9773 H       1  UNL1        0.0700
     38 H          -3.7810    0.6990    1.2970 H       1  UNL1        0.1490
     39 H          -6.5728    0.8648    2.0455 H       1  UNL1        0.0462
     40 H          -5.4584    2.2363    1.8490 H       1  UNL1        0.0462
     41 H          -7.0948    0.8516   -0.3804 H       1  UNL1        0.0283
     42 H          -7.4947    2.3884    0.3987 H       1  UNL1        0.0283
     43 H          -5.4779    3.4640   -0.5212 H       1  UNL1        0.0296
     44 H          -4.3025    2.2877   -2.4334 H       1  UNL1        0.0232
     45 H          -5.0199    0.7558   -1.9371 H       1  UNL1        0.0232
     46 H          -3.8347    1.5794   -0.8766 H       1  UNL1        0.0232
     47 H          -6.6692    2.1137   -2.8768 H       1  UNL1        0.0232
     48 H          -6.4828    3.8464   -2.5092 H       1  UNL1        0.0232
     49 H          -7.8136    2.9363   -1.7530 H       1  UNL1        0.0232
     50 H          -2.0285   -0.7362    0.8351 H       1  UNL1        0.0636
     51 H           0.0847   -0.5887   -0.0891 H       1  UNL1        0.0646
     52 H           2.7628    0.3401    0.1017 H       1  UNL1        0.1674
     53 H           4.6460    1.2865    0.1796 H       1  UNL1        0.0626
     54 H           6.8184    2.3644    0.2896 H       1  UNL1        0.0654
@<TRIPOS>BOND
     1     1     2    1
     2     2     3    1
     3     3     4   ar
     4     4     5   ar
     5     5     6   ar
     6     6     7    1
     7     7     8   ar
     8     8     9   ar
     9     9    10   ar
    10    10    11   ar
    11    11    12   ar
    12    12    13    1
    13    13    14   ar
    14    14    15   ar
    15    15    16   ar
    16    16    17    1
    17    17    18    2
    18    17    19   am
    19    19    20    1
    20    20    21    1
    21    21    22    1
    22    22    23    1
    23    22    24    1
    24    16    25   ar
    25    12    26   ar
    26    26    27   ar
    27    27    28   ar
    28     6    29   ar
    29    29    30   ar
    30    30     3   ar
    31    28     7   ar
    32    27     9   ar
    33    25    13   ar
    34     1    31    1
    35     1    32    1
    36     1    33    1
    37     4    34    1
    38     5    35    1
    39    11    36    1
    40    14    37    1
    41    19    38    1
    42    20    39    1
    43    20    40    1
    44    21    41    1
    45    21    42    1
    46    22    43    1
    47    23    44    1
    48    23    45    1
    49    23    46    1
    50    24    47    1
    51    24    48    1
    52    24    49    1
    53    25    50    1
    54    26    51    1
    55    28    52    1
    56    29    53    1
    57    30    54    1
