
     RDKit          3D

 54 57  0  0  0  0  0  0  0  0999 V2000
    9.2602    2.5668    0.5567 C   0  0  0  0  0  0  0  0  0  0  0  0
    9.1264    1.1872    0.7403 O   0  0  0  0  0  0  0  0  0  0  0  0
    7.8960    0.5458    0.6820 C   0  0  0  0  0  0  0  0  0  0  0  0
    7.7900   -0.8097    0.8636 C   0  0  0  0  0  0  0  0  0  0  0  0
    6.5422   -1.3891    0.7947 C   0  0  0  0  0  0  0  0  0  0  0  0
    5.4022   -0.6623    0.5516 C   0  0  0  0  0  0  0  0  0  0  0  0
    4.0953   -1.2677    0.4791 C   0  0  0  0  0  0  0  0  0  0  0  0
    3.8592   -2.5973    0.6318 N   0  0  0  0  0  0  0  0  0  0  0  0
    2.5386   -2.8175    0.5047 C   0  0  0  0  0  0  0  0  0  0  0  0
    1.8195   -3.9317    0.5711 N   0  0  0  0  0  0  0  0  0  0  0  0
    0.4894   -3.8642    0.4045 C   0  0  0  0  0  0  0  0  0  0  0  0
   -0.1772   -2.6903    0.1660 C   0  0  0  0  0  0  0  0  0  0  0  0
   -1.6769   -2.6722   -0.0147 C   0  0  0  0  0  0  0  0  0  0  0  0
   -2.2739   -3.7873   -0.6020 C   0  0  0  0  0  0  0  0  0  0  0  0
   -4.0757   -3.3774   -0.6323 S   0  0  0  0  0  0  0  0  0  0  0  0
   -3.7898   -1.7139    0.1702 C   0  0  0  0  0  0  0  0  0  0  0  0
   -4.9080   -0.8349    0.4426 C   0  0  0  0  0  0  0  0  0  0  0  0
   -6.0737   -1.1902    0.1389 O   0  0  0  0  0  0  0  0  0  0  0  0
   -4.7604    0.4312    1.0460 N   0  0  0  0  0  0  0  0  0  0  0  0
   -5.8382    1.3272    1.3337 C   0  0  0  0  0  0  0  0  0  0  0  0
   -6.6081    1.7418    0.1234 C   0  0  0  0  0  0  0  0  0  0  0  0
   -5.8396    2.4780   -0.9210 C   0  0  0  0  0  0  0  0  0  0  0  0
   -4.6892    1.7368   -1.5321 C   0  0  0  0  0  0  0  0  0  0  0  0
   -6.7663    2.8790   -2.0742 C   0  0  0  0  0  0  0  0  0  0  0  0
   -2.4794   -1.6593    0.3548 C   0  0  0  0  0  0  0  0  0  0  0  0
    0.5474   -1.5273    0.0934 C   0  0  0  0  0  0  0  0  0  0  0  0
    1.9350   -1.6074    0.2685 C   0  0  0  0  0  0  0  0  0  0  0  0
    2.9183   -0.6908    0.2607 N   0  0  0  0  0  0  0  0  0  0  0  0
    5.5266    0.6976    0.3715 C   0  0  0  0  0  0  0  0  0  0  0  0
    6.7768    1.3131    0.4355 C   0  0  0  0  0  0  0  0  0  0  0  0
    8.7003    3.1670    1.3034 H   0  0  0  0  0  0  0  0  0  0  0  0
    8.9609    2.8819   -0.4854 H   0  0  0  0  0  0  0  0  0  0  0  0
   10.3570    2.8087    0.6147 H   0  0  0  0  0  0  0  0  0  0  0  0
    8.6386   -1.4301    1.0559 H   0  0  0  0  0  0  0  0  0  0  0  0
    6.4599   -2.4519    0.9373 H   0  0  0  0  0  0  0  0  0  0  0  0
   -0.0935   -4.7718    0.4587 H   0  0  0  0  0  0  0  0  0  0  0  0
   -1.8712   -4.7071   -0.9773 H   0  0  0  0  0  0  0  0  0  0  0  0
   -3.7810    0.6990    1.2970 H   0  0  0  0  0  0  0  0  0  0  0  0
   -6.5728    0.8648    2.0455 H   0  0  0  0  0  0  0  0  0  0  0  0
   -5.4584    2.2363    1.8490 H   0  0  0  0  0  0  0  0  0  0  0  0
   -7.0948    0.8516   -0.3804 H   0  0  0  0  0  0  0  0  0  0  0  0
   -7.4947    2.3884    0.3987 H   0  0  0  0  0  0  0  0  0  0  0  0
   -5.4779    3.4640   -0.5212 H   0  0  0  0  0  0  0  0  0  0  0  0
   -4.3025    2.2877   -2.4334 H   0  0  0  0  0  0  0  0  0  0  0  0
   -5.0199    0.7558   -1.9371 H   0  0  0  0  0  0  0  0  0  0  0  0
   -3.8347    1.5794   -0.8766 H   0  0  0  0  0  0  0  0  0  0  0  0
   -6.6692    2.1137   -2.8768 H   0  0  0  0  0  0  0  0  0  0  0  0
   -6.4828    3.8464   -2.5092 H   0  0  0  0  0  0  0  0  0  0  0  0
   -7.8136    2.9363   -1.7530 H   0  0  0  0  0  0  0  0  0  0  0  0
   -2.0285   -0.7362    0.8351 H   0  0  0  0  0  0  0  0  0  0  0  0
    0.0847   -0.5887   -0.0891 H   0  0  0  0  0  0  0  0  0  0  0  0
    2.7628    0.3401    0.1017 H   0  0  0  0  0  0  0  0  0  0  0  0
    4.6460    1.2865    0.1796 H   0  0  0  0  0  0  0  0  0  0  0  0
    6.8184    2.3644    0.2896 H   0  0  0  0  0  0  0  0  0  0  0  0
  1  2  1  0
  2  3  1  0
  3  4  2  0
  4  5  1  0
  5  6  2  0
  6  7  1  0
  7  8  2  0
  8  9  1  0
  9 10  2  0
 10 11  1  0
 11 12  2  0
 12 13  1  0
 13 14  2  0
 14 15  1  0
 15 16  1  0
 16 17  1  0
 17 18  2  0
 17 19  1  0
 19 20  1  0
 20 21  1  0
 21 22  1  0
 22 23  1  0
 22 24  1  0
 16 25  2  0
 12 26  1  0
 26 27  2  0
 27 28  1  0
  6 29  1  0
 29 30  2  0
 30  3  1  0
 28  7  1  0
 27  9  1  0
 25 13  1  0
  1 31  1  0
  1 32  1  0
  1 33  1  0
  4 34  1  0
  5 35  1  0
 11 36  1  0
 14 37  1  0
 19 38  1  0
 20 39  1  0
 20 40  1  0
 21 41  1  0
 21 42  1  0
 22 43  1  0
 23 44  1  0
 23 45  1  0
 23 46  1  0
 24 47  1  0
 24 48  1  0
 24 49  1  0
 25 50  1  0
 26 51  1  0
 28 52  1  0
 29 53  1  0
 30 54  1  0
M  END
$$$$
