@<TRIPOS>MOLECULE
*****
 60 62 0 0 0
SMALL
GASTEIGER

@<TRIPOS>ATOM
      1 N          -8.0821    0.6781    0.4639 N.3     1  UNL1       -0.3300
      2 C          -7.4304    1.7815   -0.1831 C.3     1  UNL1       -0.0069
      3 C          -5.9220    1.6446   -0.1715 C.3     1  UNL1       -0.0406
      4 C          -5.5178    0.3932   -0.8831 C.3     1  UNL1       -0.0519
      5 C          -4.0162    0.2141   -0.8987 C.3     1  UNL1       -0.0520
      6 C          -3.4547    0.1338    0.4909 C.3     1  UNL1       -0.0411
      7 C          -1.9356   -0.0497    0.3836 C.3     1  UNL1        0.0065
      8 C          -1.5623   -1.2859   -0.3530 C.3     1  UNL1       -0.0288
      9 C          -2.0485   -2.5710    0.2354 C.3     1  UNL1       -0.0059
     10 N          -3.4577   -2.7163    0.3559 N.3     1  UNL1       -0.3299
     11 S          -1.1216    0.0807    1.9292 S.3     1  UNL1       -0.1547
     12 C           0.5715   -0.3424    2.0263 C.3     1  UNL1        0.0229
     13 C           1.5388    0.5595    1.3936 C.3     1  UNL1        0.0986
     14 O           2.8803    0.0147    1.6800 O.3     1  UNL1       -0.3471
     15 C           3.6737    0.9968    1.0950 C.3     1  UNL1        0.1666
     16 N           5.0371    0.5739    0.9291 N.ar    1  UNL1       -0.2855
     17 C           6.0872    0.8708    1.7345 C.ar    1  UNL1        0.1004
     18 N           7.2154    0.3129    1.2879 N.ar    1  UNL1       -0.2306
     19 C           6.8923   -0.3549    0.1778 C.ar    1  UNL1        0.1473
     20 C           7.7022   -1.1055   -0.6675 C.ar    1  UNL1        0.1472
     21 N           9.0921   -1.2581   -0.4174 N.pl3   1  UNL1       -0.3413
     22 N           7.0718   -1.6663   -1.7243 N.ar    1  UNL1       -0.2188
     23 C           5.7528   -1.5116   -1.9465 C.ar    1  UNL1        0.1205
     24 N           4.9869   -0.7911   -1.1312 N.ar    1  UNL1       -0.2159
     25 C           5.5454   -0.2027   -0.0578 C.ar    1  UNL1        0.1674
     26 C           2.9955    1.4104   -0.1638 C.3     1  UNL1        0.1285
     27 O           2.5372    2.7170   -0.0239 O.3     1  UNL1       -0.3847
     28 C           1.7139    0.5319   -0.0939 C.3     1  UNL1        0.1121
     29 O           0.7458    1.0639   -0.8709 O.3     1  UNL1       -0.3865
     30 H          -7.4236    0.0067    0.8831 H       1  UNL1        0.1182
     31 H          -8.8300    0.2392   -0.1118 H       1  UNL1        0.1182
     32 H          -7.7125    2.7101    0.3452 H       1  UNL1        0.0422
     33 H          -7.8012    1.8487   -1.2289 H       1  UNL1        0.0422
     34 H          -5.4777    2.5022   -0.7095 H       1  UNL1        0.0277
     35 H          -5.5545    1.6190    0.8609 H       1  UNL1        0.0277
     36 H          -5.9497   -0.5265   -0.4449 H       1  UNL1        0.0266
     37 H          -5.8511    0.4618   -1.9494 H       1  UNL1        0.0266
     38 H          -3.8084   -0.6755   -1.5206 H       1  UNL1        0.0266
     39 H          -3.5529    1.1334   -1.3659 H       1  UNL1        0.0266
     40 H          -3.9388   -0.5554    1.1689 H       1  UNL1        0.0276
     41 H          -3.5728    1.1670    0.9335 H       1  UNL1        0.0276
     42 H          -1.6605    0.8327   -0.2720 H       1  UNL1        0.0412
     43 H          -0.4458   -1.3527   -0.3401 H       1  UNL1        0.0288
     44 H          -1.7988   -1.2165   -1.4564 H       1  UNL1        0.0288
     45 H          -1.6961   -3.3871   -0.4611 H       1  UNL1        0.0422
     46 H          -1.5768   -2.8055    1.2054 H       1  UNL1        0.0422
     47 H          -3.7944   -3.0902    1.2585 H       1  UNL1        0.1182
     48 H          -3.9588   -3.0334   -0.4810 H       1  UNL1        0.1182
     49 H           0.8749   -0.4046    3.1372 H       1  UNL1        0.0403
     50 H           0.7686   -1.3961    1.6213 H       1  UNL1        0.0403
     51 H           1.5994    1.5665    1.8144 H       1  UNL1        0.0632
     52 H           3.6725    1.8416    1.8484 H       1  UNL1        0.0866
     53 H           5.9694    1.4919    2.6224 H       1  UNL1        0.1030
     54 H           9.4470   -1.8094    0.3771 H       1  UNL1        0.1438
     55 H           9.7766   -0.7997   -1.0543 H       1  UNL1        0.1438
     56 H           5.3557   -2.0134   -2.8347 H       1  UNL1        0.1048
     57 H           3.5385    1.2296   -1.0837 H       1  UNL1        0.0665
     58 H           2.9135    3.1737    0.7691 H       1  UNL1        0.2101
     59 H           1.9605   -0.4924   -0.4470 H       1  UNL1        0.0647
     60 H           1.0364    1.6121   -1.6167 H       1  UNL1        0.2100
@<TRIPOS>BOND
     1     1     2    1
     2     2     3    1
     3     3     4    1
     4     4     5    1
     5     5     6    1
     6     6     7    1
     7     7     8    1
     8     8     9    1
     9     9    10    1
    10     7    11    1
    11    11    12    1
    12    12    13    1
    13    13    14    1
    14    14    15    1
    15    15    16    1
    16    16    17   ar
    17    17    18   ar
    18    18    19   ar
    19    19    20   ar
    20    20    21    1
    21    20    22   ar
    22    22    23   ar
    23    23    24   ar
    24    24    25   ar
    25    15    26    1
    26    26    27    1
    27    26    28    1
    28    28    29    1
    29    28    13    1
    30    25    16   ar
    31    25    19   ar
    32     1    30    1
    33     1    31    1
    34     2    32    1
    35     2    33    1
    36     3    34    1
    37     3    35    1
    38     4    36    1
    39     4    37    1
    40     5    38    1
    41     5    39    1
    42     6    40    1
    43     6    41    1
    44     7    42    1
    45     8    43    1
    46     8    44    1
    47     9    45    1
    48     9    46    1
    49    10    47    1
    50    10    48    1
    51    12    49    1
    52    12    50    1
    53    13    51    1
    54    15    52    1
    55    17    53    1
    56    21    54    1
    57    21    55    1
    58    23    56    1
    59    26    57    1
    60    27    58    1
    61    28    59    1
    62    29    60    1
