
     RDKit          3D

 80 85  0  0  0  0  0  0  0  0999 V2000
    4.2522   -1.6485    1.1255 C   0  0  0  0  0  0  0  0  0  0  0  0
    4.2524   -0.9096   -0.1697 C   0  0  0  0  0  0  0  0  0  0  0  0
    5.3464   -0.2139   -0.5526 N   0  0  0  0  0  0  0  0  0  0  0  0
    5.4015    0.4758   -1.7212 C   0  0  0  0  0  0  0  0  0  0  0  0
    6.5403    1.1828   -2.0898 O   0  0  0  0  0  0  0  0  0  0  0  0
    7.6534    1.1921   -1.2598 C   0  0  0  0  0  0  0  0  0  0  0  0
    7.8078    2.1427   -0.2773 C   0  0  0  0  0  0  0  0  0  0  0  0
    8.9399    2.1133    0.5319 C   0  0  0  0  0  0  0  0  0  0  0  0
    9.9263    1.1657    0.3944 C   0  0  0  0  0  0  0  0  0  0  0  0
   11.1114    1.1497    1.2573 C   0  0  0  0  0  0  0  0  0  0  0  0
   11.9821    0.2678    1.0936 O   0  0  0  0  0  0  0  0  0  0  0  0
   11.3226    2.0689    2.2566 O   0  0  0  0  0  0  0  0  0  0  0  0
    9.7638    0.2118   -0.5974 C   0  0  0  0  0  0  0  0  0  0  0  0
    8.6440    0.2401   -1.3984 C   0  0  0  0  0  0  0  0  0  0  0  0
    4.2862    0.4446   -2.5210 C   0  0  0  0  0  0  0  0  0  0  0  0
    3.1580   -0.2694   -2.1326 C   0  0  0  0  0  0  0  0  0  0  0  0
    3.1147   -0.9648   -0.9453 C   0  0  0  0  0  0  0  0  0  0  0  0
    1.9267   -1.7134   -0.5469 C   0  0  0  0  0  0  0  0  0  0  0  0
    1.1161   -1.0774    0.4737 N   0  0  0  0  0  0  0  0  0  0  0  0
    0.5781    0.1765    0.0938 C   0  0  0  0  0  0  0  0  0  0  0  0
   -0.7621    0.1330   -0.6030 C   0  0  0  0  0  0  0  0  0  0  0  0
   -1.7417   -0.7643    0.0965 C   0  0  0  0  0  0  0  0  0  0  0  0
   -3.0052   -0.1919    0.4009 N   0  0  0  0  0  0  0  0  0  0  0  0
   -3.2746    0.9645    1.1817 C   0  0  0  0  0  0  0  0  0  0  0  0
   -2.3949    1.5848    1.8280 O   0  0  0  0  0  0  0  0  0  0  0  0
   -4.6821    1.2722    1.0934 N   0  0  0  0  0  0  0  0  0  0  0  0
   -5.4610    2.0139    2.0266 C   0  0  0  0  0  0  0  0  0  0  0  0
   -6.1579    3.2006    1.4585 C   0  0  0  0  0  0  0  0  0  0  0  0
   -7.6755    3.1153    1.6624 C   0  0  0  0  0  0  0  0  0  0  0  0
   -8.0576    1.9156    1.0501 O   0  0  0  0  0  0  0  0  0  0  0  0
   -7.7257    0.8985    1.9171 C   0  0  0  0  0  0  0  0  0  0  0  0
   -6.4895    1.1167    2.7196 C   0  0  0  0  0  0  0  0  0  0  0  0
   -5.0652    0.6357   -0.1638 C   0  0  0  0  0  0  0  0  0  0  0  0
   -4.3109   -0.6721   -0.0210 C   0  0  1  0  0  0  0  0  0  0  0  0
   -4.3163   -1.5320   -1.1754 C   0  0  0  0  0  0  0  0  0  0  0  0
   -5.0621   -2.6851   -1.1812 C   0  0  0  0  0  0  0  0  0  0  0  0
   -5.1091   -3.5471   -2.2472 C   0  0  0  0  0  0  0  0  0  0  0  0
   -4.3759   -3.2484   -3.3690 C   0  0  0  0  0  0  0  0  0  0  0  0
   -3.6242   -2.1165   -3.4044 C   0  0  0  0  0  0  0  0  0  0  0  0
   -3.5860   -1.2440   -2.3058 C   0  0  0  0  0  0  0  0  0  0  0  0
   -1.0959   -1.3184    1.3783 C   0  0  0  0  0  0  0  0  0  0  0  0
    0.1454   -2.0232    0.9277 C   0  0  0  0  0  0  0  0  0  0  0  0
    3.5639   -1.1577    1.8487 H   0  0  0  0  0  0  0  0  0  0  0  0
    4.0019   -2.7048    0.9851 H   0  0  0  0  0  0  0  0  0  0  0  0
    5.2706   -1.5833    1.5747 H   0  0  0  0  0  0  0  0  0  0  0  0
    7.0562    2.9058   -0.1356 H   0  0  0  0  0  0  0  0  0  0  0  0
    9.0463    2.8678    1.3009 H   0  0  0  0  0  0  0  0  0  0  0  0
   11.6625    1.7832    3.1890 H   0  0  0  0  0  0  0  0  0  0  0  0
   10.5466   -0.5200   -0.6879 H   0  0  0  0  0  0  0  0  0  0  0  0
    8.5054   -0.4932   -2.1694 H   0  0  0  0  0  0  0  0  0  0  0  0
    4.3284    0.9933   -3.4521 H   0  0  0  0  0  0  0  0  0  0  0  0
    2.3026   -0.2778   -2.7734 H   0  0  0  0  0  0  0  0  0  0  0  0
    1.2354   -1.9266   -1.3996 H   0  0  0  0  0  0  0  0  0  0  0  0
    2.2244   -2.7406   -0.1829 H   0  0  0  0  0  0  0  0  0  0  0  0
    1.2903    0.6352   -0.6549 H   0  0  0  0  0  0  0  0  0  0  0  0
    0.5775    0.9129    0.9416 H   0  0  0  0  0  0  0  0  0  0  0  0
   -0.5803   -0.2361   -1.6319 H   0  0  0  0  0  0  0  0  0  0  0  0
   -1.1445    1.1519   -0.6836 H   0  0  0  0  0  0  0  0  0  0  0  0
   -1.8938   -1.6625   -0.5365 H   0  0  0  0  0  0  0  0  0  0  0  0
   -4.7761    2.3294    2.8690 H   0  0  0  0  0  0  0  0  0  0  0  0
   -6.0061    3.3580    0.3834 H   0  0  0  0  0  0  0  0  0  0  0  0
   -5.8499    4.1178    2.0354 H   0  0  0  0  0  0  0  0  0  0  0  0
   -8.0888    3.9879    1.0864 H   0  0  0  0  0  0  0  0  0  0  0  0
   -7.9507    3.1451    2.7184 H   0  0  0  0  0  0  0  0  0  0  0  0
   -7.7469   -0.0948    1.3963 H   0  0  0  0  0  0  0  0  0  0  0  0
   -8.5798    0.8315    2.6564 H   0  0  0  0  0  0  0  0  0  0  0  0
   -6.0539    0.1336    2.9741 H   0  0  0  0  0  0  0  0  0  0  0  0
   -6.7347    1.5957    3.7061 H   0  0  0  0  0  0  0  0  0  0  0  0
   -4.6205    1.2859   -0.9647 H   0  0  0  0  0  0  0  0  0  0  0  0
   -6.1340    0.4779   -0.2802 H   0  0  0  0  0  0  0  0  0  0  0  0
   -4.7464   -1.1559    0.9032 H   0  0  0  0  0  0  0  0  0  0  0  0
   -5.6407   -2.9243   -0.3014 H   0  0  0  0  0  0  0  0  0  0  0  0
   -5.7215   -4.4458   -2.1870 H   0  0  0  0  0  0  0  0  0  0  0  0
   -4.4232   -3.9480   -4.2137 H   0  0  0  0  0  0  0  0  0  0  0  0
   -3.0580   -1.8905   -4.2763 H   0  0  0  0  0  0  0  0  0  0  0  0
   -2.9733   -0.3788   -2.4146 H   0  0  0  0  0  0  0  0  0  0  0  0
   -1.7578   -2.0752    1.8444 H   0  0  0  0  0  0  0  0  0  0  0  0
   -0.8831   -0.4624    2.0274 H   0  0  0  0  0  0  0  0  0  0  0  0
   -0.0971   -2.7027    0.0838 H   0  0  0  0  0  0  0  0  0  0  0  0
    0.5536   -2.6751    1.7303 H   0  0  0  0  0  0  0  0  0  0  0  0
  1  2  1  0
  2  3  2  0
  3  4  1  0
  4  5  1  0
  5  6  1  0
  6  7  2  0
  7  8  1  0
  8  9  2  0
  9 10  1  0
 10 11  2  0
 10 12  1  0
  9 13  1  0
 13 14  2  0
  4 15  2  0
 15 16  1  0
 16 17  2  0
 17 18  1  0
 18 19  1  0
 19 20  1  0
 20 21  1  0
 21 22  1  0
 22 23  1  0
 23 24  1  0
 24 25  2  0
 24 26  1  0
 26 27  1  0
 27 28  1  0
 28 29  1  0
 29 30  1  0
 30 31  1  0
 31 32  1  0
 26 33  1  0
 33 34  1  0
 34 35  1  0
 35 36  2  0
 36 37  1  0
 37 38  2  0
 38 39  1  0
 39 40  2  0
 22 41  1  0
 41 42  1  0
 17  2  1  0
 42 19  1  0
 14  6  1  0
 34 23  1  0
 40 35  1  0
 32 27  1  0
  1 43  1  0
  1 44  1  0
  1 45  1  0
  7 46  1  0
  8 47  1  0
 12 48  1  0
 13 49  1  0
 14 50  1  0
 15 51  1  0
 16 52  1  0
 18 53  1  0
 18 54  1  0
 20 55  1  0
 20 56  1  0
 21 57  1  0
 21 58  1  0
 22 59  1  0
 27 60  1  0
 28 61  1  0
 28 62  1  0
 29 63  1  0
 29 64  1  0
 31 65  1  0
 31 66  1  0
 32 67  1  0
 32 68  1  0
 33 69  1  0
 33 70  1  0
 34 71  1  1
 36 72  1  0
 37 73  1  0
 38 74  1  0
 39 75  1  0
 40 76  1  0
 41 77  1  0
 41 78  1  0
 42 79  1  0
 42 80  1  0
M  END
$$$$
