@<TRIPOS>MOLECULE
*****
 80 85 0 0 0
SMALL
GASTEIGER

@<TRIPOS>ATOM
      1 C           4.2522   -1.6485    1.1255 C.3     1  UNL1       -0.0219
      2 C           4.2524   -0.9096   -0.1697 C.ar    1  UNL1        0.0464
      3 N           5.3464   -0.2139   -0.5526 N.ar    1  UNL1       -0.2175
      4 C           5.4015    0.4758   -1.7212 C.ar    1  UNL1        0.2207
      5 O           6.5403    1.1828   -2.0898 O.3     1  UNL1       -0.4380
      6 C           7.6534    1.1921   -1.2598 C.ar    1  UNL1        0.1304
      7 C           7.8078    2.1427   -0.2773 C.ar    1  UNL1       -0.0185
      8 C           8.9399    2.1133    0.5319 C.ar    1  UNL1       -0.0443
      9 C           9.9263    1.1657    0.3944 C.ar    1  UNL1        0.0591
     10 C          11.1114    1.1497    1.2573 C.2     1  UNL1        0.3368
     11 O          11.9821    0.2678    1.0936 O.2     1  UNL1       -0.2451
     12 O          11.3226    2.0689    2.2566 O.3     1  UNL1       -0.4771
     13 C           9.7638    0.2118   -0.5974 C.ar    1  UNL1       -0.0443
     14 C           8.6440    0.2401   -1.3984 C.ar    1  UNL1       -0.0185
     15 C           4.2862    0.4446   -2.5210 C.ar    1  UNL1        0.0007
     16 C           3.1580   -0.2694   -2.1326 C.ar    1  UNL1       -0.0506
     17 C           3.1147   -0.9648   -0.9453 C.ar    1  UNL1       -0.0121
     18 C           1.9267   -1.7134   -0.5469 C.3     1  UNL1        0.0257
     19 N           1.1161   -1.0774    0.4737 N.3     1  UNL1       -0.2980
     20 C           0.5781    0.1765    0.0938 C.3     1  UNL1        0.0009
     21 C          -0.7621    0.1330   -0.6030 C.3     1  UNL1       -0.0213
     22 C          -1.7417   -0.7643    0.0965 C.3     1  UNL1        0.0305
     23 N          -3.0052   -0.1919    0.4009 N.am    1  UNL1       -0.2738
     24 C          -3.2746    0.9645    1.1817 C.2     1  UNL1        0.3059
     25 O          -2.3949    1.5848    1.8280 O.2     1  UNL1       -0.2524
     26 N          -4.6821    1.2722    1.0934 N.am    1  UNL1       -0.2802
     27 C          -5.4610    2.0139    2.0266 C.3     1  UNL1        0.0317
     28 C          -6.1579    3.2006    1.4585 C.3     1  UNL1       -0.0106
     29 C          -7.6755    3.1153    1.6624 C.3     1  UNL1        0.0493
     30 O          -8.0576    1.9156    1.0501 O.3     1  UNL1       -0.3796
     31 C          -7.7257    0.8985    1.9171 C.3     1  UNL1        0.0493
     32 C          -6.4895    1.1167    2.7196 C.3     1  UNL1       -0.0106
     33 C          -5.0652    0.6357   -0.1638 C.3     1  UNL1        0.0393
     34 C          -4.3109   -0.6721   -0.0210 C.3     1  UNL1        0.0687
     35 C          -4.3163   -1.5320   -1.1754 C.ar    1  UNL1       -0.0255
     36 C          -5.0621   -2.6851   -1.1812 C.ar    1  UNL1       -0.0567
     37 C          -5.1091   -3.5471   -2.2472 C.ar    1  UNL1       -0.0614
     38 C          -4.3759   -3.2484   -3.3690 C.ar    1  UNL1       -0.0617
     39 C          -3.6242   -2.1165   -3.4044 C.ar    1  UNL1       -0.0614
     40 C          -3.5860   -1.2440   -2.3058 C.ar    1  UNL1       -0.0567
     41 C          -1.0959   -1.3184    1.3783 C.3     1  UNL1       -0.0213
     42 C           0.1454   -2.0232    0.9277 C.3     1  UNL1        0.0009
     43 H           3.5639   -1.1577    1.8487 H       1  UNL1        0.0293
     44 H           4.0019   -2.7048    0.9851 H       1  UNL1        0.0293
     45 H           5.2706   -1.5833    1.5747 H       1  UNL1        0.0293
     46 H           7.0562    2.9058   -0.1356 H       1  UNL1        0.0654
     47 H           9.0463    2.8678    1.3009 H       1  UNL1        0.0627
     48 H          11.6625    1.7832    3.1890 H       1  UNL1        0.2954
     49 H          10.5466   -0.5200   -0.6879 H       1  UNL1        0.0627
     50 H           8.5054   -0.4932   -2.1694 H       1  UNL1        0.0654
     51 H           4.3284    0.9933   -3.4521 H       1  UNL1        0.0671
     52 H           2.3026   -0.2778   -2.7734 H       1  UNL1        0.0623
     53 H           1.2354   -1.9266   -1.3996 H       1  UNL1        0.0476
     54 H           2.2244   -2.7406   -0.1829 H       1  UNL1        0.0476
     55 H           1.2903    0.6352   -0.6549 H       1  UNL1        0.0427
     56 H           0.5775    0.9129    0.9416 H       1  UNL1        0.0427
     57 H          -0.5803   -0.2361   -1.6319 H       1  UNL1        0.0295
     58 H          -1.1445    1.1519   -0.6836 H       1  UNL1        0.0295
     59 H          -1.8938   -1.6625   -0.5365 H       1  UNL1        0.0502
     60 H          -4.7761    2.3294    2.8690 H       1  UNL1        0.0502
     61 H          -6.0061    3.3580    0.3834 H       1  UNL1        0.0305
     62 H          -5.8499    4.1178    2.0354 H       1  UNL1        0.0305
     63 H          -8.0888    3.9879    1.0864 H       1  UNL1        0.0560
     64 H          -7.9507    3.1451    2.7184 H       1  UNL1        0.0560
     65 H          -7.7469   -0.0948    1.3963 H       1  UNL1        0.0560
     66 H          -8.5798    0.8315    2.6564 H       1  UNL1        0.0560
     67 H          -6.0539    0.1336    2.9741 H       1  UNL1        0.0305
     68 H          -6.7347    1.5957    3.7061 H       1  UNL1        0.0305
     69 H          -4.6205    1.2859   -0.9647 H       1  UNL1        0.0487
     70 H          -6.1340    0.4779   -0.2802 H       1  UNL1        0.0487
     71 H          -4.7464   -1.1559    0.9032 H       1  UNL1        0.0567
     72 H          -5.6407   -2.9243   -0.3014 H       1  UNL1        0.0621
     73 H          -5.7215   -4.4458   -2.1870 H       1  UNL1        0.0618
     74 H          -4.4232   -3.9480   -4.2137 H       1  UNL1        0.0618
     75 H          -3.0580   -1.8905   -4.2763 H       1  UNL1        0.0618
     76 H          -2.9733   -0.3788   -2.4146 H       1  UNL1        0.0621
     77 H          -1.7578   -2.0752    1.8444 H       1  UNL1        0.0295
     78 H          -0.8831   -0.4624    2.0274 H       1  UNL1        0.0295
     79 H          -0.0971   -2.7027    0.0838 H       1  UNL1        0.0427
     80 H           0.5536   -2.6751    1.7303 H       1  UNL1        0.0427
@<TRIPOS>BOND
     1     1     2    1
     2     2     3   ar
     3     3     4   ar
     4     4     5    1
     5     5     6    1
     6     6     7   ar
     7     7     8   ar
     8     8     9   ar
     9     9    10    1
    10    10    11    2
    11    10    12    1
    12     9    13   ar
    13    13    14   ar
    14     4    15   ar
    15    15    16   ar
    16    16    17   ar
    17    17    18    1
    18    18    19    1
    19    19    20    1
    20    20    21    1
    21    21    22    1
    22    22    23    1
    23    23    24   am
    24    24    25    2
    25    24    26   am
    26    26    27    1
    27    27    28    1
    28    28    29    1
    29    29    30    1
    30    30    31    1
    31    31    32    1
    32    26    33    1
    33    33    34    1
    34    34    35    1
    35    35    36   ar
    36    36    37   ar
    37    37    38   ar
    38    38    39   ar
    39    39    40   ar
    40    22    41    1
    41    41    42    1
    42    17     2   ar
    43    42    19    1
    44    14     6   ar
    45    34    23    1
    46    40    35   ar
    47    32    27    1
    48     1    43    1
    49     1    44    1
    50     1    45    1
    51     7    46    1
    52     8    47    1
    53    12    48    1
    54    13    49    1
    55    14    50    1
    56    15    51    1
    57    16    52    1
    58    18    53    1
    59    18    54    1
    60    20    55    1
    61    20    56    1
    62    21    57    1
    63    21    58    1
    64    22    59    1
    65    27    60    1
    66    28    61    1
    67    28    62    1
    68    29    63    1
    69    29    64    1
    70    31    65    1
    71    31    66    1
    72    32    67    1
    73    32    68    1
    74    33    69    1
    75    33    70    1
    76    34    71    1
    77    36    72    1
    78    37    73    1
    79    38    74    1
    80    39    75    1
    81    40    76    1
    82    41    77    1
    83    41    78    1
    84    42    79    1
    85    42    80    1
