
     RDKit          3D

 18 19  0  0  0  0  0  0  0  0999 V2000
    3.5836   -1.6921   -0.2451 O   0  0  0  0  0  0  0  0  0  0  0  0
    2.5392   -0.9757   -0.0854 C   0  0  0  0  0  0  0  0  0  0  0  0
    2.7091    0.3232    0.3556 C   0  0  0  0  0  0  0  0  0  0  0  0
    1.6126    1.1385    0.5443 C   0  0  0  0  0  0  0  0  0  0  0  0
    0.3752    0.5834    0.2704 C   0  0  0  0  0  0  0  0  0  0  0  0
   -0.7930    1.3305    0.4312 C   0  0  0  0  0  0  0  0  0  0  0  0
   -2.0296    0.7965    0.1644 C   0  0  0  0  0  0  0  0  0  0  0  0
   -2.1243   -0.5073   -0.2727 C   0  0  0  0  0  0  0  0  0  0  0  0
   -3.3627   -1.0951   -0.5574 O   0  0  0  0  0  0  0  0  0  0  0  0
   -0.9989   -1.2855   -0.4469 C   0  0  0  0  0  0  0  0  0  0  0  0
    0.2405   -0.7175   -0.1687 C   0  0  0  0  0  0  0  0  0  0  0  0
    1.3479   -1.4276   -0.3218 O   0  0  0  0  0  0  0  0  0  0  0  0
    3.6856    0.7165    0.5570 H   0  0  0  0  0  0  0  0  0  0  0  0
    1.6710    2.1615    0.8860 H   0  0  0  0  0  0  0  0  0  0  0  0
   -0.6403    2.3505    0.7790 H   0  0  0  0  0  0  0  0  0  0  0  0
   -2.8925    1.4223    0.3076 H   0  0  0  0  0  0  0  0  0  0  0  0
   -3.8712   -0.8125   -1.4090 H   0  0  0  0  0  0  0  0  0  0  0  0
   -1.0522   -2.3096   -0.7887 H   0  0  0  0  0  0  0  0  0  0  0  0
  1  2  2  0
  2  3  1  0
  3  4  2  0
  4  5  1  0
  5  6  2  0
  6  7  1  0
  7  8  2  0
  8  9  1  0
  8 10  1  0
 10 11  2  0
 11 12  1  0
 12  2  1  0
 11  5  1  0
  3 13  1  0
  4 14  1  0
  6 15  1  0
  7 16  1  0
  9 17  1  0
 10 18  1  0
M  END
$$$$
