@<TRIPOS>MOLECULE
*****
 18 19 0 0 0
SMALL
GASTEIGER

@<TRIPOS>ATOM
      1 O           3.5836   -1.6921   -0.2451 O.2     1  UNL1       -0.2452
      2 C           2.5392   -0.9757   -0.0854 C.ar    1  UNL1        0.3372
      3 C           2.7091    0.3232    0.3556 C.ar    1  UNL1        0.0236
      4 C           1.6126    1.1385    0.5443 C.ar    1  UNL1       -0.0443
      5 C           0.3752    0.5834    0.2704 C.ar    1  UNL1        0.0178
      6 C          -0.7930    1.3305    0.4312 C.ar    1  UNL1       -0.0476
      7 C          -2.0296    0.7965    0.1644 C.ar    1  UNL1       -0.0194
      8 C          -2.1243   -0.5073   -0.2727 C.ar    1  UNL1        0.1204
      9 O          -3.3627   -1.0951   -0.5574 O.3     1  UNL1       -0.5066
     10 C          -0.9989   -1.2855   -0.4469 C.ar    1  UNL1        0.0229
     11 C           0.2405   -0.7175   -0.1687 C.ar    1  UNL1        0.1425
     12 O           1.3479   -1.4276   -0.3218 O.2     1  UNL1       -0.4220
     13 H           3.6856    0.7165    0.5570 H       1  UNL1        0.0689
     14 H           1.6710    2.1615    0.8860 H       1  UNL1        0.0627
     15 H          -0.6403    2.3505    0.7790 H       1  UNL1        0.0626
     16 H          -2.8925    1.4223    0.3076 H       1  UNL1        0.0654
     17 H          -3.8712   -0.8125   -1.4090 H       1  UNL1        0.2921
     18 H          -1.0522   -2.3096   -0.7887 H       1  UNL1        0.0691
@<TRIPOS>BOND
     1     1     2    2
     2     2     3   ar
     3     3     4   ar
     4     4     5   ar
     5     5     6   ar
     6     6     7   ar
     7     7     8   ar
     8     8     9    1
     9     8    10   ar
    10    10    11   ar
    11    11    12   ar
    12    12     2   ar
    13    11     5   ar
    14     3    13    1
    15     4    14    1
    16     6    15    1
    17     7    16    1
    18     9    17    1
    19    10    18    1
