
     RDKit          3D

 49 51  0  0  0  0  0  0  0  0999 V2000
   -1.6708   -1.4040   -0.9985 C   0  0  2  0  0  0  0  0  0  0  0  0
   -1.2306   -2.6511   -0.5801 O   0  0  0  0  0  0  0  0  0  0  0  0
   -0.5103   -0.7884   -1.7355 C   0  0  0  0  0  0  0  0  0  0  0  0
    0.6744   -0.6626   -0.8930 N   0  0  0  0  0  0  0  0  0  0  0  0
    1.8417   -0.0820   -1.5048 C   0  0  0  0  0  0  0  0  0  0  0  0
    1.5948    0.2212   -2.7018 O   0  0  0  0  0  0  0  0  0  0  0  0
    3.0881    0.0903   -0.7653 C   0  0  0  0  0  0  0  0  0  0  0  0
    3.5002   -0.2118    0.5222 C   0  0  0  0  0  0  0  0  0  0  0  0
    4.8212    0.1989    0.6417 C   0  0  0  0  0  0  0  0  0  0  0  0
    5.6660    0.1126    1.7295 C   0  0  0  0  0  0  0  0  0  0  0  0
    6.9657    0.6085    1.5779 C   0  0  0  0  0  0  0  0  0  0  0  0
    8.0441    0.4964    2.9724 Cl  0  0  0  0  0  0  0  0  0  0  0  0
    7.3755    1.1592    0.3846 C   0  0  0  0  0  0  0  0  0  0  0  0
    6.4722    1.2160   -0.6748 C   0  0  0  0  0  0  0  0  0  0  0  0
    5.1807    0.7410   -0.5756 C   0  0  0  0  0  0  0  0  0  0  0  0
    4.1289    0.6687   -1.4111 N   0  0  0  0  0  0  0  0  0  0  0  0
   -2.1329   -0.6249    0.1045 N   0  0  0  0  0  0  0  0  0  0  0  0
   -3.2575   -1.2075    0.7758 C   0  0  0  0  0  0  0  0  0  0  0  0
   -3.0347   -2.4494    1.5423 C   0  0  0  0  0  0  0  0  0  0  0  0
   -4.2799   -2.8276    2.1142 O   0  0  0  0  0  0  0  0  0  0  0  0
   -2.3576    0.7591   -0.2376 C   0  0  0  0  0  0  0  0  0  0  0  0
   -3.4782    0.9589   -1.2385 C   0  0  0  0  0  0  0  0  0  0  0  0
   -4.6684    1.4131   -0.4110 C   0  0  0  0  0  0  0  0  0  0  0  0
   -4.1186    1.9919    0.8723 C   0  0  0  0  0  0  0  0  0  0  0  0
   -2.6786    1.6054    0.9651 C   0  0  0  0  0  0  0  0  0  0  0  0
   -2.4711   -1.5434   -1.7480 H   0  0  0  0  0  0  0  0  0  0  0  0
   -0.4397   -2.6344   -0.0187 H   0  0  0  0  0  0  0  0  0  0  0  0
   -0.7466    0.1186   -2.3019 H   0  0  0  0  0  0  0  0  0  0  0  0
   -0.2255   -1.5639   -2.5009 H   0  0  0  0  0  0  0  0  0  0  0  0
    0.7191   -0.9685    0.1249 H   0  0  0  0  0  0  0  0  0  0  0  0
    2.8154   -0.6844    1.2134 H   0  0  0  0  0  0  0  0  0  0  0  0
    5.3251   -0.3215    2.6518 H   0  0  0  0  0  0  0  0  0  0  0  0
    8.4028    1.5424    0.2895 H   0  0  0  0  0  0  0  0  0  0  0  0
    6.8072    1.6459   -1.5902 H   0  0  0  0  0  0  0  0  0  0  0  0
    4.2129    1.0377   -2.4004 H   0  0  0  0  0  0  0  0  0  0  0  0
   -4.1037   -1.4266    0.0534 H   0  0  0  0  0  0  0  0  0  0  0  0
   -3.6894   -0.4509    1.4564 H   0  0  0  0  0  0  0  0  0  0  0  0
   -2.7080   -3.3373    1.0104 H   0  0  0  0  0  0  0  0  0  0  0  0
   -2.4043   -2.2121    2.4486 H   0  0  0  0  0  0  0  0  0  0  0  0
   -4.9849   -2.7604    1.4420 H   0  0  0  0  0  0  0  0  0  0  0  0
   -1.4443    1.1753   -0.7058 H   0  0  0  0  0  0  0  0  0  0  0  0
   -3.2442    1.7820   -1.9467 H   0  0  0  0  0  0  0  0  0  0  0  0
   -3.7082    0.0686   -1.8385 H   0  0  0  0  0  0  0  0  0  0  0  0
   -5.2649    2.2092   -0.9022 H   0  0  0  0  0  0  0  0  0  0  0  0
   -5.3814    0.5863   -0.2170 H   0  0  0  0  0  0  0  0  0  0  0  0
   -4.2034    3.1156    0.8664 H   0  0  0  0  0  0  0  0  0  0  0  0
   -4.7015    1.6859    1.7726 H   0  0  0  0  0  0  0  0  0  0  0  0
   -2.0550    2.5574    0.9485 H   0  0  0  0  0  0  0  0  0  0  0  0
   -2.4421    1.0464    1.8970 H   0  0  0  0  0  0  0  0  0  0  0  0
  1  2  1  0
  1  3  1  0
  3  4  1  0
  4  5  1  0
  5  6  2  0
  5  7  1  0
  7  8  2  0
  8  9  1  0
  9 10  2  0
 10 11  1  0
 11 12  1  0
 11 13  2  0
 13 14  1  0
 14 15  2  0
 15 16  1  0
  1 17  1  0
 17 18  1  0
 18 19  1  0
 19 20  1  0
 17 21  1  0
 21 22  1  0
 22 23  1  0
 23 24  1  0
 24 25  1  0
 16  7  1  0
 25 21  1  0
 15  9  1  0
  1 26  1  6
  2 27  1  0
  3 28  1  0
  3 29  1  0
  4 30  1  0
  8 31  1  0
 10 32  1  0
 13 33  1  0
 14 34  1  0
 16 35  1  0
 18 36  1  0
 18 37  1  0
 19 38  1  0
 19 39  1  0
 20 40  1  0
 21 41  1  0
 22 42  1  0
 22 43  1  0
 23 44  1  0
 23 45  1  0
 24 46  1  0
 24 47  1  0
 25 48  1  0
 25 49  1  0
M  END
$$$$
