
     RDKit          3D

 30 32  0  0  0  0  0  0  0  0999 V2000
    3.4110    0.6217   -0.6312 C   0  0  0  0  0  0  0  0  0  0  0  0
    2.5315   -0.5582   -0.4125 C   0  0  0  0  0  0  0  0  0  0  0  0
    1.2507   -0.4847   -0.8230 O   0  0  0  0  0  0  0  0  0  0  0  0
    0.3360   -0.4254    0.1566 C   0  0  1  0  0  0  0  0  0  0  0  0
    0.6765   -1.3380    1.2953 C   0  0  0  0  0  0  0  0  0  0  0  0
    2.4867   -1.0739    1.3359 S   0  0  0  0  0  0  0  0  0  0  0  0
    0.1115    1.0048    0.5783 C   0  0  0  0  0  0  0  0  0  0  0  0
   -1.2802    1.4158    0.4013 N   0  0  0  0  0  0  0  0  0  0  0  0
   -2.0840    0.5594    1.2219 C   0  0  0  0  0  0  0  0  0  0  0  0
   -2.0908   -0.8252    0.6464 C   0  0  0  0  0  0  0  0  0  0  0  0
   -0.9915   -0.9456   -0.3884 C   0  0  0  0  0  0  0  0  0  0  0  0
   -1.4298   -0.0725   -1.5564 C   0  0  0  0  0  0  0  0  0  0  0  0
   -1.5619    1.3266   -1.0076 C   0  0  0  0  0  0  0  0  0  0  0  0
    3.0666    1.5688   -0.2104 H   0  0  0  0  0  0  0  0  0  0  0  0
    4.3799    0.4033   -0.1118 H   0  0  0  0  0  0  0  0  0  0  0  0
    3.6645    0.7183   -1.6959 H   0  0  0  0  0  0  0  0  0  0  0  0
    3.0153   -1.4167   -0.9491 H   0  0  0  0  0  0  0  0  0  0  0  0
    0.5191   -2.3825    0.9994 H   0  0  0  0  0  0  0  0  0  0  0  0
    0.1894   -1.0304    2.2204 H   0  0  0  0  0  0  0  0  0  0  0  0
    0.6755    1.7175   -0.0682 H   0  0  0  0  0  0  0  0  0  0  0  0
    0.3925    1.1271    1.6535 H   0  0  0  0  0  0  0  0  0  0  0  0
   -1.6176    0.5499    2.2378 H   0  0  0  0  0  0  0  0  0  0  0  0
   -3.0791    1.0096    1.3395 H   0  0  0  0  0  0  0  0  0  0  0  0
   -2.0740   -1.6294    1.3961 H   0  0  0  0  0  0  0  0  0  0  0  0
   -3.0647   -0.9340    0.1038 H   0  0  0  0  0  0  0  0  0  0  0  0
   -0.9395   -2.0113   -0.6654 H   0  0  0  0  0  0  0  0  0  0  0  0
   -2.4434   -0.4383   -1.8525 H   0  0  0  0  0  0  0  0  0  0  0  0
   -0.7339   -0.1532   -2.4043 H   0  0  0  0  0  0  0  0  0  0  0  0
   -0.7779    1.9377   -1.5230 H   0  0  0  0  0  0  0  0  0  0  0  0
   -2.5384    1.7588   -1.2863 H   0  0  0  0  0  0  0  0  0  0  0  0
  1  2  1  0
  2  3  1  0
  4  3  1  6
  4  5  1  0
  5  6  1  0
  4  7  1  0
  7  8  1  0
  8  9  1  0
  9 10  1  0
 10 11  1  0
 11 12  1  0
 12 13  1  0
  6  2  1  0
 13  8  1  0
 11  4  1  0
  1 14  1  0
  1 15  1  0
  1 16  1  0
  2 17  1  0
  5 18  1  0
  5 19  1  0
  7 20  1  0
  7 21  1  0
  9 22  1  0
  9 23  1  0
 10 24  1  0
 10 25  1  0
 11 26  1  0
 12 27  1  0
 12 28  1  0
 13 29  1  0
 13 30  1  0
M  END
$$$$
