@<TRIPOS>MOLECULE
*****
 30 32 0 0 0
SMALL
GASTEIGER

@<TRIPOS>ATOM
      1 C           3.4110    0.6217   -0.6312 C.3     1  UNL1       -0.0292
      2 C           2.5315   -0.5582   -0.4125 C.3     1  UNL1        0.1022
      3 O           1.2507   -0.4847   -0.8230 O.3     1  UNL1       -0.3576
      4 C           0.3360   -0.4254    0.1566 C.3     1  UNL1        0.0954
      5 C           0.6765   -1.3380    1.2953 C.3     1  UNL1        0.0267
      6 S           2.4867   -1.0739    1.3359 S.3     1  UNL1       -0.1270
      7 C           0.1115    1.0048    0.5783 C.3     1  UNL1        0.0291
      8 N          -1.2802    1.4158    0.4013 N.3     1  UNL1       -0.2995
      9 C          -2.0840    0.5594    1.2219 C.3     1  UNL1       -0.0007
     10 C          -2.0908   -0.8252    0.6464 C.3     1  UNL1       -0.0346
     11 C          -0.9915   -0.9456   -0.3884 C.3     1  UNL1       -0.0075
     12 C          -1.4298   -0.0725   -1.5564 C.3     1  UNL1       -0.0346
     13 C          -1.5619    1.3266   -1.0076 C.3     1  UNL1       -0.0007
     14 H           3.0666    1.5688   -0.2104 H       1  UNL1        0.0263
     15 H           4.3799    0.4033   -0.1118 H       1  UNL1        0.0263
     16 H           3.6645    0.7183   -1.6959 H       1  UNL1        0.0263
     17 H           3.0153   -1.4167   -0.9491 H       1  UNL1        0.0710
     18 H           0.5191   -2.3825    0.9994 H       1  UNL1        0.0406
     19 H           0.1894   -1.0304    2.2204 H       1  UNL1        0.0406
     20 H           0.6755    1.7175   -0.0682 H       1  UNL1        0.0455
     21 H           0.3925    1.1271    1.6535 H       1  UNL1        0.0455
     22 H          -1.6176    0.5499    2.2378 H       1  UNL1        0.0427
     23 H          -3.0791    1.0096    1.3395 H       1  UNL1        0.0427
     24 H          -2.0740   -1.6294    1.3961 H       1  UNL1        0.0281
     25 H          -3.0647   -0.9340    0.1038 H       1  UNL1        0.0281
     26 H          -0.9395   -2.0113   -0.6654 H       1  UNL1        0.0330
     27 H          -2.4434   -0.4383   -1.8525 H       1  UNL1        0.0281
     28 H          -0.7339   -0.1532   -2.4043 H       1  UNL1        0.0281
     29 H          -0.7779    1.9377   -1.5230 H       1  UNL1        0.0427
     30 H          -2.5384    1.7588   -1.2863 H       1  UNL1        0.0427
@<TRIPOS>BOND
     1     1     2    1
     2     2     3    1
     3     4     3    1
     4     4     5    1
     5     5     6    1
     6     4     7    1
     7     7     8    1
     8     8     9    1
     9     9    10    1
    10    10    11    1
    11    11    12    1
    12    12    13    1
    13     6     2    1
    14    13     8    1
    15    11     4    1
    16     1    14    1
    17     1    15    1
    18     1    16    1
    19     2    17    1
    20     5    18    1
    21     5    19    1
    22     7    20    1
    23     7    21    1
    24     9    22    1
    25     9    23    1
    26    10    24    1
    27    10    25    1
    28    11    26    1
    29    12    27    1
    30    12    28    1
    31    13    29    1
    32    13    30    1
