@<TRIPOS>MOLECULE
*****
 41 44 0 0 0
SMALL
GASTEIGER

@<TRIPOS>ATOM
      1 C           3.8540   -3.3548    0.6539 C.3     1  UNL1       -0.0598
      2 C           2.6654   -2.4417    0.8661 C.3     1  UNL1       -0.0131
      3 C           2.7857   -1.2010    0.0650 C.ar    1  UNL1        0.0467
      4 C           1.8031   -0.2011    0.0967 C.ar    1  UNL1       -0.0142
      5 C           1.9049    0.9403   -0.6357 C.ar    1  UNL1        0.0783
      6 C           0.9722    2.0380   -0.6184 C.ar    1  UNL1        0.0271
      7 C           1.3051    3.3567   -1.0115 C.ar    1  UNL1        0.0133
      8 N           0.2380    4.1474   -0.9249 N.ar    1  UNL1       -0.3452
      9 C          -0.8154    3.4069   -0.4850 C.ar    1  UNL1        0.1388
     10 N          -2.0895    3.7307   -0.2513 N.ar    1  UNL1       -0.2369
     11 C          -2.9624    2.8015    0.1694 C.ar    1  UNL1        0.0377
     12 C          -2.5855    1.4939    0.3739 C.ar    1  UNL1        0.0039
     13 C          -3.4865    0.4474    0.8275 C.ar    1  UNL1        0.0210
     14 C          -4.5655    0.6110    1.6702 C.ar    1  UNL1        0.0571
     15 N          -5.1352   -0.5983    1.8416 N.ar    1  UNL1       -0.1793
     16 N          -4.4805   -1.5182    1.1570 N.ar    1  UNL1       -0.2739
     17 C          -4.7720   -2.9345    1.0772 C.3     1  UNL1        0.0302
     18 C          -3.4600   -0.9071    0.5216 C.ar    1  UNL1        0.0329
     19 C          -1.2566    1.1569    0.1305 C.ar    1  UNL1       -0.0412
     20 C          -0.3489    2.1004   -0.2994 C.ar    1  UNL1        0.0284
     21 N           3.0463    1.0246   -1.3987 N.ar    1  UNL1       -0.2146
     22 C           3.9955    0.1143   -1.4606 C.ar    1  UNL1        0.2133
     23 N           5.1668    0.2243   -2.2552 N.pl3   1  UNL1       -0.3275
     24 N           3.8572   -1.0137   -0.7153 N.ar    1  UNL1       -0.2196
     25 H           4.6064   -2.7655    0.0655 H       1  UNL1        0.0233
     26 H           3.5980   -4.2201    0.0170 H       1  UNL1        0.0233
     27 H           4.3636   -3.6339    1.5883 H       1  UNL1        0.0233
     28 H           1.7050   -2.9625    0.6552 H       1  UNL1        0.0326
     29 H           2.6845   -2.1796    1.9657 H       1  UNL1        0.0326
     30 H           0.9989   -0.4215    0.7742 H       1  UNL1        0.0657
     31 H           2.2827    3.6776   -1.3352 H       1  UNL1        0.0814
     32 H           0.1442    5.1637   -1.1384 H       1  UNL1        0.1668
     33 H          -4.0159    3.0296    0.3722 H       1  UNL1        0.0836
     34 H          -4.9353    1.5128    2.1375 H       1  UNL1        0.0854
     35 H          -4.0132   -3.5373    1.6430 H       1  UNL1        0.0473
     36 H          -5.7467   -3.1446    1.5624 H       1  UNL1        0.0473
     37 H          -4.8545   -3.2877    0.0286 H       1  UNL1        0.0473
     38 H          -2.7140   -1.3345   -0.1275 H       1  UNL1        0.0832
     39 H          -0.9597    0.1393    0.2629 H       1  UNL1        0.0631
     40 H           6.0579    0.4641   -1.7826 H       1  UNL1        0.1452
     41 H           5.1616    0.0762   -3.2708 H       1  UNL1        0.1452
@<TRIPOS>BOND
     1     1     2    1
     2     2     3    1
     3     3     4   ar
     4     4     5   ar
     5     5     6    1
     6     6     7   ar
     7     7     8   ar
     8     8     9   ar
     9     9    10   ar
    10    10    11   ar
    11    11    12   ar
    12    12    13    1
    13    13    14   ar
    14    14    15   ar
    15    15    16   ar
    16    16    17    1
    17    16    18   ar
    18    12    19   ar
    19    19    20   ar
    20     5    21   ar
    21    21    22   ar
    22    22    23    1
    23    22    24   ar
    24    24     3   ar
    25    20     6   ar
    26    20     9   ar
    27    18    13   ar
    28     1    25    1
    29     1    26    1
    30     1    27    1
    31     2    28    1
    32     2    29    1
    33     4    30    1
    34     7    31    1
    35     8    32    1
    36    11    33    1
    37    14    34    1
    38    17    35    1
    39    17    36    1
    40    17    37    1
    41    18    38    1
    42    19    39    1
    43    23    40    1
    44    23    41    1
