
     RDKit          3D

 41 44  0  0  0  0  0  0  0  0999 V2000
    3.8540   -3.3548    0.6539 C   0  0  0  0  0  0  0  0  0  0  0  0
    2.6654   -2.4417    0.8661 C   0  0  0  0  0  0  0  0  0  0  0  0
    2.7857   -1.2010    0.0650 C   0  0  0  0  0  0  0  0  0  0  0  0
    1.8031   -0.2011    0.0967 C   0  0  0  0  0  0  0  0  0  0  0  0
    1.9049    0.9403   -0.6357 C   0  0  0  0  0  0  0  0  0  0  0  0
    0.9722    2.0380   -0.6184 C   0  0  0  0  0  0  0  0  0  0  0  0
    1.3051    3.3567   -1.0115 C   0  0  0  0  0  0  0  0  0  0  0  0
    0.2380    4.1474   -0.9249 N   0  0  0  0  0  0  0  0  0  0  0  0
   -0.8154    3.4069   -0.4850 C   0  0  0  0  0  0  0  0  0  0  0  0
   -2.0895    3.7307   -0.2513 N   0  0  0  0  0  0  0  0  0  0  0  0
   -2.9624    2.8015    0.1694 C   0  0  0  0  0  0  0  0  0  0  0  0
   -2.5855    1.4939    0.3739 C   0  0  0  0  0  0  0  0  0  0  0  0
   -3.4865    0.4474    0.8275 C   0  0  0  0  0  0  0  0  0  0  0  0
   -4.5655    0.6110    1.6702 C   0  0  0  0  0  0  0  0  0  0  0  0
   -5.1352   -0.5983    1.8416 N   0  0  0  0  0  0  0  0  0  0  0  0
   -4.4805   -1.5182    1.1570 N   0  0  0  0  0  0  0  0  0  0  0  0
   -4.7720   -2.9345    1.0772 C   0  0  0  0  0  0  0  0  0  0  0  0
   -3.4600   -0.9071    0.5216 C   0  0  0  0  0  0  0  0  0  0  0  0
   -1.2566    1.1569    0.1305 C   0  0  0  0  0  0  0  0  0  0  0  0
   -0.3489    2.1004   -0.2994 C   0  0  0  0  0  0  0  0  0  0  0  0
    3.0463    1.0246   -1.3987 N   0  0  0  0  0  0  0  0  0  0  0  0
    3.9955    0.1143   -1.4606 C   0  0  0  0  0  0  0  0  0  0  0  0
    5.1668    0.2243   -2.2552 N   0  0  0  0  0  0  0  0  0  0  0  0
    3.8572   -1.0137   -0.7153 N   0  0  0  0  0  0  0  0  0  0  0  0
    4.6064   -2.7655    0.0655 H   0  0  0  0  0  0  0  0  0  0  0  0
    3.5980   -4.2201    0.0170 H   0  0  0  0  0  0  0  0  0  0  0  0
    4.3636   -3.6339    1.5883 H   0  0  0  0  0  0  0  0  0  0  0  0
    1.7050   -2.9625    0.6552 H   0  0  0  0  0  0  0  0  0  0  0  0
    2.6845   -2.1796    1.9657 H   0  0  0  0  0  0  0  0  0  0  0  0
    0.9989   -0.4215    0.7742 H   0  0  0  0  0  0  0  0  0  0  0  0
    2.2827    3.6776   -1.3352 H   0  0  0  0  0  0  0  0  0  0  0  0
    0.1442    5.1637   -1.1384 H   0  0  0  0  0  0  0  0  0  0  0  0
   -4.0159    3.0296    0.3722 H   0  0  0  0  0  0  0  0  0  0  0  0
   -4.9353    1.5128    2.1375 H   0  0  0  0  0  0  0  0  0  0  0  0
   -4.0132   -3.5373    1.6430 H   0  0  0  0  0  0  0  0  0  0  0  0
   -5.7467   -3.1446    1.5624 H   0  0  0  0  0  0  0  0  0  0  0  0
   -4.8545   -3.2877    0.0286 H   0  0  0  0  0  0  0  0  0  0  0  0
   -2.7140   -1.3345   -0.1275 H   0  0  0  0  0  0  0  0  0  0  0  0
   -0.9597    0.1393    0.2629 H   0  0  0  0  0  0  0  0  0  0  0  0
    6.0579    0.4641   -1.7826 H   0  0  0  0  0  0  0  0  0  0  0  0
    5.1616    0.0762   -3.2708 H   0  0  0  0  0  0  0  0  0  0  0  0
  1  2  1  0
  2  3  1  0
  3  4  2  0
  4  5  1  0
  5  6  1  0
  6  7  2  0
  7  8  1  0
  8  9  1  0
  9 10  2  0
 10 11  1  0
 11 12  2  0
 12 13  1  0
 13 14  1  0
 14 15  2  0
 15 16  1  0
 16 17  1  0
 16 18  1  0
 12 19  1  0
 19 20  2  0
  5 21  2  0
 21 22  1  0
 22 23  1  0
 22 24  2  0
 24  3  1  0
 20  6  1  0
 20  9  1  0
 18 13  2  0
  1 25  1  0
  1 26  1  0
  1 27  1  0
  2 28  1  0
  2 29  1  0
  4 30  1  0
  7 31  1  0
  8 32  1  0
 11 33  1  0
 14 34  1  0
 17 35  1  0
 17 36  1  0
 17 37  1  0
 18 38  1  0
 19 39  1  0
 23 40  1  0
 23 41  1  0
M  END
$$$$
