@<TRIPOS>MOLECULE
*****
 65 70 0 0 0
SMALL
GASTEIGER

@<TRIPOS>ATOM
      1 C           6.9919   -2.2032    1.2337 C.3     1  UNL1        0.0032
      2 N           7.5878   -1.6628    0.0405 N.am    1  UNL1       -0.3024
      3 C           9.0109   -1.7999   -0.1586 C.3     1  UNL1        0.0032
      4 C           6.7951   -1.0148   -0.9151 C.2     1  UNL1        0.2630
      5 O           7.3058   -0.5266   -1.9625 O.2     1  UNL1       -0.2684
      6 C           5.3586   -0.8886   -0.7226 C.ar    1  UNL1        0.1113
      7 C           4.4297   -1.9326   -0.8157 C.ar    1  UNL1       -0.0206
      8 C           3.1561   -1.4221   -0.5898 C.ar    1  UNL1        0.0382
      9 C           1.8789   -1.9313   -0.5604 C.ar    1  UNL1        0.0419
     10 N           0.8059   -1.1038   -0.3086 N.ar    1  UNL1       -0.2219
     11 C           1.0213    0.1956   -0.0930 C.ar    1  UNL1        0.2224
     12 N          -0.0347    1.0772    0.1391 N.pl3   1  UNL1       -0.2684
     13 C          -1.3784    0.6105    0.0426 C.ar    1  UNL1        0.1251
     14 C          -2.4395    1.4901    0.2771 C.ar    1  UNL1       -0.0197
     15 C          -3.7272    1.0549    0.1667 C.ar    1  UNL1       -0.0355
     16 C          -4.0323   -0.2691   -0.1807 C.ar    1  UNL1        0.0545
     17 N          -5.3858   -0.6743   -0.2939 N.am    1  UNL1       -0.2685
     18 C          -5.9804   -1.1873    0.9152 C.3     1  UNL1        0.0352
     19 C          -7.2470   -0.4020    1.2439 C.3     1  UNL1        0.0241
     20 C          -8.4949   -1.1259    0.8474 C.3     1  UNL1       -0.0347
     21 C          -9.2290   -0.2670   -0.1635 C.3     1  UNL1       -0.0356
     22 C          -8.0841    0.5876   -0.7123 C.3     1  UNL1        0.0162
     23 C          -7.4163   -0.1475   -1.8253 C.3     1  UNL1        0.0399
     24 C          -5.9822   -0.4994   -1.5495 C.2     1  UNL1        0.2213
     25 O          -5.2434   -0.6515   -2.5503 O.2     1  UNL1       -0.2752
     26 N          -7.3034    0.8136    0.4588 N.3     1  UNL1       -0.3086
     27 C          -2.9419   -1.0852   -0.3974 C.ar    1  UNL1        0.0511
     28 N          -1.6825   -0.6443   -0.2853 N.ar    1  UNL1       -0.2383
     29 N           2.2711    0.6613   -0.1267 N.ar    1  UNL1       -0.1958
     30 C           3.3658   -0.0821   -0.3654 C.ar    1  UNL1        0.1509
     31 N           4.6717    0.2289   -0.4452 N.ar    1  UNL1       -0.2893
     32 C           5.1912    1.5514   -0.2644 C.ar    1  UNL1        0.0487
     33 C           5.2278    2.1577    0.9651 C.ar    1  UNL1       -0.0378
     34 C           5.7259    3.4376    1.1656 C.ar    1  UNL1       -0.0598
     35 C           6.2073    4.1385    0.0923 C.ar    1  UNL1       -0.0616
     36 C           6.1807    3.5501   -1.1484 C.ar    1  UNL1       -0.0598
     37 C           5.6815    2.2713   -1.3460 C.ar    1  UNL1       -0.0378
     38 H           5.9997   -1.7179    1.4358 H       1  UNL1        0.0428
     39 H           7.5999   -1.9319    2.1403 H       1  UNL1        0.0428
     40 H           6.9167   -3.2990    1.2366 H       1  UNL1        0.0428
     41 H           9.5367   -0.9993    0.4447 H       1  UNL1        0.0428
     42 H           9.3943   -2.7606    0.2254 H       1  UNL1        0.0428
     43 H           9.3088   -1.6271   -1.2131 H       1  UNL1        0.0428
     44 H           4.6289   -2.9664   -1.0236 H       1  UNL1        0.0647
     45 H           1.7341   -2.9895   -0.7385 H       1  UNL1        0.0838
     46 H           0.1196    2.0946    0.3858 H       1  UNL1        0.1564
     47 H          -2.1802    2.5186    0.5468 H       1  UNL1        0.0652
     48 H          -4.5810    1.7018    0.3405 H       1  UNL1        0.0638
     49 H          -6.2879   -2.2338    0.7472 H       1  UNL1        0.0484
     50 H          -5.2863   -1.1830    1.7799 H       1  UNL1        0.0484
     51 H          -7.1893   -0.1191    2.3093 H       1  UNL1        0.0476
     52 H          -9.0955   -1.3410    1.7396 H       1  UNL1        0.0281
     53 H          -8.1970   -2.0585    0.2917 H       1  UNL1        0.0281
     54 H          -9.9290    0.4431    0.3027 H       1  UNL1        0.0281
     55 H          -9.6887   -0.8665   -0.9748 H       1  UNL1        0.0281
     56 H          -8.4711    1.5809   -1.0486 H       1  UNL1        0.0465
     57 H          -7.9170   -1.1066   -2.0878 H       1  UNL1        0.0374
     58 H          -7.3953    0.5211   -2.7188 H       1  UNL1        0.0374
     59 H          -7.4656    1.6762    0.9802 H       1  UNL1        0.1225
     60 H          -3.1756   -2.1248   -0.6712 H       1  UNL1        0.0849
     61 H           4.8567    1.6343    1.8354 H       1  UNL1        0.0638
     62 H           5.7160    3.8453    2.1782 H       1  UNL1        0.0618
     63 H           6.5876    5.1268    0.2593 H       1  UNL1        0.0618
     64 H           6.5578    4.0978   -1.9905 H       1  UNL1        0.0618
     65 H           5.6408    1.7802   -2.3015 H       1  UNL1        0.0638
@<TRIPOS>BOND
     1     1     2    1
     2     2     3    1
     3     2     4   am
     4     4     5    2
     5     4     6    1
     6     6     7   ar
     7     7     8   ar
     8     8     9   ar
     9     9    10   ar
    10    10    11   ar
    11    11    12    1
    12    12    13    1
    13    13    14   ar
    14    14    15   ar
    15    15    16   ar
    16    16    17    1
    17    17    18    1
    18    18    19    1
    19    19    20    1
    20    20    21    1
    21    21    22    1
    22    22    23    1
    23    23    24    1
    24    24    25    2
    25    22    26    1
    26    16    27   ar
    27    27    28   ar
    28    11    29   ar
    29    29    30   ar
    30    30    31   ar
    31    31    32    1
    32    32    33   ar
    33    33    34   ar
    34    34    35   ar
    35    35    36   ar
    36    36    37   ar
    37    31     6   ar
    38    37    32   ar
    39    30     8   ar
    40    28    13   ar
    41    24    17   am
    42    26    19    1
    43     1    38    1
    44     1    39    1
    45     1    40    1
    46     3    41    1
    47     3    42    1
    48     3    43    1
    49     7    44    1
    50     9    45    1
    51    12    46    1
    52    14    47    1
    53    15    48    1
    54    18    49    1
    55    18    50    1
    56    19    51    1
    57    20    52    1
    58    20    53    1
    59    21    54    1
    60    21    55    1
    61    22    56    1
    62    23    57    1
    63    23    58    1
    64    26    59    1
    65    27    60    1
    66    33    61    1
    67    34    62    1
    68    35    63    1
    69    36    64    1
    70    37    65    1
