
     RDKit          3D

 72 76  0  0  0  0  0  0  0  0999 V2000
   -0.0851    3.2526    0.7670 C   0  0  0  0  0  0  0  0  0  0  0  0
   -0.0903    1.9495   -0.0538 C   0  0  1  0  0  0  0  0  0  0  0  0
    1.1138    1.1554    0.2308 C   0  0  0  0  0  0  0  0  0  0  0  0
    1.3547    0.4179    1.3490 C   0  0  0  0  0  0  0  0  0  0  0  0
    2.5406   -0.3234    1.5367 C   0  0  0  0  0  0  0  0  0  0  0  0
    3.5210   -0.3363    0.5887 C   0  0  0  0  0  0  0  0  0  0  0  0
    4.7840   -1.0893    0.7375 C   0  0  0  0  0  0  0  0  0  0  0  0
    5.0869   -1.8410    1.8518 C   0  0  0  0  0  0  0  0  0  0  0  0
    6.2695   -2.5254    1.9595 C   0  0  0  0  0  0  0  0  0  0  0  0
    7.1699   -2.4511    0.9186 C   0  0  0  0  0  0  0  0  0  0  0  0
    8.2787   -3.0899    1.0016 O   0  0  0  0  0  0  0  0  0  0  0  0
    6.8483   -1.7063   -0.1625 N   0  0  0  0  0  0  0  0  0  0  0  0
    7.8212   -1.6260   -1.2273 C   0  0  0  0  0  0  0  0  0  0  0  0
    8.7280   -0.4611   -1.2037 C   0  0  0  0  0  0  0  0  0  0  0  0
    9.6495   -0.2240   -0.0020 C   0  0  0  0  0  0  0  0  0  0  0  0
    8.5187    0.7330   -0.3624 C   0  0  0  0  0  0  0  0  0  0  0  0
    5.6905   -1.0590   -0.2256 N   0  0  0  0  0  0  0  0  0  0  0  0
    3.2974    0.4099   -0.5626 C   0  0  0  0  0  0  0  0  0  0  0  0
    2.1368    1.1259   -0.7283 C   0  0  0  0  0  0  0  0  0  0  0  0
   -1.3522    1.3180    0.0299 N   0  0  0  0  0  0  0  0  0  0  0  0
   -2.0271    0.7403    1.1567 C   0  0  0  0  0  0  0  0  0  0  0  0
   -3.4529    1.2880    1.1329 C   0  0  0  0  0  0  0  0  0  0  0  0
   -4.2033    0.5886   -0.0381 C   0  0  2  0  0  0  0  0  0  0  0  0
   -5.4164    1.3886   -0.3667 C   0  0  0  0  0  0  0  0  0  0  0  0
   -6.2679    0.9673   -1.4930 C   0  0  0  0  0  0  0  0  0  0  0  0
   -7.4164    1.9835   -1.6129 C   0  0  0  0  0  0  0  0  0  0  0  0
   -6.9408   -0.3696   -1.3640 C   0  0  0  0  0  0  0  0  0  0  0  0
   -5.5858    1.0661   -2.7315 O   0  0  0  0  0  0  0  0  0  0  0  0
   -4.4895   -0.8021    0.3963 C   0  0  0  0  0  0  0  0  0  0  0  0
   -5.4629   -1.0926    1.3086 C   0  0  0  0  0  0  0  0  0  0  0  0
   -5.6961   -2.4062    1.6915 C   0  0  0  0  0  0  0  0  0  0  0  0
   -4.9742   -3.4612    1.1833 C   0  0  0  0  0  0  0  0  0  0  0  0
   -3.9832   -3.1806    0.2576 C   0  0  0  0  0  0  0  0  0  0  0  0
   -3.7556   -1.8772   -0.1196 C   0  0  0  0  0  0  0  0  0  0  0  0
   -3.3443    0.5122   -1.1612 O   0  0  0  0  0  0  0  0  0  0  0  0
   -2.1459    1.2525   -1.1863 C   0  0  0  0  0  0  0  0  0  0  0  0
   -1.7786    1.8357   -2.2291 O   0  0  0  0  0  0  0  0  0  0  0  0
    0.8327    3.7921    0.4415 H   0  0  0  0  0  0  0  0  0  0  0  0
   -1.0232    3.7931    0.5029 H   0  0  0  0  0  0  0  0  0  0  0  0
   -0.0322    2.9752    1.8302 H   0  0  0  0  0  0  0  0  0  0  0  0
    0.0098    2.3503   -1.1190 H   0  0  0  0  0  0  0  0  0  0  0  0
    0.6287    0.3857    2.1425 H   0  0  0  0  0  0  0  0  0  0  0  0
    2.6686   -0.8924    2.4579 H   0  0  0  0  0  0  0  0  0  0  0  0
    4.3795   -1.9053    2.6762 H   0  0  0  0  0  0  0  0  0  0  0  0
    6.5055   -3.1109    2.8372 H   0  0  0  0  0  0  0  0  0  0  0  0
    7.2543   -1.6712   -2.1881 H   0  0  0  0  0  0  0  0  0  0  0  0
    8.4360   -2.5677   -1.2191 H   0  0  0  0  0  0  0  0  0  0  0  0
    9.2175   -0.2466   -2.2108 H   0  0  0  0  0  0  0  0  0  0  0  0
    9.4744   -0.7252    0.9520 H   0  0  0  0  0  0  0  0  0  0  0  0
   10.6937    0.0946   -0.2367 H   0  0  0  0  0  0  0  0  0  0  0  0
    7.6615    0.8339    0.3180 H   0  0  0  0  0  0  0  0  0  0  0  0
    8.8823    1.7099   -0.7343 H   0  0  0  0  0  0  0  0  0  0  0  0
    4.0748    0.3972   -1.3160 H   0  0  0  0  0  0  0  0  0  0  0  0
    1.9868    1.7006   -1.6398 H   0  0  0  0  0  0  0  0  0  0  0  0
   -1.5678    0.8845    2.1344 H   0  0  0  0  0  0  0  0  0  0  0  0
   -2.1149   -0.3482    0.9676 H   0  0  0  0  0  0  0  0  0  0  0  0
   -3.4711    2.3578    0.9053 H   0  0  0  0  0  0  0  0  0  0  0  0
   -4.0308    1.0088    2.0353 H   0  0  0  0  0  0  0  0  0  0  0  0
   -5.1209    2.4711   -0.5485 H   0  0  0  0  0  0  0  0  0  0  0  0
   -6.0958    1.4931    0.5314 H   0  0  0  0  0  0  0  0  0  0  0  0
   -8.2460    1.6382   -0.9650 H   0  0  0  0  0  0  0  0  0  0  0  0
   -7.7856    1.9804   -2.6544 H   0  0  0  0  0  0  0  0  0  0  0  0
   -7.0865    2.9861   -1.3058 H   0  0  0  0  0  0  0  0  0  0  0  0
   -7.5258   -0.4102   -0.4266 H   0  0  0  0  0  0  0  0  0  0  0  0
   -7.7216   -0.4886   -2.1818 H   0  0  0  0  0  0  0  0  0  0  0  0
   -6.2419   -1.2108   -1.3957 H   0  0  0  0  0  0  0  0  0  0  0  0
   -4.8261    1.6812   -2.5583 H   0  0  0  0  0  0  0  0  0  0  0  0
   -6.0516   -0.2896    1.7312 H   0  0  0  0  0  0  0  0  0  0  0  0
   -6.4888   -2.5652    2.4278 H   0  0  0  0  0  0  0  0  0  0  0  0
   -5.2082   -4.4556    1.5277 H   0  0  0  0  0  0  0  0  0  0  0  0
   -3.4341   -4.0217   -0.1248 H   0  0  0  0  0  0  0  0  0  0  0  0
   -2.9741   -1.6872   -0.8434 H   0  0  0  0  0  0  0  0  0  0  0  0
  1  2  1  0
  2  3  1  0
  3  4  2  0
  4  5  1  0
  5  6  2  0
  6  7  1  0
  7  8  1  0
  8  9  2  0
  9 10  1  0
 10 11  2  0
 10 12  1  0
 12 13  1  0
 13 14  1  0
 14 15  1  0
 15 16  1  0
 12 17  1  0
  6 18  1  0
 18 19  2  0
  2 20  1  0
 20 21  1  0
 21 22  1  0
 22 23  1  0
 23 24  1  6
 24 25  1  0
 25 26  1  0
 25 27  1  0
 25 28  1  0
 23 29  1  0
 29 30  2  0
 30 31  1  0
 31 32  2  0
 32 33  1  0
 33 34  2  0
 23 35  1  0
 35 36  1  0
 36 37  2  0
 19  3  1  0
 36 20  1  0
 17  7  2  0
 34 29  1  0
 16 14  1  0
  1 38  1  0
  1 39  1  0
  1 40  1  0
  2 41  1  6
  4 42  1  0
  5 43  1  0
  8 44  1  0
  9 45  1  0
 13 46  1  0
 13 47  1  0
 14 48  1  0
 15 49  1  0
 15 50  1  0
 16 51  1  0
 16 52  1  0
 18 53  1  0
 19 54  1  0
 21 55  1  0
 21 56  1  0
 22 57  1  0
 22 58  1  0
 24 59  1  0
 24 60  1  0
 26 61  1  0
 26 62  1  0
 26 63  1  0
 27 64  1  0
 27 65  1  0
 27 66  1  0
 28 67  1  0
 30 68  1  0
 31 69  1  0
 32 70  1  0
 33 71  1  0
 34 72  1  0
M  END
$$$$
