@<TRIPOS>MOLECULE
*****
 72 76 0 0 0
SMALL
GASTEIGER

@<TRIPOS>ATOM
      1 C          -0.0851    3.2526    0.7670 C.3     1  UNL1       -0.0421
      2 C          -0.0903    1.9495   -0.0538 C.3     1  UNL1        0.0515
      3 C           1.1138    1.1554    0.2308 C.ar    1  UNL1       -0.0271
      4 C           1.3547    0.4179    1.3490 C.ar    1  UNL1       -0.0562
      5 C           2.5406   -0.3234    1.5367 C.ar    1  UNL1       -0.0522
      6 C           3.5210   -0.3363    0.5887 C.ar    1  UNL1        0.0021
      7 C           4.7840   -1.0893    0.7375 C.ar    1  UNL1        0.0916
      8 C           5.0869   -1.8410    1.8518 C.ar    1  UNL1       -0.0289
      9 C           6.2695   -2.5254    1.9595 C.ar    1  UNL1        0.0064
     10 C           7.1699   -2.4511    0.9186 C.ar    1  UNL1        0.2673
     11 O           8.2787   -3.0899    1.0016 O.2     1  UNL1       -0.2662
     12 N           6.8483   -1.7063   -0.1625 N.ar    1  UNL1       -0.2287
     13 C           7.8212   -1.6260   -1.2273 C.3     1  UNL1        0.0481
     14 C           8.7280   -0.4611   -1.2037 C.3     1  UNL1       -0.0213
     15 C           9.6495   -0.2240   -0.0020 C.3     1  UNL1       -0.0482
     16 C           8.5187    0.7330   -0.3624 C.3     1  UNL1       -0.0482
     17 N           5.6905   -1.0590   -0.2256 N.ar    1  UNL1       -0.1682
     18 C           3.2974    0.4099   -0.5626 C.ar    1  UNL1       -0.0522
     19 C           2.1368    1.1259   -0.7283 C.ar    1  UNL1       -0.0562
     20 N          -1.3522    1.3180    0.0299 N.am    1  UNL1       -0.2605
     21 C          -2.0271    0.7403    1.1567 C.3     1  UNL1        0.0224
     22 C          -3.4529    1.2880    1.1329 C.3     1  UNL1        0.0076
     23 C          -4.2033    0.5886   -0.0381 C.3     1  UNL1        0.1440
     24 C          -5.4164    1.3886   -0.3667 C.3     1  UNL1        0.0199
     25 C          -6.2679    0.9673   -1.4930 C.3     1  UNL1        0.0645
     26 C          -7.4164    1.9835   -1.6129 C.3     1  UNL1       -0.0362
     27 C          -6.9408   -0.3696   -1.3640 C.3     1  UNL1       -0.0362
     28 O          -5.5858    1.0661   -2.7315 O.3     1  UNL1       -0.3890
     29 C          -4.4895   -0.8021    0.3963 C.ar    1  UNL1       -0.0040
     30 C          -5.4629   -1.0926    1.3086 C.ar    1  UNL1       -0.0548
     31 C          -5.6961   -2.4062    1.6915 C.ar    1  UNL1       -0.0614
     32 C          -4.9742   -3.4612    1.1833 C.ar    1  UNL1       -0.0617
     33 C          -3.9832   -3.1806    0.2576 C.ar    1  UNL1       -0.0614
     34 C          -3.7556   -1.8772   -0.1196 C.ar    1  UNL1       -0.0548
     35 O          -3.3443    0.5122   -1.1612 O.3     1  UNL1       -0.4387
     36 C          -2.1459    1.2525   -1.1863 C.2     1  UNL1        0.4042
     37 O          -1.7786    1.8357   -2.2291 O.2     1  UNL1       -0.2262
     38 H           0.8327    3.7921    0.4415 H       1  UNL1        0.0251
     39 H          -1.0232    3.7931    0.5029 H       1  UNL1        0.0251
     40 H          -0.0322    2.9752    1.8302 H       1  UNL1        0.0251
     41 H           0.0098    2.3503   -1.1190 H       1  UNL1        0.0549
     42 H           0.6287    0.3857    2.1425 H       1  UNL1        0.0621
     43 H           2.6686   -0.8924    2.4579 H       1  UNL1        0.0624
     44 H           4.3795   -1.9053    2.6762 H       1  UNL1        0.0641
     45 H           6.5055   -3.1109    2.8372 H       1  UNL1        0.0673
     46 H           7.2543   -1.6712   -2.1881 H       1  UNL1        0.0513
     47 H           8.4360   -2.5677   -1.2191 H       1  UNL1        0.0513
     48 H           9.2175   -0.2466   -2.2108 H       1  UNL1        0.0318
     49 H           9.4744   -0.7252    0.9520 H       1  UNL1        0.0269
     50 H          10.6937    0.0946   -0.2367 H       1  UNL1        0.0269
     51 H           7.6615    0.8339    0.3180 H       1  UNL1        0.0269
     52 H           8.8823    1.7099   -0.7343 H       1  UNL1        0.0269
     53 H           4.0748    0.3972   -1.3160 H       1  UNL1        0.0624
     54 H           1.9868    1.7006   -1.6398 H       1  UNL1        0.0621
     55 H          -1.5678    0.8845    2.1344 H       1  UNL1        0.0467
     56 H          -2.1149   -0.3482    0.9676 H       1  UNL1        0.0467
     57 H          -3.4711    2.3578    0.9053 H       1  UNL1        0.0322
     58 H          -4.0308    1.0088    2.0353 H       1  UNL1        0.0322
     59 H          -5.1209    2.4711   -0.5485 H       1  UNL1        0.0335
     60 H          -6.0958    1.4931    0.5314 H       1  UNL1        0.0335
     61 H          -8.2460    1.6382   -0.9650 H       1  UNL1        0.0257
     62 H          -7.7856    1.9804   -2.6544 H       1  UNL1        0.0257
     63 H          -7.0865    2.9861   -1.3058 H       1  UNL1        0.0257
     64 H          -7.5258   -0.4102   -0.4266 H       1  UNL1        0.0257
     65 H          -7.7216   -0.4886   -2.1818 H       1  UNL1        0.0257
     66 H          -6.2419   -1.2108   -1.3957 H       1  UNL1        0.0257
     67 H          -4.8261    1.6812   -2.5583 H       1  UNL1        0.2101
     68 H          -6.0516   -0.2896    1.7312 H       1  UNL1        0.0622
     69 H          -6.4888   -2.5652    2.4278 H       1  UNL1        0.0618
     70 H          -5.2082   -4.4556    1.5277 H       1  UNL1        0.0618
     71 H          -3.4341   -4.0217   -0.1248 H       1  UNL1        0.0618
     72 H          -2.9741   -1.6872   -0.8434 H       1  UNL1        0.0622
@<TRIPOS>BOND
     1     1     2    1
     2     2     3    1
     3     3     4   ar
     4     4     5   ar
     5     5     6   ar
     6     6     7    1
     7     7     8   ar
     8     8     9   ar
     9     9    10   ar
    10    10    11    2
    11    10    12   ar
    12    12    13    1
    13    13    14    1
    14    14    15    1
    15    15    16    1
    16    12    17   ar
    17     6    18   ar
    18    18    19   ar
    19     2    20    1
    20    20    21    1
    21    21    22    1
    22    22    23    1
    23    23    24    1
    24    24    25    1
    25    25    26    1
    26    25    27    1
    27    25    28    1
    28    23    29    1
    29    29    30   ar
    30    30    31   ar
    31    31    32   ar
    32    32    33   ar
    33    33    34   ar
    34    23    35    1
    35    35    36    1
    36    36    37    2
    37    19     3   ar
    38    36    20   am
    39    17     7   ar
    40    34    29   ar
    41    16    14    1
    42     1    38    1
    43     1    39    1
    44     1    40    1
    45     2    41    1
    46     4    42    1
    47     5    43    1
    48     8    44    1
    49     9    45    1
    50    13    46    1
    51    13    47    1
    52    14    48    1
    53    15    49    1
    54    15    50    1
    55    16    51    1
    56    16    52    1
    57    18    53    1
    58    19    54    1
    59    21    55    1
    60    21    56    1
    61    22    57    1
    62    22    58    1
    63    24    59    1
    64    24    60    1
    65    26    61    1
    66    26    62    1
    67    26    63    1
    68    27    64    1
    69    27    65    1
    70    27    66    1
    71    28    67    1
    72    30    68    1
    73    31    69    1
    74    32    70    1
    75    33    71    1
    76    34    72    1
