@<TRIPOS>MOLECULE
*****
 57 59 0 0 0
SMALL
GASTEIGER

@<TRIPOS>ATOM
      1 C          -1.7280    0.3778   -0.2555 C.3     1  UNL1        0.1000
      2 C          -1.9007   -1.0450    0.2202 C.3     1  UNL1       -0.0236
      3 C          -3.0133   -1.2297    1.2089 C.3     1  UNL1       -0.0446
      4 C          -2.8467   -0.4323    2.4594 C.3     1  UNL1       -0.0626
      5 C          -3.0238   -2.7053    1.5794 C.3     1  UNL1       -0.0626
      6 N          -2.9566    0.8307   -0.9042 N.am    1  UNL1       -0.2975
      7 C          -3.5736    2.0432   -0.4294 C.2     1  UNL1        0.2800
      8 O          -3.0496    2.6630    0.5086 O.2     1  UNL1       -0.2668
      9 C          -4.8063    2.5565   -1.0330 C.ar    1  UNL1        0.1890
     10 C          -5.3944    3.7189   -0.5643 C.ar    1  UNL1       -0.0113
     11 C          -6.5333    3.9581   -1.3161 C.ar    1  UNL1       -0.0231
     12 C          -6.5700    2.9115   -2.2101 C.ar    1  UNL1        0.0928
     13 O          -5.5404    2.1118   -2.0116 O.2     1  UNL1       -0.4583
     14 C          -0.6250    0.2817   -1.2784 C.2     1  UNL1        0.2341
     15 O          -1.3352    0.6585   -2.2451 O.2     1  UNL1       -0.2738
     16 N           0.6729   -0.1320   -0.9315 N.am    1  UNL1       -0.2999
     17 C           1.7790   -0.2473   -1.8648 C.3     1  UNL1        0.1287
     18 C           2.8920    0.6853   -1.5731 C.3     1  UNL1        0.0041
     19 C           3.5513    0.5878   -0.2800 C.ar    1  UNL1       -0.0200
     20 C           3.1305    1.4365    0.7586 C.ar    1  UNL1        0.0060
     21 N           3.8057    1.2025    1.8877 N.ar    1  UNL1       -0.3604
     22 C           4.6849    0.2134    1.6581 C.ar    1  UNL1        0.0467
     23 C           4.5263   -0.1524    0.3482 C.ar    1  UNL1        0.0029
     24 C           5.2712   -1.1393   -0.2609 C.ar    1  UNL1       -0.0523
     25 C           6.2277   -1.7814    0.5291 C.ar    1  UNL1       -0.0611
     26 C           6.3822   -1.4104    1.8469 C.ar    1  UNL1       -0.0598
     27 C           5.6282   -0.4168    2.4445 C.ar    1  UNL1       -0.0378
     28 P           2.1949   -1.9884   -2.0113 P.3     1  UNL1        0.3480
     29 O           3.3869   -2.2950   -3.1679 O.3     1  UNL1       -0.3228
     30 O           2.4965   -2.7457   -0.5422 O.3     1  UNL1       -0.3228
     31 O           0.9261   -2.6717   -2.5567 O.2     1  UNL1       -0.2569
     32 H          -1.4727    1.0943    0.5233 H       1  UNL1        0.0595
     33 H          -2.0953   -1.6778   -0.6568 H       1  UNL1        0.0290
     34 H          -0.9450   -1.3651    0.7039 H       1  UNL1        0.0290
     35 H          -4.0020   -1.0173    0.7480 H       1  UNL1        0.0296
     36 H          -3.1118    0.6375    2.3653 H       1  UNL1        0.0232
     37 H          -3.6083   -0.8377    3.1885 H       1  UNL1        0.0232
     38 H          -1.8675   -0.6280    2.9278 H       1  UNL1        0.0232
     39 H          -2.1185   -3.2398    1.2122 H       1  UNL1        0.0232
     40 H          -3.8894   -3.2344    1.1122 H       1  UNL1        0.0232
     41 H          -3.0235   -2.8471    2.6790 H       1  UNL1        0.0232
     42 H          -3.3891    0.2959   -1.6973 H       1  UNL1        0.1499
     43 H          -5.0961    4.4022    0.2465 H       1  UNL1        0.0657
     44 H          -7.2856    4.7362   -1.3002 H       1  UNL1        0.0649
     45 H          -7.2444    2.6448   -2.9928 H       1  UNL1        0.1029
     46 H           0.8236   -0.3661    0.0711 H       1  UNL1        0.1496
     47 H           1.4257    0.0466   -2.9108 H       1  UNL1        0.0628
     48 H           2.4863    1.7217   -1.7656 H       1  UNL1        0.0338
     49 H           3.6494    0.5797   -2.4178 H       1  UNL1        0.0338
     50 H           2.3648    2.2235    0.7700 H       1  UNL1        0.0810
     51 H           3.7318    1.6552    2.8236 H       1  UNL1        0.1653
     52 H           5.1563   -1.4230   -1.2935 H       1  UNL1        0.0624
     53 H           6.8604   -2.5690    0.1399 H       1  UNL1        0.0618
     54 H           7.1086   -1.8599    2.5428 H       1  UNL1        0.0618
     55 H           5.7391   -0.1149    3.4795 H       1  UNL1        0.0638
     56 H           2.9984   -2.4453   -4.0610 H       1  UNL1        0.2198
     57 H           2.1454   -2.2566    0.2297 H       1  UNL1        0.2198
@<TRIPOS>BOND
     1     1     2    1
     2     2     3    1
     3     3     4    1
     4     3     5    1
     5     1     6    1
     6     6     7   am
     7     7     8    2
     8     7     9    1
     9     9    10   ar
    10    10    11   ar
    11    11    12   ar
    12    12    13   ar
    13     1    14    1
    14    14    15    2
    15    14    16   am
    16    16    17    1
    17    17    18    1
    18    18    19    1
    19    19    20   ar
    20    20    21   ar
    21    21    22   ar
    22    22    23   ar
    23    23    24   ar
    24    24    25   ar
    25    25    26   ar
    26    26    27   ar
    27    17    28    1
    28    28    29    1
    29    28    30    1
    30    28    31    2
    31    13     9   ar
    32    23    19   ar
    33    27    22   ar
    34     1    32    1
    35     2    33    1
    36     2    34    1
    37     3    35    1
    38     4    36    1
    39     4    37    1
    40     4    38    1
    41     5    39    1
    42     5    40    1
    43     5    41    1
    44     6    42    1
    45    10    43    1
    46    11    44    1
    47    12    45    1
    48    16    46    1
    49    17    47    1
    50    18    48    1
    51    18    49    1
    52    20    50    1
    53    21    51    1
    54    24    52    1
    55    25    53    1
    56    26    54    1
    57    27    55    1
    58    29    56    1
    59    30    57    1
