@<TRIPOS>MOLECULE
*****
 46 48 0 0 0
SMALL
GASTEIGER

@<TRIPOS>ATOM
      1 C           9.2698    0.0070   -0.4535 C.3     1  UNL1       -0.0306
      2 C           8.4895    0.4481    0.7481 C.3     1  UNL1        0.0900
      3 O           7.1140    0.1846    0.6893 O.3     1  UNL1       -0.4614
      4 C           6.2287    0.6495   -0.2431 C.2     1  UNL1        0.3407
      5 O           6.8117    1.3646   -1.0687 O.2     1  UNL1       -0.2449
      6 C           4.8110    0.3258   -0.2300 C.ar    1  UNL1        0.0771
      7 C           3.9733    0.8225   -1.1923 C.ar    1  UNL1        0.0429
      8 N           2.6651    0.4954   -1.1404 N.ar    1  UNL1       -0.2459
      9 C           2.2007   -0.3041   -0.1585 C.ar    1  UNL1        0.1137
     10 C           3.0078   -0.8380    0.8466 C.ar    1  UNL1       -0.0270
     11 C           4.3535   -0.4936    0.7819 C.ar    1  UNL1       -0.0437
     12 C           0.8079   -0.6530   -0.1023 C.1     1  UNL1       -0.0412
     13 C          -0.3848   -0.9303   -0.0579 C.1     1  UNL1       -0.0595
     14 C          -1.7789   -1.2330   -0.0038 C.ar    1  UNL1        0.0257
     15 C          -2.6541   -0.1683   -0.0403 C.ar    1  UNL1       -0.0416
     16 C          -4.0161   -0.3661    0.0071 C.ar    1  UNL1       -0.0272
     17 C          -4.5304   -1.6349    0.0922 C.ar    1  UNL1        0.0116
     18 S          -6.2978   -1.9379    0.1563 S.3     1  UNL1       -0.1249
     19 C          -7.0804   -0.4324   -0.5292 C.3     1  UNL1       -0.0009
     20 C          -6.0595    0.5619   -0.9819 C.3     1  UNL1       -0.0345
     21 C          -4.9260    0.7807   -0.0331 C.3     1  UNL1       -0.0080
     22 C          -4.2366    2.0678   -0.4209 C.3     1  UNL1       -0.0557
     23 C          -5.4718    1.0151    1.3724 C.3     1  UNL1       -0.0557
     24 C          -3.6308   -2.7024    0.1282 C.ar    1  UNL1       -0.0469
     25 C          -2.2669   -2.5120    0.0812 C.ar    1  UNL1       -0.0453
     26 H           9.1379    0.6565   -1.3247 H       1  UNL1        0.0262
     27 H           9.1490   -1.0781   -0.6762 H       1  UNL1        0.0262
     28 H          10.3508    0.1100   -0.1637 H       1  UNL1        0.0262
     29 H           8.7627    1.4776    0.9893 H       1  UNL1        0.0695
     30 H           8.8747   -0.1703    1.6089 H       1  UNL1        0.0695
     31 H           4.3511    1.4648   -1.9796 H       1  UNL1        0.0838
     32 H           2.6081   -1.4762    1.6213 H       1  UNL1        0.0645
     33 H           5.0149   -0.8814    1.5355 H       1  UNL1        0.0627
     34 H          -2.2938    0.8676   -0.1081 H       1  UNL1        0.0633
     35 H          -7.6269   -0.7780   -1.4540 H       1  UNL1        0.0380
     36 H          -7.8546   -0.0190    0.1280 H       1  UNL1        0.0380
     37 H          -6.5931    1.5510   -1.0589 H       1  UNL1        0.0282
     38 H          -5.6652    0.3159   -1.9894 H       1  UNL1        0.0282
     39 H          -3.5929    1.9542   -1.3158 H       1  UNL1        0.0238
     40 H          -5.0299    2.7947   -0.6969 H       1  UNL1        0.0238
     41 H          -3.7093    2.4517    0.4540 H       1  UNL1        0.0238
     42 H          -6.0541    0.1681    1.7583 H       1  UNL1        0.0238
     43 H          -4.5665    1.1944    2.0081 H       1  UNL1        0.0238
     44 H          -6.0964    1.9343    1.3603 H       1  UNL1        0.0238
     45 H          -3.9991   -3.7230    0.1954 H       1  UNL1        0.0629
     46 H          -1.5660   -3.3316    0.1086 H       1  UNL1        0.0630
@<TRIPOS>BOND
     1     1     2    1
     2     2     3    1
     3     3     4    1
     4     4     5    2
     5     4     6    1
     6     6     7   ar
     7     7     8   ar
     8     8     9   ar
     9     9    10   ar
    10    10    11   ar
    11     9    12    1
    12    12    13    3
    13    13    14    1
    14    14    15   ar
    15    15    16   ar
    16    16    17   ar
    17    17    18    1
    18    18    19    1
    19    19    20    1
    20    20    21    1
    21    21    22    1
    22    21    23    1
    23    17    24   ar
    24    24    25   ar
    25    11     6   ar
    26    25    14   ar
    27    21    16    1
    28     1    26    1
    29     1    27    1
    30     1    28    1
    31     2    29    1
    32     2    30    1
    33     7    31    1
    34    10    32    1
    35    11    33    1
    36    15    34    1
    37    19    35    1
    38    19    36    1
    39    20    37    1
    40    20    38    1
    41    22    39    1
    42    22    40    1
    43    22    41    1
    44    23    42    1
    45    23    43    1
    46    23    44    1
    47    24    45    1
    48    25    46    1
