@<TRIPOS>MOLECULE
*****
 41 42 0 0 0
SMALL
GASTEIGER

@<TRIPOS>ATOM
      1 O          -1.1616   -0.6233   -2.1487 O.3     1  UNL1       -0.3871
      2 C          -0.9747   -1.3270   -0.9891 C.3     1  UNL1        0.1043
      3 C           0.2666   -0.8964   -0.2336 C.3     1  UNL1        0.1448
      4 O           1.3644   -1.1226   -1.1074 O.2     1  UNL1       -0.3900
      5 N           2.6382   -0.8391   -0.7085 N.2     1  UNL1       -0.0719
      6 C           2.9787    0.2894   -0.1576 C.2     1  UNL1        0.1807
      7 CL          2.5986   -1.2536   -0.8921 Cl      1  UNL1       -0.0578
      8 C           4.3751    0.4641    0.2245 C.ar    1  UNL1        0.0798
      9 C           5.3736   -0.4598    0.0564 C.ar    1  UNL1        0.1929
     10 N           6.6462   -0.2577    0.4227 N.ar    1  UNL1       -0.1768
     11 O           7.5388   -1.2827    0.1886 O.co2   1  UNL1       -0.6198
     12 C           6.9854    0.9204    0.9935 C.ar    1  UNL1        0.1829
     13 C           6.0321    1.8975    1.1941 C.ar    1  UNL1        0.0040
     14 C           4.7243    1.6813    0.8140 C.ar    1  UNL1       -0.0402
     15 C          -2.1819   -1.4063   -0.1168 C.3     1  UNL1        0.0282
     16 N          -2.7307   -0.2188    0.3851 N.3     1  UNL1       -0.2998
     17 C          -3.9176   -0.3980    1.1959 C.3     1  UNL1       -0.0010
     18 C          -5.0741    0.4283    0.6632 C.3     1  UNL1       -0.0402
     19 C          -5.0104    0.3365   -0.8439 C.3     1  UNL1       -0.0507
     20 C          -3.8503    1.1771   -1.2946 C.3     1  UNL1       -0.0402
     21 C          -2.7005    0.9757   -0.3399 C.3     1  UNL1       -0.0010
     22 H          -0.6664   -1.0150   -2.9175 H       1  UNL1        0.2100
     23 H          -0.7513   -2.3901   -1.3090 H       1  UNL1        0.0641
     24 H           0.3882   -1.5557    0.6491 H       1  UNL1        0.0750
     25 H           0.2194    0.1571    0.0491 H       1  UNL1        0.0750
     26 H           5.0670   -1.3878   -0.4019 H       1  UNL1        0.1397
     27 H           8.0431    1.0195    1.2691 H       1  UNL1        0.1389
     28 H           6.4459    2.7909    1.6615 H       1  UNL1        0.0677
     29 H           4.0382    2.5097    1.0109 H       1  UNL1        0.0628
     30 H          -1.8605   -2.0219    0.7839 H       1  UNL1        0.0453
     31 H          -2.9077   -2.0812   -0.6277 H       1  UNL1        0.0453
     32 H          -3.7167   -0.1680    2.2578 H       1  UNL1        0.0426
     33 H          -4.2184   -1.4582    1.1119 H       1  UNL1        0.0426
     34 H          -6.0159    0.0293    1.0589 H       1  UNL1        0.0278
     35 H          -4.9420    1.4787    0.9696 H       1  UNL1        0.0278
     36 H          -5.9669    0.6348   -1.3186 H       1  UNL1        0.0266
     37 H          -4.8156   -0.7149   -1.1197 H       1  UNL1        0.0266
     38 H          -4.1554    2.2430   -1.3416 H       1  UNL1        0.0278
     39 H          -3.5753    0.8866   -2.3454 H       1  UNL1        0.0278
     40 H          -2.7650    1.8257    0.4012 H       1  UNL1        0.0426
     41 H          -1.7649    1.1325   -0.8726 H       1  UNL1        0.0426
@<TRIPOS>UNITY_ATOM_ATTR
10 1
charge 1
11 1
charge -1
@<TRIPOS>BOND
     1     1     2    1
     2     2     3    1
     3     3     4    1
     4     4     5    1
     5     5     6    2
     6     6     7    1
     7     6     8    1
     8     8     9   ar
     9     9    10   ar
    10    10    11    1
    11    10    12   ar
    12    12    13   ar
    13    13    14   ar
    14     2    15    1
    15    15    16    1
    16    16    17    1
    17    17    18    1
    18    18    19    1
    19    19    20    1
    20    20    21    1
    21    14     8   ar
    22    21    16    1
    23     1    22    1
    24     2    23    1
    25     3    24    1
    26     3    25    1
    27     9    26    1
    28    12    27    1
    29    13    28    1
    30    14    29    1
    31    15    30    1
    32    15    31    1
    33    17    32    1
    34    17    33    1
    35    18    34    1
    36    18    35    1
    37    19    36    1
    38    19    37    1
    39    20    38    1
    40    20    39    1
    41    21    40    1
    42    21    41    1
