@<TRIPOS>MOLECULE
*****
 41 43 0 0 0
SMALL
GASTEIGER

@<TRIPOS>ATOM
      1 O           2.2753    1.3230    1.3114 O.2     1  UNL1       -0.2750
      2 C           2.1028    0.1000    1.1842 C.2     1  UNL1        0.2245
      3 C           0.7526   -0.4513    1.5123 C.3     1  UNL1        0.0824
      4 C          -0.2103   -0.0010    0.4784 C.ar    1  UNL1        0.1206
      5 N          -1.5062   -0.3240    0.5842 N.ar    1  UNL1       -0.2186
      6 C          -2.4439    0.0395   -0.3324 C.ar    1  UNL1        0.1285
      7 N          -3.7687   -0.3497   -0.0784 N.pl3   1  UNL1       -0.3106
      8 C          -4.8639   -0.3297   -1.0228 C.3     1  UNL1        0.0370
      9 C          -6.0513    0.2145   -0.2101 C.3     1  UNL1        0.0634
     10 O          -5.6442    1.0265    0.8227 O.3     1  UNL1       -0.3767
     11 C          -4.9312    0.4049    1.8282 C.3     1  UNL1        0.0634
     12 C          -4.1574   -0.8055    1.2673 C.3     1  UNL1        0.0370
     13 C          -2.0325    0.7719   -1.4142 C.ar    1  UNL1        0.0427
     14 C          -0.6974    1.0911   -1.5017 C.ar    1  UNL1        0.2533
     15 O          -0.2431    1.7682   -2.4799 O.2     1  UNL1       -0.2677
     16 N           0.2007    0.7199   -0.5847 N.ar    1  UNL1       -0.3104
     17 N           3.1326   -0.7545    0.7462 N.am    1  UNL1       -0.2851
     18 C           4.4282   -0.3710    0.4028 C.ar    1  UNL1        0.0344
     19 C           4.8938    0.8938    0.4392 C.ar    1  UNL1       -0.0404
     20 C           6.2186    1.2201    0.0935 C.ar    1  UNL1       -0.0590
     21 C           7.0805    0.2505   -0.2940 C.ar    1  UNL1       -0.0476
     22 C           6.6434   -1.0422   -0.3436 C.ar    1  UNL1        0.0196
     23 BR          7.8675   -2.3967   -0.8994 Br      1  UNL1       -0.0502
     24 C           5.3451   -1.3535   -0.0035 C.ar    1  UNL1       -0.0265
     25 H           0.7580   -1.5535    1.5606 H       1  UNL1        0.0438
     26 H           0.4830   -0.0720    2.5101 H       1  UNL1        0.0438
     27 H          -4.6824    0.2275   -1.9405 H       1  UNL1        0.0487
     28 H          -5.0797   -1.3975   -1.2810 H       1  UNL1        0.0487
     29 H          -6.6512   -0.6529    0.1412 H       1  UNL1        0.0575
     30 H          -6.6815    0.7999   -0.8837 H       1  UNL1        0.0575
     31 H          -4.1107    1.1237    2.1015 H       1  UNL1        0.0575
     32 H          -5.4972    0.1644    2.7354 H       1  UNL1        0.0575
     33 H          -3.2986   -1.0504    1.8858 H       1  UNL1        0.0487
     34 H          -4.8769   -1.6318    1.1712 H       1  UNL1        0.0487
     35 H          -2.7325    1.0753   -2.1530 H       1  UNL1        0.0706
     36 H           1.1968    0.9677   -0.6758 H       1  UNL1        0.1700
     37 H           2.8281   -1.7901    0.6892 H       1  UNL1        0.1548
     38 H           4.3073    1.7238    0.7235 H       1  UNL1        0.0636
     39 H           6.5611    2.2522    0.1384 H       1  UNL1        0.0618
     40 H           8.1026    0.5369   -0.5554 H       1  UNL1        0.0629
     41 H           4.9828   -2.3679   -0.0371 H       1  UNL1        0.0647
@<TRIPOS>BOND
     1     1     2    2
     2     2     3    1
     3     3     4    1
     4     4     5   ar
     5     5     6   ar
     6     6     7    1
     7     7     8    1
     8     8     9    1
     9     9    10    1
    10    10    11    1
    11    11    12    1
    12     6    13   ar
    13    13    14   ar
    14    14    15    2
    15    14    16   ar
    16     2    17   am
    17    17    18    1
    18    18    19   ar
    19    19    20   ar
    20    20    21   ar
    21    21    22   ar
    22    22    23    1
    23    22    24   ar
    24    16     4   ar
    25    24    18   ar
    26    12     7    1
    27     3    25    1
    28     3    26    1
    29     8    27    1
    30     8    28    1
    31     9    29    1
    32     9    30    1
    33    11    31    1
    34    11    32    1
    35    12    33    1
    36    12    34    1
    37    13    35    1
    38    16    36    1
    39    17    37    1
    40    19    38    1
    41    20    39    1
    42    21    40    1
    43    24    41    1
