
     RDKit          3D

 41 43  0  0  0  0  0  0  0  0999 V2000
    2.2753    1.3230    1.3114 O   0  0  0  0  0  0  0  0  0  0  0  0
    2.1028    0.1000    1.1842 C   0  0  0  0  0  0  0  0  0  0  0  0
    0.7526   -0.4513    1.5123 C   0  0  0  0  0  0  0  0  0  0  0  0
   -0.2103   -0.0010    0.4784 C   0  0  0  0  0  0  0  0  0  0  0  0
   -1.5062   -0.3240    0.5842 N   0  0  0  0  0  0  0  0  0  0  0  0
   -2.4439    0.0395   -0.3324 C   0  0  0  0  0  0  0  0  0  0  0  0
   -3.7687   -0.3497   -0.0784 N   0  0  0  0  0  0  0  0  0  0  0  0
   -4.8639   -0.3297   -1.0228 C   0  0  0  0  0  0  0  0  0  0  0  0
   -6.0513    0.2145   -0.2101 C   0  0  0  0  0  0  0  0  0  0  0  0
   -5.6442    1.0265    0.8227 O   0  0  0  0  0  0  0  0  0  0  0  0
   -4.9312    0.4049    1.8282 C   0  0  0  0  0  0  0  0  0  0  0  0
   -4.1574   -0.8055    1.2673 C   0  0  0  0  0  0  0  0  0  0  0  0
   -2.0325    0.7719   -1.4142 C   0  0  0  0  0  0  0  0  0  0  0  0
   -0.6974    1.0911   -1.5017 C   0  0  0  0  0  0  0  0  0  0  0  0
   -0.2431    1.7682   -2.4799 O   0  0  0  0  0  0  0  0  0  0  0  0
    0.2007    0.7199   -0.5847 N   0  0  0  0  0  0  0  0  0  0  0  0
    3.1326   -0.7545    0.7462 N   0  0  0  0  0  0  0  0  0  0  0  0
    4.4282   -0.3710    0.4028 C   0  0  0  0  0  0  0  0  0  0  0  0
    4.8938    0.8938    0.4392 C   0  0  0  0  0  0  0  0  0  0  0  0
    6.2186    1.2201    0.0935 C   0  0  0  0  0  0  0  0  0  0  0  0
    7.0805    0.2505   -0.2940 C   0  0  0  0  0  0  0  0  0  0  0  0
    6.6434   -1.0422   -0.3436 C   0  0  0  0  0  0  0  0  0  0  0  0
    7.8675   -2.3967   -0.8994 Br  0  0  0  0  0  0  0  0  0  0  0  0
    5.3451   -1.3535   -0.0035 C   0  0  0  0  0  0  0  0  0  0  0  0
    0.7580   -1.5535    1.5606 H   0  0  0  0  0  0  0  0  0  0  0  0
    0.4830   -0.0720    2.5101 H   0  0  0  0  0  0  0  0  0  0  0  0
   -4.6824    0.2275   -1.9405 H   0  0  0  0  0  0  0  0  0  0  0  0
   -5.0797   -1.3975   -1.2810 H   0  0  0  0  0  0  0  0  0  0  0  0
   -6.6512   -0.6529    0.1412 H   0  0  0  0  0  0  0  0  0  0  0  0
   -6.6815    0.7999   -0.8837 H   0  0  0  0  0  0  0  0  0  0  0  0
   -4.1107    1.1237    2.1015 H   0  0  0  0  0  0  0  0  0  0  0  0
   -5.4972    0.1644    2.7354 H   0  0  0  0  0  0  0  0  0  0  0  0
   -3.2986   -1.0504    1.8858 H   0  0  0  0  0  0  0  0  0  0  0  0
   -4.8769   -1.6318    1.1712 H   0  0  0  0  0  0  0  0  0  0  0  0
   -2.7325    1.0753   -2.1530 H   0  0  0  0  0  0  0  0  0  0  0  0
    1.1968    0.9677   -0.6758 H   0  0  0  0  0  0  0  0  0  0  0  0
    2.8281   -1.7901    0.6892 H   0  0  0  0  0  0  0  0  0  0  0  0
    4.3073    1.7238    0.7235 H   0  0  0  0  0  0  0  0  0  0  0  0
    6.5611    2.2522    0.1384 H   0  0  0  0  0  0  0  0  0  0  0  0
    8.1026    0.5369   -0.5554 H   0  0  0  0  0  0  0  0  0  0  0  0
    4.9828   -2.3679   -0.0371 H   0  0  0  0  0  0  0  0  0  0  0  0
  1  2  2  0
  2  3  1  0
  3  4  1  0
  4  5  2  0
  5  6  1  0
  6  7  1  0
  7  8  1  0
  8  9  1  0
  9 10  1  0
 10 11  1  0
 11 12  1  0
  6 13  2  0
 13 14  1  0
 14 15  2  0
 14 16  1  0
  2 17  1  0
 17 18  1  0
 18 19  2  0
 19 20  1  0
 20 21  2  0
 21 22  1  0
 22 23  1  0
 22 24  2  0
 16  4  1  0
 24 18  1  0
 12  7  1  0
  3 25  1  0
  3 26  1  0
  8 27  1  0
  8 28  1  0
  9 29  1  0
  9 30  1  0
 11 31  1  0
 11 32  1  0
 12 33  1  0
 12 34  1  0
 13 35  1  0
 16 36  1  0
 17 37  1  0
 19 38  1  0
 20 39  1  0
 21 40  1  0
 24 41  1  0
M  END
$$$$
