@<TRIPOS>MOLECULE
*****
 63 66 0 0 0
SMALL
GASTEIGER

@<TRIPOS>ATOM
      1 C         -10.4288    1.1988   -0.0053 C.3     1  UNL1       -0.0014
      2 C          -9.2717    1.8952   -0.6274 C.2     1  UNL1        0.1601
      3 O          -9.3868    2.9478   -1.2892 O.2     1  UNL1       -0.2924
      4 C          -7.9515    1.3041   -0.4432 C.ar    1  UNL1        0.0172
      5 C          -7.7543    0.1454    0.2707 C.ar    1  UNL1       -0.0495
      6 C          -6.5173   -0.4271    0.4569 C.ar    1  UNL1       -0.0400
      7 C          -5.3800    0.1692   -0.0914 C.ar    1  UNL1        0.0298
      8 N          -4.1008   -0.4428    0.1076 N.pl3   1  UNL1       -0.3269
      9 C          -2.9274    0.3014   -0.2828 C.3     1  UNL1        0.0280
     10 C          -1.8044   -0.1590    0.6620 C.3     1  UNL1        0.0305
     11 N          -1.5598   -1.5443    0.3155 N.am    1  UNL1       -0.2974
     12 C          -0.2731   -2.0221   -0.0564 C.2     1  UNL1        0.2297
     13 O          -0.1179   -3.2227   -0.3401 O.2     1  UNL1       -0.2742
     14 C           0.8326   -1.0549   -0.0875 C.3     1  UNL1        0.0759
     15 N           2.1022   -1.6303   -0.4682 N.3     1  UNL1       -0.2933
     16 C           2.6348   -2.5286    0.4975 C.3     1  UNL1        0.0001
     17 C           4.0027   -2.0070    0.8696 C.3     1  UNL1       -0.0279
     18 C           3.8164   -0.5325    0.7281 C.3     1  UNL1        0.0497
     19 C           5.0419    0.2306    0.5323 C.2     1  UNL1        0.2216
     20 O           5.3173    1.1263    1.4009 O.2     1  UNL1       -0.2751
     21 N           5.9536    0.0732   -0.5274 N.am    1  UNL1       -0.2852
     22 C           7.1169    0.8741   -0.6165 C.ar    1  UNL1        0.0350
     23 C           7.1201    2.0725   -1.2908 C.ar    1  UNL1       -0.0369
     24 C           8.2773    2.8542   -1.3703 C.ar    1  UNL1       -0.0170
     25 C           9.4402    2.4383   -0.7733 C.ar    1  UNL1        0.1352
     26 O          10.6189    3.1738   -0.8205 O.3     1  UNL1       -0.5053
     27 C           9.4479    1.2358   -0.0934 C.ar    1  UNL1        0.0840
     28 CL         10.9457    0.6896    0.6817 Cl      1  UNL1       -0.0797
     29 C           8.2842    0.4599   -0.0191 C.ar    1  UNL1       -0.0186
     30 C           3.0275   -0.5007   -0.5912 C.3     1  UNL1        0.0105
     31 C          -2.6894   -2.4380    0.3645 C.3     1  UNL1        0.0305
     32 C          -3.9778   -1.7619    0.6739 C.3     1  UNL1        0.0280
     33 C          -5.5603    1.3242   -0.8056 C.ar    1  UNL1       -0.0400
     34 C          -6.8169    1.8816   -0.9790 C.ar    1  UNL1       -0.0495
     35 H         -11.3758    1.7439   -0.1634 H       1  UNL1        0.0309
     36 H         -10.2276    0.9186    1.0275 H       1  UNL1        0.0309
     37 H         -10.5418    0.2326   -0.5718 H       1  UNL1        0.0309
     38 H          -8.6412   -0.3188    0.6986 H       1  UNL1        0.0625
     39 H          -6.4111   -1.3567    1.0394 H       1  UNL1        0.0636
     40 H          -2.6484   -0.0181   -1.3072 H       1  UNL1        0.0479
     41 H          -3.0532    1.4013   -0.2032 H       1  UNL1        0.0479
     42 H          -0.9102    0.4818    0.5309 H       1  UNL1        0.0480
     43 H          -2.1705   -0.1391    1.7174 H       1  UNL1        0.0480
     44 H           0.9153   -0.6087    0.9326 H       1  UNL1        0.0522
     45 H           0.5742   -0.2148   -0.7618 H       1  UNL1        0.0522
     46 H           2.6611   -3.5867    0.1732 H       1  UNL1        0.0427
     47 H           2.0080   -2.4553    1.4303 H       1  UNL1        0.0427
     48 H           4.2718   -2.3260    1.8941 H       1  UNL1        0.0285
     49 H           4.7799   -2.4233    0.1826 H       1  UNL1        0.0285
     50 H           3.1874   -0.1845    1.5548 H       1  UNL1        0.0407
     51 H           5.7455   -0.6532   -1.2470 H       1  UNL1        0.1548
     52 H           6.1886    2.3821   -1.7562 H       1  UNL1        0.0637
     53 H           8.2806    3.7921   -1.8984 H       1  UNL1        0.0655
     54 H          11.0794    3.5225    0.0203 H       1  UNL1        0.2922
     55 H           8.3826   -0.4712    0.5366 H       1  UNL1        0.0652
     56 H           2.5195    0.4633   -0.6291 H       1  UNL1        0.0434
     57 H           3.7150   -0.6190   -1.4327 H       1  UNL1        0.0434
     58 H          -2.7936   -3.0198   -0.5934 H       1  UNL1        0.0480
     59 H          -2.4499   -3.2060    1.1543 H       1  UNL1        0.0480
     60 H          -4.0702   -1.6635    1.7750 H       1  UNL1        0.0479
     61 H          -4.8368   -2.4243    0.3575 H       1  UNL1        0.0479
     62 H          -4.6929    1.8285   -1.2603 H       1  UNL1        0.0636
     63 H          -6.9477    2.7979   -1.5484 H       1  UNL1        0.0625
@<TRIPOS>BOND
     1     1     2    1
     2     2     3    2
     3     2     4    1
     4     4     5   ar
     5     5     6   ar
     6     6     7   ar
     7     7     8    1
     8     8     9    1
     9     9    10    1
    10    10    11    1
    11    11    12   am
    12    12    13    2
    13    12    14    1
    14    14    15    1
    15    15    16    1
    16    16    17    1
    17    17    18    1
    18    18    19    1
    19    19    20    2
    20    19    21   am
    21    21    22    1
    22    22    23   ar
    23    23    24   ar
    24    24    25   ar
    25    25    26    1
    26    25    27   ar
    27    27    28    1
    28    27    29   ar
    29    18    30    1
    30    11    31    1
    31    31    32    1
    32     7    33   ar
    33    33    34   ar
    34    34     4   ar
    35    32     8    1
    36    30    15    1
    37    29    22   ar
    38     1    35    1
    39     1    36    1
    40     1    37    1
    41     5    38    1
    42     6    39    1
    43     9    40    1
    44     9    41    1
    45    10    42    1
    46    10    43    1
    47    14    44    1
    48    14    45    1
    49    16    46    1
    50    16    47    1
    51    17    48    1
    52    17    49    1
    53    18    50    1
    54    21    51    1
    55    23    52    1
    56    24    53    1
    57    26    54    1
    58    29    55    1
    59    30    56    1
    60    30    57    1
    61    31    58    1
    62    31    59    1
    63    32    60    1
    64    32    61    1
    65    33    62    1
    66    34    63    1
