@<TRIPOS>MOLECULE
*****
 57 60 0 0 0
SMALL
GASTEIGER

@<TRIPOS>ATOM
      1 C          -2.7622    6.5888   -1.7472 C.3     1  UNL1       -0.0191
      2 C          -2.1236    5.3160   -1.3509 C.ar    1  UNL1        0.0812
      3 C          -2.6812    4.1172   -1.0161 C.ar    1  UNL1        0.0082
      4 C          -1.6224    3.2545   -0.7289 C.ar    1  UNL1        0.1722
      5 C          -1.7861    1.8730   -0.3281 C.ar    1  UNL1        0.0778
      6 C          -3.0996    1.3787   -0.2282 C.ar    1  UNL1        0.0452
      7 N          -3.2797    0.1180    0.1309 N.ar    1  UNL1       -0.2218
      8 C          -2.3040   -0.7439    0.4126 C.ar    1  UNL1        0.2212
      9 N          -2.5503   -2.0847    0.7934 N.pl3   1  UNL1       -0.2835
     10 C          -3.8049   -2.7265    0.8753 C.ar    1  UNL1        0.0363
     11 C          -4.9253   -2.1990    0.3030 C.ar    1  UNL1       -0.0220
     12 C          -6.1380   -2.8810    0.4456 C.ar    1  UNL1        0.0441
     13 CL         -7.5632   -2.1559   -0.3140 Cl      1  UNL1       -0.0834
     14 C          -6.2308   -4.0634    1.1433 C.ar    1  UNL1       -0.0249
     15 C          -5.0981   -4.6086    1.7284 C.ar    1  UNL1        0.0441
     16 CL         -5.2154   -6.1156    2.6178 Cl      1  UNL1       -0.0834
     17 C          -3.9165   -3.9387    1.5866 C.ar    1  UNL1       -0.0220
     18 N          -1.0507   -0.2646    0.3152 N.ar    1  UNL1       -0.1988
     19 C          -0.7773    0.9922   -0.0396 C.ar    1  UNL1        0.1349
     20 N           0.5794    1.4218   -0.1030 N.pl3   1  UNL1       -0.3255
     21 C           1.6895    0.4943    0.1749 C.3     1  UNL1        0.0221
     22 C           2.9398    1.3018    0.1223 C.3     1  UNL1       -0.0331
     23 C           4.1956    0.5813   -0.1834 C.3     1  UNL1       -0.0357
     24 C           4.0426   -0.9383   -0.1185 C.3     1  UNL1        0.0100
     25 N           5.2919   -1.4915   -0.5387 N.3     1  UNL1       -0.3054
     26 C           5.3736   -2.9144   -0.5535 C.3     1  UNL1       -0.0128
     27 C           6.4291   -0.9623    0.1537 C.3     1  UNL1       -0.0128
     28 C           2.9502   -1.2920   -1.0962 C.3     1  UNL1       -0.0357
     29 C           1.6630   -0.5756   -0.8673 C.3     1  UNL1       -0.0331
     30 O          -0.5420    3.9318   -0.8939 O.2     1  UNL1       -0.3543
     31 N          -0.7992    5.1418   -1.2579 N.ar    1  UNL1       -0.0829
     32 H          -2.4123    6.8356   -2.7666 H       1  UNL1        0.0294
     33 H          -3.8656    6.4401   -1.7210 H       1  UNL1        0.0294
     34 H          -2.4418    7.3796   -1.0493 H       1  UNL1        0.0294
     35 H          -3.7415    3.9374   -0.9971 H       1  UNL1        0.0674
     36 H          -3.9580    1.9902   -0.4335 H       1  UNL1        0.0839
     37 H          -1.7144   -2.7139    1.0522 H       1  UNL1        0.1550
     38 H          -4.9321   -1.2877   -0.2659 H       1  UNL1        0.0651
     39 H          -7.2056   -4.5591    1.2263 H       1  UNL1        0.0647
     40 H          -3.0280   -4.3573    2.0409 H       1  UNL1        0.0651
     41 H           0.7890    2.3964   -0.3449 H       1  UNL1        0.1478
     42 H           1.5398    0.1168    1.2072 H       1  UNL1        0.0498
     43 H           2.8084    2.1685   -0.5771 H       1  UNL1        0.0284
     44 H           3.0899    1.8012    1.1261 H       1  UNL1        0.0284
     45 H           4.5175    0.7834   -1.2446 H       1  UNL1        0.0281
     46 H           5.0514    0.8406    0.4486 H       1  UNL1        0.0281
     47 H           3.7731   -1.2492    0.9126 H       1  UNL1        0.0462
     48 H           5.6677   -3.3651    0.4126 H       1  UNL1        0.0391
     49 H           4.4963   -3.4251   -0.9471 H       1  UNL1        0.0391
     50 H           6.2210   -3.1746   -1.2557 H       1  UNL1        0.0391
     51 H           6.2028   -0.6664    1.1921 H       1  UNL1        0.0391
     52 H           6.7638   -0.0507   -0.3860 H       1  UNL1        0.0391
     53 H           7.2983   -1.6610    0.1574 H       1  UNL1        0.0391
     54 H           2.7469   -2.3773   -1.0678 H       1  UNL1        0.0281
     55 H           3.3350   -0.9772   -2.1053 H       1  UNL1        0.0281
     56 H           0.8249   -1.2922   -0.6115 H       1  UNL1        0.0284
     57 H           1.2896   -0.0880   -1.8173 H       1  UNL1        0.0284
@<TRIPOS>BOND
     1     1     2    1
     2     2     3   ar
     3     3     4   ar
     4     4     5    1
     5     5     6   ar
     6     6     7   ar
     7     7     8   ar
     8     8     9    1
     9     9    10    1
    10    10    11   ar
    11    11    12   ar
    12    12    13    1
    13    12    14   ar
    14    14    15   ar
    15    15    16    1
    16    15    17   ar
    17     8    18   ar
    18    18    19   ar
    19    19    20    1
    20    20    21    1
    21    21    22    1
    22    22    23    1
    23    23    24    1
    24    24    25    1
    25    25    26    1
    26    25    27    1
    27    24    28    1
    28    28    29    1
    29     4    30   ar
    30    30    31   ar
    31    31     2   ar
    32    19     5   ar
    33    29    21    1
    34    17    10   ar
    35     1    32    1
    36     1    33    1
    37     1    34    1
    38     3    35    1
    39     6    36    1
    40     9    37    1
    41    11    38    1
    42    14    39    1
    43    17    40    1
    44    20    41    1
    45    21    42    1
    46    22    43    1
    47    22    44    1
    48    23    45    1
    49    23    46    1
    50    24    47    1
    51    26    48    1
    52    26    49    1
    53    26    50    1
    54    27    51    1
    55    27    52    1
    56    27    53    1
    57    28    54    1
    58    28    55    1
    59    29    56    1
    60    29    57    1
