
     RDKit          3D

 57 60  0  0  0  0  0  0  0  0999 V2000
   -2.7622    6.5888   -1.7472 C   0  0  0  0  0  0  0  0  0  0  0  0
   -2.1236    5.3160   -1.3509 C   0  0  0  0  0  0  0  0  0  0  0  0
   -2.6812    4.1172   -1.0161 C   0  0  0  0  0  0  0  0  0  0  0  0
   -1.6224    3.2545   -0.7289 C   0  0  0  0  0  0  0  0  0  0  0  0
   -1.7861    1.8730   -0.3281 C   0  0  0  0  0  0  0  0  0  0  0  0
   -3.0996    1.3787   -0.2282 C   0  0  0  0  0  0  0  0  0  0  0  0
   -3.2797    0.1180    0.1309 N   0  0  0  0  0  0  0  0  0  0  0  0
   -2.3040   -0.7439    0.4126 C   0  0  0  0  0  0  0  0  0  0  0  0
   -2.5503   -2.0847    0.7934 N   0  0  0  0  0  0  0  0  0  0  0  0
   -3.8049   -2.7265    0.8753 C   0  0  0  0  0  0  0  0  0  0  0  0
   -4.9253   -2.1990    0.3030 C   0  0  0  0  0  0  0  0  0  0  0  0
   -6.1380   -2.8810    0.4456 C   0  0  0  0  0  0  0  0  0  0  0  0
   -7.5632   -2.1559   -0.3140 Cl  0  0  0  0  0  0  0  0  0  0  0  0
   -6.2308   -4.0634    1.1433 C   0  0  0  0  0  0  0  0  0  0  0  0
   -5.0981   -4.6086    1.7284 C   0  0  0  0  0  0  0  0  0  0  0  0
   -5.2154   -6.1156    2.6178 Cl  0  0  0  0  0  0  0  0  0  0  0  0
   -3.9165   -3.9387    1.5866 C   0  0  0  0  0  0  0  0  0  0  0  0
   -1.0507   -0.2646    0.3152 N   0  0  0  0  0  0  0  0  0  0  0  0
   -0.7773    0.9922   -0.0396 C   0  0  0  0  0  0  0  0  0  0  0  0
    0.5794    1.4218   -0.1030 N   0  0  0  0  0  0  0  0  0  0  0  0
    1.6895    0.4943    0.1749 C   0  0  0  0  0  0  0  0  0  0  0  0
    2.9398    1.3018    0.1223 C   0  0  0  0  0  0  0  0  0  0  0  0
    4.1956    0.5813   -0.1834 C   0  0  0  0  0  0  0  0  0  0  0  0
    4.0426   -0.9383   -0.1185 C   0  0  0  0  0  0  0  0  0  0  0  0
    5.2919   -1.4915   -0.5387 N   0  0  0  0  0  0  0  0  0  0  0  0
    5.3736   -2.9144   -0.5535 C   0  0  0  0  0  0  0  0  0  0  0  0
    6.4291   -0.9623    0.1537 C   0  0  0  0  0  0  0  0  0  0  0  0
    2.9502   -1.2920   -1.0962 C   0  0  0  0  0  0  0  0  0  0  0  0
    1.6630   -0.5756   -0.8673 C   0  0  0  0  0  0  0  0  0  0  0  0
   -0.5420    3.9318   -0.8939 O   0  0  0  0  0  0  0  0  0  0  0  0
   -0.7992    5.1418   -1.2579 N   0  0  0  0  0  0  0  0  0  0  0  0
   -2.4123    6.8356   -2.7666 H   0  0  0  0  0  0  0  0  0  0  0  0
   -3.8656    6.4401   -1.7210 H   0  0  0  0  0  0  0  0  0  0  0  0
   -2.4418    7.3796   -1.0493 H   0  0  0  0  0  0  0  0  0  0  0  0
   -3.7415    3.9374   -0.9971 H   0  0  0  0  0  0  0  0  0  0  0  0
   -3.9580    1.9902   -0.4335 H   0  0  0  0  0  0  0  0  0  0  0  0
   -1.7144   -2.7139    1.0522 H   0  0  0  0  0  0  0  0  0  0  0  0
   -4.9321   -1.2877   -0.2659 H   0  0  0  0  0  0  0  0  0  0  0  0
   -7.2056   -4.5591    1.2263 H   0  0  0  0  0  0  0  0  0  0  0  0
   -3.0280   -4.3573    2.0409 H   0  0  0  0  0  0  0  0  0  0  0  0
    0.7890    2.3964   -0.3449 H   0  0  0  0  0  0  0  0  0  0  0  0
    1.5398    0.1168    1.2072 H   0  0  0  0  0  0  0  0  0  0  0  0
    2.8084    2.1685   -0.5771 H   0  0  0  0  0  0  0  0  0  0  0  0
    3.0899    1.8012    1.1261 H   0  0  0  0  0  0  0  0  0  0  0  0
    4.5175    0.7834   -1.2446 H   0  0  0  0  0  0  0  0  0  0  0  0
    5.0514    0.8406    0.4486 H   0  0  0  0  0  0  0  0  0  0  0  0
    3.7731   -1.2492    0.9126 H   0  0  0  0  0  0  0  0  0  0  0  0
    5.6677   -3.3651    0.4126 H   0  0  0  0  0  0  0  0  0  0  0  0
    4.4963   -3.4251   -0.9471 H   0  0  0  0  0  0  0  0  0  0  0  0
    6.2210   -3.1746   -1.2557 H   0  0  0  0  0  0  0  0  0  0  0  0
    6.2028   -0.6664    1.1921 H   0  0  0  0  0  0  0  0  0  0  0  0
    6.7638   -0.0507   -0.3860 H   0  0  0  0  0  0  0  0  0  0  0  0
    7.2983   -1.6610    0.1574 H   0  0  0  0  0  0  0  0  0  0  0  0
    2.7469   -2.3773   -1.0678 H   0  0  0  0  0  0  0  0  0  0  0  0
    3.3350   -0.9772   -2.1053 H   0  0  0  0  0  0  0  0  0  0  0  0
    0.8249   -1.2922   -0.6115 H   0  0  0  0  0  0  0  0  0  0  0  0
    1.2896   -0.0880   -1.8173 H   0  0  0  0  0  0  0  0  0  0  0  0
  1  2  1  0
  2  3  1  0
  3  4  2  0
  4  5  1  0
  5  6  2  0
  6  7  1  0
  7  8  2  0
  8  9  1  0
  9 10  1  0
 10 11  2  0
 11 12  1  0
 12 13  1  0
 12 14  2  0
 14 15  1  0
 15 16  1  0
 15 17  2  0
  8 18  1  0
 18 19  2  0
 19 20  1  0
 20 21  1  0
 21 22  1  0
 22 23  1  0
 23 24  1  0
 24 25  1  0
 25 26  1  0
 25 27  1  0
 24 28  1  0
 28 29  1  0
  4 30  1  0
 30 31  1  0
 31  2  2  0
 19  5  1  0
 29 21  1  0
 17 10  1  0
  1 32  1  0
  1 33  1  0
  1 34  1  0
  3 35  1  0
  6 36  1  0
  9 37  1  0
 11 38  1  0
 14 39  1  0
 17 40  1  0
 20 41  1  0
 21 42  1  0
 22 43  1  0
 22 44  1  0
 23 45  1  0
 23 46  1  0
 24 47  1  0
 26 48  1  0
 26 49  1  0
 26 50  1  0
 27 51  1  0
 27 52  1  0
 27 53  1  0
 28 54  1  0
 28 55  1  0
 29 56  1  0
 29 57  1  0
M  END
$$$$
