
     RDKit          3D

 42 43  0  0  0  0  0  0  0  0999 V2000
   -1.1916    1.6858   -2.2582 C   0  0  0  0  0  0  0  0  0  0  0  0
   -1.1046    0.1830   -2.0404 C   0  0  2  0  0  0  0  0  0  0  0  0
   -1.6114   -0.5162   -3.1318 O   0  0  0  0  0  0  0  0  0  0  0  0
   -1.9343   -0.1265   -0.8069 C   0  0  0  0  0  0  0  0  0  0  0  0
   -3.2830    0.2445   -0.9862 O   0  0  0  0  0  0  0  0  0  0  0  0
   -4.1692    0.0217    0.0591 C   0  0  0  0  0  0  0  0  0  0  0  0
   -4.7615   -1.2233   -0.0129 C   0  0  0  0  0  0  0  0  0  0  0  0
   -4.5166   -2.1462   -0.9939 F   0  0  0  0  0  0  0  0  0  0  0  0
   -5.6799   -1.6422    0.9384 C   0  0  0  0  0  0  0  0  0  0  0  0
   -6.2736   -2.8487    0.8954 F   0  0  0  0  0  0  0  0  0  0  0  0
   -5.9945   -0.7816    1.9704 C   0  0  0  0  0  0  0  0  0  0  0  0
   -6.8759   -1.0962    2.9453 F   0  0  0  0  0  0  0  0  0  0  0  0
   -5.4034    0.4538    2.0372 C   0  0  0  0  0  0  0  0  0  0  0  0
   -5.6747    1.3492    3.0350 F   0  0  0  0  0  0  0  0  0  0  0  0
   -4.4937    0.8698    1.0956 C   0  0  0  0  0  0  0  0  0  0  0  0
   -3.8478    2.0735    1.0665 F   0  0  0  0  0  0  0  0  0  0  0  0
    0.2910   -0.2262   -1.7339 C   0  0  0  0  0  0  0  0  0  0  0  0
    0.7492   -1.1091   -2.4941 O   0  0  0  0  0  0  0  0  0  0  0  0
    1.0830    0.2876   -0.7023 N   0  0  0  0  0  0  0  0  0  0  0  0
    2.3918   -0.0296   -0.3385 C   0  0  0  0  0  0  0  0  0  0  0  0
    3.2228   -0.9503   -0.9289 C   0  0  0  0  0  0  0  0  0  0  0  0
    4.5133   -1.2429   -0.5496 C   0  0  0  0  0  0  0  0  0  0  0  0
    5.0298   -0.5512    0.5244 C   0  0  0  0  0  0  0  0  0  0  0  0
    4.2445    0.3830    1.1556 C   0  0  0  0  0  0  0  0  0  0  0  0
    2.9654    0.6260    0.7260 C   0  0  0  0  0  0  0  0  0  0  0  0
    4.7555    1.1529    2.3105 C   0  0  0  0  0  0  0  0  0  0  0  0
    5.8582    1.9157    2.0391 F   0  0  0  0  0  0  0  0  0  0  0  0
    3.7793    1.9043    2.9139 F   0  0  0  0  0  0  0  0  0  0  0  0
    5.1637    0.1976    3.2515 F   0  0  0  0  0  0  0  0  0  0  0  0
    6.3604   -0.8462    0.9262 N   0  0  0  0  0  4  0  0  0  0  0  0
    6.8816   -2.1135    0.7742 O   0  0  0  0  0  1  0  0  0  0  0  0
    7.2627   -0.1571    1.4365 O   0  0  0  0  0  0  0  0  0  0  0  0
   -2.0889    1.8434   -2.8977 H   0  0  0  0  0  0  0  0  0  0  0  0
   -0.3125    2.0802   -2.8029 H   0  0  0  0  0  0  0  0  0  0  0  0
   -1.2529    2.1565   -1.2643 H   0  0  0  0  0  0  0  0  0  0  0  0
   -1.6024    0.0936   -3.9318 H   0  0  0  0  0  0  0  0  0  0  0  0
   -1.4728    0.3892    0.0682 H   0  0  0  0  0  0  0  0  0  0  0  0
   -1.9017   -1.2134   -0.5689 H   0  0  0  0  0  0  0  0  0  0  0  0
    0.5519    1.0135   -0.1630 H   0  0  0  0  0  0  0  0  0  0  0  0
    2.8610   -1.5152   -1.7731 H   0  0  0  0  0  0  0  0  0  0  0  0
    5.1118   -1.9713   -1.0491 H   0  0  0  0  0  0  0  0  0  0  0  0
    2.3701    1.3822    1.2597 H   0  0  0  0  0  0  0  0  0  0  0  0
  1  2  1  0
  2  3  1  6
  2  4  1  0
  4  5  1  0
  5  6  1  0
  6  7  2  0
  7  8  1  0
  7  9  1  0
  9 10  1  0
  9 11  2  0
 11 12  1  0
 11 13  1  0
 13 14  1  0
 13 15  2  0
 15 16  1  0
  2 17  1  0
 17 18  2  0
 17 19  1  0
 19 20  1  0
 20 21  2  0
 21 22  1  0
 22 23  2  0
 23 24  1  0
 24 25  2  0
 24 26  1  0
 26 27  1  0
 26 28  1  0
 26 29  1  0
 23 30  1  0
 30 31  1  0
 30 32  2  0
 15  6  1  0
 25 20  1  0
  1 33  1  0
  1 34  1  0
  1 35  1  0
  3 36  1  0
  4 37  1  0
  4 38  1  0
 19 39  1  0
 21 40  1  0
 22 41  1  0
 25 42  1  0
M  CHG  2  30   1  31  -1
M  END
$$$$
