@<TRIPOS>MOLECULE
*****
 42 43 0 0 0
SMALL
GASTEIGER

@<TRIPOS>ATOM
      1 C          -1.1916    1.6858   -2.2582 C.3     1  UNL1       -0.0242
      2 C          -1.1046    0.1830   -2.0404 C.3     1  UNL1        0.1726
      3 O          -1.6114   -0.5162   -3.1318 O.3     1  UNL1       -0.3764
      4 C          -1.9343   -0.1265   -0.8069 C.3     1  UNL1        0.1268
      5 O          -3.2830    0.2445   -0.9862 O.3     1  UNL1       -0.4828
      6 C          -4.1692    0.0217    0.0591 C.ar    1  UNL1        0.1967
      7 C          -4.7615   -1.2233   -0.0129 C.ar    1  UNL1        0.2056
      8 F          -4.5166   -2.1462   -0.9939 F       1  UNL1       -0.1984
      9 C          -5.6799   -1.6422    0.9384 C.ar    1  UNL1        0.2000
     10 F          -6.2736   -2.8487    0.8954 F       1  UNL1       -0.1992
     11 C          -5.9945   -0.7816    1.9704 C.ar    1  UNL1        0.1993
     12 F          -6.8759   -1.0962    2.9453 F       1  UNL1       -0.1993
     13 C          -5.4034    0.4538    2.0372 C.ar    1  UNL1        0.2000
     14 F          -5.6747    1.3492    3.0350 F       1  UNL1       -0.1992
     15 C          -4.4937    0.8698    1.0956 C.ar    1  UNL1        0.2056
     16 F          -3.8478    2.0735    1.0665 F       1  UNL1       -0.1984
     17 C           0.2910   -0.2262   -1.7339 C.2     1  UNL1        0.2520
     18 O           0.7492   -1.1091   -2.4941 O.2     1  UNL1       -0.2722
     19 N           1.0830    0.2876   -0.7023 N.am    1  UNL1       -0.2830
     20 C           2.3918   -0.0296   -0.3385 C.ar    1  UNL1        0.0344
     21 C           3.2228   -0.9503   -0.9289 C.ar    1  UNL1       -0.0340
     22 C           4.5133   -1.2429   -0.5496 C.ar    1  UNL1        0.0179
     23 C           5.0298   -0.5512    0.5244 C.ar    1  UNL1        0.2849
     24 C           4.2445    0.3830    1.1556 C.ar    1  UNL1        0.1333
     25 C           2.9654    0.6260    0.7260 C.ar    1  UNL1       -0.0222
     26 C           4.7555    1.1529    2.3105 C.3     1  UNL1        0.4237
     27 F           5.8582    1.9157    2.0391 F       1  UNL1       -0.1656
     28 F           3.7793    1.9043    2.9139 F       1  UNL1       -0.1656
     29 F           5.1637    0.1976    3.2515 F       1  UNL1       -0.1656
     30 N           6.3604   -0.8462    0.9262 N.pl3   1  UNL1        0.0802
     31 O           6.8816   -2.1135    0.7742 O.co2   1  UNL1       -0.5760
     32 O           7.2627   -0.1571    1.4365 O.2     1  UNL1        0.0415
     33 H          -2.0889    1.8434   -2.8977 H       1  UNL1        0.0263
     34 H          -0.3125    2.0802   -2.8029 H       1  UNL1        0.0263
     35 H          -1.2529    2.1565   -1.2643 H       1  UNL1        0.0263
     36 H          -1.6024    0.0936   -3.9318 H       1  UNL1        0.2109
     37 H          -1.4728    0.3892    0.0682 H       1  UNL1        0.0731
     38 H          -1.9017   -1.2134   -0.5689 H       1  UNL1        0.0731
     39 H           0.5519    1.0135   -0.1630 H       1  UNL1        0.1549
     40 H           2.8610   -1.5152   -1.7731 H       1  UNL1        0.0638
     41 H           5.1118   -1.9713   -1.0491 H       1  UNL1        0.0686
     42 H           2.3701    1.3822    1.2597 H       1  UNL1        0.0644
@<TRIPOS>UNITY_ATOM_ATTR
30 1
charge 1
31 1
charge -1
@<TRIPOS>BOND
     1     1     2    1
     2     2     3    1
     3     2     4    1
     4     4     5    1
     5     5     6    1
     6     6     7   ar
     7     7     8    1
     8     7     9   ar
     9     9    10    1
    10     9    11   ar
    11    11    12    1
    12    11    13   ar
    13    13    14    1
    14    13    15   ar
    15    15    16    1
    16     2    17    1
    17    17    18    2
    18    17    19   am
    19    19    20    1
    20    20    21   ar
    21    21    22   ar
    22    22    23   ar
    23    23    24   ar
    24    24    25   ar
    25    24    26    1
    26    26    27    1
    27    26    28    1
    28    26    29    1
    29    23    30    1
    30    30    31    1
    31    30    32    2
    32    15     6   ar
    33    25    20   ar
    34     1    33    1
    35     1    34    1
    36     1    35    1
    37     3    36    1
    38     4    37    1
    39     4    38    1
    40    19    39    1
    41    21    40    1
    42    22    41    1
    43    25    42    1
