@<TRIPOS>MOLECULE
*****
 58 61 0 0 0
SMALL
GASTEIGER

@<TRIPOS>ATOM
      1 N           0.1572    1.0444    1.5884 N.3     1  UNL1       -0.3173
      2 C           0.6712    0.5028    0.3444 C.3     1  UNL1        0.0965
      3 C          -0.4975    0.2084   -0.5250 C.2     1  UNL1        0.2336
      4 O          -0.2436   -0.2793   -1.6777 O.2     1  UNL1       -0.2738
      5 N          -1.8184    0.4511   -0.1084 N.am    1  UNL1       -0.3070
      6 C          -2.9730    0.1722   -0.9382 C.3     1  UNL1        0.0485
      7 C          -3.6213    1.3913   -1.4370 C.3     1  UNL1       -0.0283
      8 C          -4.1550    2.4122   -0.5324 C.3     1  UNL1       -0.0277
      9 C          -5.2460    2.0454    0.4119 C.3     1  UNL1        0.0443
     10 O          -6.3822    1.5590   -0.2447 O.3     1  UNL1       -0.3950
     11 C          -3.7792   -0.9098   -0.4004 C.ar    1  UNL1       -0.0271
     12 C          -3.8882   -1.1503    0.9435 C.ar    1  UNL1       -0.0554
     13 C          -4.6690   -2.1950    1.4228 C.ar    1  UNL1       -0.0431
     14 C          -5.3640   -3.0295    0.5590 C.ar    1  UNL1        0.0410
     15 CL         -6.3376   -4.3351    1.1936 Cl      1  UNL1       -0.0835
     16 C          -5.2526   -2.7863   -0.7817 C.ar    1  UNL1       -0.0431
     17 C          -4.4746   -1.7457   -1.2525 C.ar    1  UNL1       -0.0554
     18 C           1.5554    1.5236   -0.2692 C.3     1  UNL1       -0.0104
     19 C           3.0299    1.3073   -0.1580 C.3     1  UNL1        0.0156
     20 N           3.4250   -0.0503   -0.0219 N.pl3   1  UNL1       -0.3144
     21 C           4.7031   -0.5160    0.3765 C.ar    1  UNL1        0.1337
     22 N           4.8662   -1.1831    1.5618 N.ar    1  UNL1       -0.2200
     23 C           6.0454   -1.6277    1.9842 C.ar    1  UNL1        0.1204
     24 N           7.1544   -1.4389    1.2521 N.ar    1  UNL1       -0.2178
     25 C           7.0946   -0.7914    0.0670 C.ar    1  UNL1        0.1432
     26 N           8.0410   -0.4761   -0.8541 N.ar    1  UNL1       -0.3457
     27 C           7.4530    0.1743   -1.8700 C.ar    1  UNL1        0.0042
     28 C           6.0910    0.2646   -1.5652 C.ar    1  UNL1       -0.0318
     29 C           5.8618   -0.3351   -0.3590 C.ar    1  UNL1        0.0585
     30 C           2.4161   -1.0628   -0.3186 C.3     1  UNL1        0.0156
     31 C           1.3144   -0.8110    0.6900 C.3     1  UNL1       -0.0104
     32 H          -0.3620    1.9384    1.4669 H       1  UNL1        0.1192
     33 H          -0.4373    0.3823    2.1038 H       1  UNL1        0.1192
     34 H          -1.9642    0.8528    0.8494 H       1  UNL1        0.1493
     35 H          -2.4496   -0.2550   -1.9132 H       1  UNL1        0.0548
     36 H          -2.8547    1.9287   -2.0948 H       1  UNL1        0.0287
     37 H          -4.4374    1.1522   -2.1781 H       1  UNL1        0.0287
     38 H          -4.5941    3.2289   -1.1987 H       1  UNL1        0.0288
     39 H          -3.3362    3.0024    0.0027 H       1  UNL1        0.0288
     40 H          -4.9919    1.3441    1.2141 H       1  UNL1        0.0557
     41 H          -5.6354    3.0224    0.8863 H       1  UNL1        0.0557
     42 H          -6.8710    2.2575   -0.7333 H       1  UNL1        0.2094
     43 H          -3.3831   -0.5532    1.6973 H       1  UNL1        0.0621
     44 H          -4.7691   -2.4030    2.4831 H       1  UNL1        0.0632
     45 H          -5.7860   -3.4252   -1.4655 H       1  UNL1        0.0632
     46 H          -4.4454   -1.6278   -2.3356 H       1  UNL1        0.0621
     47 H           1.3175    1.5502   -1.3746 H       1  UNL1        0.0303
     48 H           1.2821    2.5548    0.0843 H       1  UNL1        0.0303
     49 H           3.3728    1.8754    0.7574 H       1  UNL1        0.0465
     50 H           3.5762    1.7752   -0.9960 H       1  UNL1        0.0465
     51 H           6.1626   -2.1544    2.9241 H       1  UNL1        0.1048
     52 H           9.0424   -0.7302   -0.7258 H       1  UNL1        0.1668
     53 H           7.9251    0.5666   -2.7706 H       1  UNL1        0.0807
     54 H           5.3216    0.7247   -2.1697 H       1  UNL1        0.0640
     55 H           1.9861   -0.8955   -1.3444 H       1  UNL1        0.0465
     56 H           2.8141   -2.0887   -0.2533 H       1  UNL1        0.0465
     57 H           1.7477   -0.7357    1.7133 H       1  UNL1        0.0303
     58 H           0.5919   -1.6212    0.5949 H       1  UNL1        0.0303
@<TRIPOS>BOND
     1     1     2    1
     2     2     3    1
     3     3     4    2
     4     3     5   am
     5     5     6    1
     6     6     7    1
     7     7     8    1
     8     8     9    1
     9     9    10    1
    10     6    11    1
    11    11    12   ar
    12    12    13   ar
    13    13    14   ar
    14    14    15    1
    15    14    16   ar
    16    16    17   ar
    17     2    18    1
    18    18    19    1
    19    19    20    1
    20    20    21    1
    21    21    22   ar
    22    22    23   ar
    23    23    24   ar
    24    24    25   ar
    25    25    26   ar
    26    26    27   ar
    27    27    28   ar
    28    28    29   ar
    29    20    30    1
    30    30    31    1
    31    31     2    1
    32    17    11   ar
    33    29    21   ar
    34    29    25   ar
    35     1    32    1
    36     1    33    1
    37     5    34    1
    38     6    35    1
    39     7    36    1
    40     7    37    1
    41     8    38    1
    42     8    39    1
    43     9    40    1
    44     9    41    1
    45    10    42    1
    46    12    43    1
    47    13    44    1
    48    16    45    1
    49    17    46    1
    50    18    47    1
    51    18    48    1
    52    19    49    1
    53    19    50    1
    54    23    51    1
    55    26    52    1
    56    27    53    1
    57    28    54    1
    58    30    55    1
    59    30    56    1
    60    31    57    1
    61    31    58    1
