
     RDKit          3D

 58 61  0  0  0  0  0  0  0  0999 V2000
    0.1572    1.0444    1.5884 N   0  0  0  0  0  0  0  0  0  0  0  0
    0.6712    0.5028    0.3444 C   0  0  0  0  0  0  0  0  0  0  0  0
   -0.4975    0.2084   -0.5250 C   0  0  0  0  0  0  0  0  0  0  0  0
   -0.2436   -0.2793   -1.6777 O   0  0  0  0  0  0  0  0  0  0  0  0
   -1.8184    0.4511   -0.1084 N   0  0  0  0  0  0  0  0  0  0  0  0
   -2.9730    0.1722   -0.9382 C   0  0  0  0  0  0  0  0  0  0  0  0
   -3.6213    1.3913   -1.4370 C   0  0  0  0  0  0  0  0  0  0  0  0
   -4.1550    2.4122   -0.5324 C   0  0  0  0  0  0  0  0  0  0  0  0
   -5.2460    2.0454    0.4119 C   0  0  0  0  0  0  0  0  0  0  0  0
   -6.3822    1.5590   -0.2447 O   0  0  0  0  0  0  0  0  0  0  0  0
   -3.7792   -0.9098   -0.4004 C   0  0  0  0  0  0  0  0  0  0  0  0
   -3.8882   -1.1503    0.9435 C   0  0  0  0  0  0  0  0  0  0  0  0
   -4.6690   -2.1950    1.4228 C   0  0  0  0  0  0  0  0  0  0  0  0
   -5.3640   -3.0295    0.5590 C   0  0  0  0  0  0  0  0  0  0  0  0
   -6.3376   -4.3351    1.1936 Cl  0  0  0  0  0  0  0  0  0  0  0  0
   -5.2526   -2.7863   -0.7817 C   0  0  0  0  0  0  0  0  0  0  0  0
   -4.4746   -1.7457   -1.2525 C   0  0  0  0  0  0  0  0  0  0  0  0
    1.5554    1.5236   -0.2692 C   0  0  0  0  0  0  0  0  0  0  0  0
    3.0299    1.3073   -0.1580 C   0  0  0  0  0  0  0  0  0  0  0  0
    3.4250   -0.0503   -0.0219 N   0  0  0  0  0  0  0  0  0  0  0  0
    4.7031   -0.5160    0.3765 C   0  0  0  0  0  0  0  0  0  0  0  0
    4.8662   -1.1831    1.5618 N   0  0  0  0  0  0  0  0  0  0  0  0
    6.0454   -1.6277    1.9842 C   0  0  0  0  0  0  0  0  0  0  0  0
    7.1544   -1.4389    1.2521 N   0  0  0  0  0  0  0  0  0  0  0  0
    7.0946   -0.7914    0.0670 C   0  0  0  0  0  0  0  0  0  0  0  0
    8.0410   -0.4761   -0.8541 N   0  0  0  0  0  0  0  0  0  0  0  0
    7.4530    0.1743   -1.8700 C   0  0  0  0  0  0  0  0  0  0  0  0
    6.0910    0.2646   -1.5652 C   0  0  0  0  0  0  0  0  0  0  0  0
    5.8618   -0.3351   -0.3590 C   0  0  0  0  0  0  0  0  0  0  0  0
    2.4161   -1.0628   -0.3186 C   0  0  0  0  0  0  0  0  0  0  0  0
    1.3144   -0.8110    0.6900 C   0  0  0  0  0  0  0  0  0  0  0  0
   -0.3620    1.9384    1.4669 H   0  0  0  0  0  0  0  0  0  0  0  0
   -0.4373    0.3823    2.1038 H   0  0  0  0  0  0  0  0  0  0  0  0
   -1.9642    0.8528    0.8494 H   0  0  0  0  0  0  0  0  0  0  0  0
   -2.4496   -0.2550   -1.9132 H   0  0  0  0  0  0  0  0  0  0  0  0
   -2.8547    1.9287   -2.0948 H   0  0  0  0  0  0  0  0  0  0  0  0
   -4.4374    1.1522   -2.1781 H   0  0  0  0  0  0  0  0  0  0  0  0
   -4.5941    3.2289   -1.1987 H   0  0  0  0  0  0  0  0  0  0  0  0
   -3.3362    3.0024    0.0027 H   0  0  0  0  0  0  0  0  0  0  0  0
   -4.9919    1.3441    1.2141 H   0  0  0  0  0  0  0  0  0  0  0  0
   -5.6354    3.0224    0.8863 H   0  0  0  0  0  0  0  0  0  0  0  0
   -6.8710    2.2575   -0.7333 H   0  0  0  0  0  0  0  0  0  0  0  0
   -3.3831   -0.5532    1.6973 H   0  0  0  0  0  0  0  0  0  0  0  0
   -4.7691   -2.4030    2.4831 H   0  0  0  0  0  0  0  0  0  0  0  0
   -5.7860   -3.4252   -1.4655 H   0  0  0  0  0  0  0  0  0  0  0  0
   -4.4454   -1.6278   -2.3356 H   0  0  0  0  0  0  0  0  0  0  0  0
    1.3175    1.5502   -1.3746 H   0  0  0  0  0  0  0  0  0  0  0  0
    1.2821    2.5548    0.0843 H   0  0  0  0  0  0  0  0  0  0  0  0
    3.3728    1.8754    0.7574 H   0  0  0  0  0  0  0  0  0  0  0  0
    3.5762    1.7752   -0.9960 H   0  0  0  0  0  0  0  0  0  0  0  0
    6.1626   -2.1544    2.9241 H   0  0  0  0  0  0  0  0  0  0  0  0
    9.0424   -0.7302   -0.7258 H   0  0  0  0  0  0  0  0  0  0  0  0
    7.9251    0.5666   -2.7706 H   0  0  0  0  0  0  0  0  0  0  0  0
    5.3216    0.7247   -2.1697 H   0  0  0  0  0  0  0  0  0  0  0  0
    1.9861   -0.8955   -1.3444 H   0  0  0  0  0  0  0  0  0  0  0  0
    2.8141   -2.0887   -0.2533 H   0  0  0  0  0  0  0  0  0  0  0  0
    1.7477   -0.7357    1.7133 H   0  0  0  0  0  0  0  0  0  0  0  0
    0.5919   -1.6212    0.5949 H   0  0  0  0  0  0  0  0  0  0  0  0
  1  2  1  0
  2  3  1  0
  3  4  2  0
  3  5  1  0
  5  6  1  0
  6  7  1  0
  7  8  1  0
  8  9  1  0
  9 10  1  0
  6 11  1  0
 11 12  2  0
 12 13  1  0
 13 14  2  0
 14 15  1  0
 14 16  1  0
 16 17  2  0
  2 18  1  0
 18 19  1  0
 19 20  1  0
 20 21  1  0
 21 22  2  0
 22 23  1  0
 23 24  2  0
 24 25  1  0
 25 26  1  0
 26 27  1  0
 27 28  2  0
 28 29  1  0
 20 30  1  0
 30 31  1  0
 31  2  1  0
 17 11  1  0
 29 21  1  0
 29 25  2  0
  1 32  1  0
  1 33  1  0
  5 34  1  0
  6 35  1  0
  7 36  1  0
  7 37  1  0
  8 38  1  0
  8 39  1  0
  9 40  1  0
  9 41  1  0
 10 42  1  0
 12 43  1  0
 13 44  1  0
 16 45  1  0
 17 46  1  0
 18 47  1  0
 18 48  1  0
 19 49  1  0
 19 50  1  0
 23 51  1  0
 26 52  1  0
 27 53  1  0
 28 54  1  0
 30 55  1  0
 30 56  1  0
 31 57  1  0
 31 58  1  0
M  END
$$$$
