
     RDKit          3D

 52 57  0  0  0  0  0  0  0  0999 V2000
    4.3427   -2.9039    0.0755 C   0  0  0  0  0  0  0  0  0  0  0  0
    3.5344   -1.7501   -0.4148 C   0  0  0  0  0  0  0  0  0  0  0  0
    2.1649   -1.7650   -0.3505 C   0  0  0  0  0  0  0  0  0  0  0  0
    1.4183   -0.6978   -0.8040 C   0  0  0  0  0  0  0  0  0  0  0  0
   -0.0210   -0.8204   -0.7088 N   0  0  0  0  0  0  0  0  0  0  0  0
   -0.8886   -1.2986   -1.7206 C   0  0  0  0  0  0  0  0  0  0  0  0
   -0.4957   -1.6991   -2.8398 O   0  0  0  0  0  0  0  0  0  0  0  0
   -2.2555   -1.2385   -1.2354 C   0  0  0  0  0  0  0  0  0  0  0  0
   -2.2353   -0.7405    0.0415 C   0  0  0  0  0  0  0  0  0  0  0  0
   -3.5583   -0.6640    0.5140 C   0  0  0  0  0  0  0  0  0  0  0  0
   -4.0067   -0.1927    1.8363 C   0  0  0  0  0  0  0  0  0  0  0  0
   -4.3920   -1.0956    2.9396 C   0  0  0  0  0  0  0  0  0  0  0  0
   -3.0338   -0.4388    2.9720 C   0  0  0  0  0  0  0  0  0  0  0  0
   -4.3168   -1.1230   -0.5065 N   0  0  0  0  0  0  0  0  0  0  0  0
   -3.5649   -1.4600   -1.5293 N   0  0  0  0  0  0  0  0  0  0  0  0
   -3.9662   -1.9958   -2.8207 C   0  0  0  0  0  0  0  0  0  0  0  0
   -0.8330   -0.4911    0.4197 C   0  0  0  0  0  0  0  0  0  0  0  0
   -0.5853    0.9449    0.7789 C   0  0  0  0  0  0  0  0  0  0  0  0
   -1.5534    1.9153    0.6425 C   0  0  0  0  0  0  0  0  0  0  0  0
   -1.3375    3.2383    0.9993 C   0  0  0  0  0  0  0  0  0  0  0  0
   -0.1134    3.5917    1.5067 C   0  0  0  0  0  0  0  0  0  0  0  0
    0.2460    5.2503    1.9849 Cl  0  0  0  0  0  0  0  0  0  0  0  0
    0.8847    2.6681    1.6636 C   0  0  0  0  0  0  0  0  0  0  0  0
    0.6247    1.3566    1.2941 C   0  0  0  0  0  0  0  0  0  0  0  0
    2.0548    0.3876   -1.3240 C   0  0  0  0  0  0  0  0  0  0  0  0
    3.3993    0.4251   -1.3976 N   0  0  0  0  0  0  0  0  0  0  0  0
    4.3085    1.3144   -1.8399 C   0  0  0  0  0  0  0  0  0  0  0  0
    3.9736    2.6442   -2.4301 C   0  0  0  0  0  0  0  0  0  0  0  0
    5.5526    0.8243   -1.6696 N   0  0  0  0  0  0  0  0  0  0  0  0
    5.4378   -0.3703   -1.1219 N   0  0  0  0  0  0  0  0  0  0  0  0
    4.1283   -0.6240   -0.9515 C   0  0  0  0  0  0  0  0  0  0  0  0
    5.0400   -2.5409    0.8469 H   0  0  0  0  0  0  0  0  0  0  0  0
    4.8387   -3.3619   -0.7992 H   0  0  0  0  0  0  0  0  0  0  0  0
    3.6569   -3.6351    0.5353 H   0  0  0  0  0  0  0  0  0  0  0  0
    1.6997   -2.6516    0.0720 H   0  0  0  0  0  0  0  0  0  0  0  0
   -4.4866    0.8274    1.8049 H   0  0  0  0  0  0  0  0  0  0  0  0
   -4.4716   -2.1848    2.8253 H   0  0  0  0  0  0  0  0  0  0  0  0
   -5.1080   -0.6778    3.6766 H   0  0  0  0  0  0  0  0  0  0  0  0
   -2.2153   -1.1434    2.9111 H   0  0  0  0  0  0  0  0  0  0  0  0
   -2.8768    0.4175    3.6811 H   0  0  0  0  0  0  0  0  0  0  0  0
   -4.9766   -2.4867   -2.7183 H   0  0  0  0  0  0  0  0  0  0  0  0
   -4.0949   -1.1812   -3.5674 H   0  0  0  0  0  0  0  0  0  0  0  0
   -3.2065   -2.7224   -3.1637 H   0  0  0  0  0  0  0  0  0  0  0  0
   -0.5454   -1.1349    1.3079 H   0  0  0  0  0  0  0  0  0  0  0  0
   -2.5167    1.6617    0.2418 H   0  0  0  0  0  0  0  0  0  0  0  0
   -2.1043    4.0026    0.8906 H   0  0  0  0  0  0  0  0  0  0  0  0
    1.8512    2.9366    2.0618 H   0  0  0  0  0  0  0  0  0  0  0  0
    1.4089    0.5995    1.4263 H   0  0  0  0  0  0  0  0  0  0  0  0
    1.4707    1.2190   -1.6772 H   0  0  0  0  0  0  0  0  0  0  0  0
    4.7081    3.3697   -1.9963 H   0  0  0  0  0  0  0  0  0  0  0  0
    2.9464    2.9527   -2.1528 H   0  0  0  0  0  0  0  0  0  0  0  0
    4.0692    2.5428   -3.5196 H   0  0  0  0  0  0  0  0  0  0  0  0
  1  2  1  0
  2  3  2  0
  3  4  1  0
  4  5  1  0
  5  6  1  0
  6  7  2  0
  6  8  1  0
  8  9  2  0
  9 10  1  0
 10 11  1  0
 11 12  1  0
 12 13  1  0
 10 14  2  0
 14 15  1  0
 15 16  1  0
  9 17  1  0
 17 18  1  0
 18 19  2  0
 19 20  1  0
 20 21  2  0
 21 22  1  0
 21 23  1  0
 23 24  2  0
  4 25  2  0
 25 26  1  0
 26 27  1  0
 27 28  1  0
 27 29  2  0
 29 30  1  0
 30 31  2  0
 31  2  1  0
 17  5  1  0
 24 18  1  0
 31 26  1  0
 15  8  1  0
 13 11  1  0
  1 32  1  0
  1 33  1  0
  1 34  1  0
  3 35  1  0
 11 36  1  0
 12 37  1  0
 12 38  1  0
 13 39  1  0
 13 40  1  0
 16 41  1  0
 16 42  1  0
 16 43  1  0
 17 44  1  0
 19 45  1  0
 20 46  1  0
 23 47  1  0
 24 48  1  0
 25 49  1  0
 28 50  1  0
 28 51  1  0
 28 52  1  0
M  END
$$$$
