@<TRIPOS>MOLECULE
*****
 52 57 0 0 0
SMALL
GASTEIGER

@<TRIPOS>ATOM
      1 C           4.3427   -2.9039    0.0755 C.3     1  UNL1       -0.0361
      2 C           3.5344   -1.7501   -0.4148 C.ar    1  UNL1       -0.0041
      3 C           2.1649   -1.7650   -0.3505 C.ar    1  UNL1       -0.0324
      4 C           1.4183   -0.6978   -0.8040 C.ar    1  UNL1        0.0545
      5 N          -0.0210   -0.8204   -0.7088 N.am    1  UNL1       -0.2531
      6 C          -0.8886   -1.2986   -1.7206 C.2     1  UNL1        0.2700
      7 O          -0.4957   -1.6991   -2.8398 O.2     1  UNL1       -0.2679
      8 C          -2.2555   -1.2385   -1.2354 C.ar    1  UNL1        0.1291
      9 C          -2.2353   -0.7405    0.0415 C.ar    1  UNL1        0.0310
     10 C          -3.5583   -0.6640    0.5140 C.ar    1  UNL1        0.0721
     11 C          -4.0067   -0.1927    1.8363 C.3     1  UNL1        0.0035
     12 C          -4.3920   -1.0956    2.9396 C.3     1  UNL1       -0.0441
     13 C          -3.0338   -0.4388    2.9720 C.3     1  UNL1       -0.0441
     14 N          -4.3168   -1.1230   -0.5065 N.ar    1  UNL1       -0.1751
     15 N          -3.5649   -1.4600   -1.5293 N.ar    1  UNL1       -0.2617
     16 C          -3.9662   -1.9958   -2.8207 C.3     1  UNL1        0.0310
     17 C          -0.8330   -0.4911    0.4197 C.3     1  UNL1        0.0854
     18 C          -0.5853    0.9449    0.7789 C.ar    1  UNL1       -0.0221
     19 C          -1.5534    1.9153    0.6425 C.ar    1  UNL1       -0.0551
     20 C          -1.3375    3.2383    0.9993 C.ar    1  UNL1       -0.0431
     21 C          -0.1134    3.5917    1.5067 C.ar    1  UNL1        0.0410
     22 CL          0.2460    5.2503    1.9849 Cl      1  UNL1       -0.0835
     23 C           0.8847    2.6681    1.6636 C.ar    1  UNL1       -0.0431
     24 C           0.6247    1.3566    1.2941 C.ar    1  UNL1       -0.0551
     25 C           2.0548    0.3876   -1.3240 C.ar    1  UNL1        0.0344
     26 N           3.3993    0.4251   -1.3976 N.ar    1  UNL1       -0.2846
     27 C           4.3085    1.3144   -1.8399 C.ar    1  UNL1        0.1347
     28 C           3.9736    2.6442   -2.4301 C.3     1  UNL1       -0.0041
     29 N           5.5526    0.8243   -1.6696 N.ar    1  UNL1       -0.1340
     30 N           5.4378   -0.3703   -1.1219 N.ar    1  UNL1       -0.1292
     31 C           4.1283   -0.6240   -0.9515 C.ar    1  UNL1        0.1641
     32 H           5.0400   -2.5409    0.8469 H       1  UNL1        0.0279
     33 H           4.8387   -3.3619   -0.7992 H       1  UNL1        0.0279
     34 H           3.6569   -3.6351    0.5353 H       1  UNL1        0.0279
     35 H           1.6997   -2.6516    0.0720 H       1  UNL1        0.0640
     36 H          -4.4866    0.8274    1.8049 H       1  UNL1        0.0365
     37 H          -4.4716   -2.1848    2.8253 H       1  UNL1        0.0272
     38 H          -5.1080   -0.6778    3.6766 H       1  UNL1        0.0272
     39 H          -2.2153   -1.1434    2.9111 H       1  UNL1        0.0272
     40 H          -2.8768    0.4175    3.6811 H       1  UNL1        0.0272
     41 H          -4.9766   -2.4867   -2.7183 H       1  UNL1        0.0473
     42 H          -4.0949   -1.1812   -3.5674 H       1  UNL1        0.0473
     43 H          -3.2065   -2.7224   -3.1637 H       1  UNL1        0.0473
     44 H          -0.5454   -1.1349    1.3079 H       1  UNL1        0.0606
     45 H          -2.5167    1.6617    0.2418 H       1  UNL1        0.0621
     46 H          -2.1043    4.0026    0.8906 H       1  UNL1        0.0632
     47 H           1.8512    2.9366    2.0618 H       1  UNL1        0.0632
     48 H           1.4089    0.5995    1.4263 H       1  UNL1        0.0621
     49 H           1.4707    1.2190   -1.6772 H       1  UNL1        0.0833
     50 H           4.7081    3.3697   -1.9963 H       1  UNL1        0.0308
     51 H           2.9464    2.9527   -2.1528 H       1  UNL1        0.0308
     52 H           4.0692    2.5428   -3.5196 H       1  UNL1        0.0308
@<TRIPOS>BOND
     1     1     2    1
     2     2     3   ar
     3     3     4   ar
     4     4     5    1
     5     5     6   am
     6     6     7    2
     7     6     8    1
     8     8     9   ar
     9     9    10   ar
    10    10    11    1
    11    11    12    1
    12    12    13    1
    13    10    14   ar
    14    14    15   ar
    15    15    16    1
    16     9    17    1
    17    17    18    1
    18    18    19   ar
    19    19    20   ar
    20    20    21   ar
    21    21    22    1
    22    21    23   ar
    23    23    24   ar
    24     4    25   ar
    25    25    26   ar
    26    26    27   ar
    27    27    28    1
    28    27    29   ar
    29    29    30   ar
    30    30    31   ar
    31    31     2   ar
    32    17     5    1
    33    24    18   ar
    34    31    26   ar
    35    15     8   ar
    36    13    11    1
    37     1    32    1
    38     1    33    1
    39     1    34    1
    40     3    35    1
    41    11    36    1
    42    12    37    1
    43    12    38    1
    44    13    39    1
    45    13    40    1
    46    16    41    1
    47    16    42    1
    48    16    43    1
    49    17    44    1
    50    19    45    1
    51    20    46    1
    52    23    47    1
    53    24    48    1
    54    25    49    1
    55    28    50    1
    56    28    51    1
    57    28    52    1
