@<TRIPOS>MOLECULE
*****
 40 42 0 0 0
SMALL
GASTEIGER

@<TRIPOS>ATOM
      1 O           4.0272   -0.4262   -1.7036 O.2     1  UNL1       -0.2699
      2 C           3.6701   -0.2216   -0.5177 C.2     1  UNL1        0.2483
      3 N           2.3279    0.0276   -0.1863 N.am    1  UNL1       -0.2814
      4 C           1.2747    0.0725   -1.1238 C.ar    1  UNL1        0.0354
      5 C           1.3785   -0.1125   -2.4660 C.ar    1  UNL1       -0.0404
      6 C           0.2603   -0.0471   -3.3195 C.ar    1  UNL1       -0.0583
      7 C          -0.9878    0.2084   -2.8220 C.ar    1  UNL1       -0.0404
      8 C          -1.1227    0.3992   -1.4717 C.ar    1  UNL1        0.0354
      9 N          -2.4107    0.6683   -0.9153 N.am    1  UNL1       -0.2814
     10 C          -3.2966   -0.3340   -0.4646 C.2     1  UNL1        0.2483
     11 O          -2.8791   -1.5254   -0.5818 O.2     1  UNL1       -0.2699
     12 C          -4.6099   -0.0682    0.1032 C.ar    1  UNL1        0.0397
     13 C          -5.3802   -1.1369    0.5064 C.ar    1  UNL1       -0.0495
     14 C          -6.6446   -0.9617    1.0576 C.ar    1  UNL1       -0.0583
     15 C          -7.1216    0.3123    1.1965 C.ar    1  UNL1       -0.0264
     16 C          -6.3848    1.4154    0.8063 C.ar    1  UNL1        0.1241
     17 F          -6.8464    2.6831    0.9387 F       1  UNL1       -0.2055
     18 C          -5.1183    1.1834    0.2573 C.ar    1  UNL1       -0.0143
     19 C          -0.0178    0.3327   -0.6434 C.ar    1  UNL1       -0.0192
     20 C           4.6905   -0.2474    0.5311 C.ar    1  UNL1        0.0370
     21 C           4.4314   -0.0421    1.8411 C.ar    1  UNL1       -0.0496
     22 C           5.4109   -0.0676    2.8421 C.ar    1  UNL1       -0.0610
     23 C           6.7175   -0.3140    2.4919 C.ar    1  UNL1       -0.0617
     24 C           7.0001   -0.5257    1.1596 C.ar    1  UNL1       -0.0610
     25 C           6.0279   -0.4977    0.1883 C.ar    1  UNL1       -0.0496
     26 H           2.0915    0.1960    0.8607 H       1  UNL1        0.1551
     27 H           2.3153   -0.3140   -2.9174 H       1  UNL1        0.0636
     28 H           0.3758   -0.1986   -4.3817 H       1  UNL1        0.0619
     29 H          -1.8656    0.2656   -3.4458 H       1  UNL1        0.0636
     30 H          -2.7111    1.6630   -0.8388 H       1  UNL1        0.1551
     31 H          -5.0111   -2.1511    0.4005 H       1  UNL1        0.0625
     32 H          -7.2438   -1.8060    1.3720 H       1  UNL1        0.0619
     33 H          -8.0939    0.5010    1.6174 H       1  UNL1        0.0646
     34 H          -4.5442    2.0469   -0.0469 H       1  UNL1        0.0654
     35 H          -0.1361    0.4848    0.4203 H       1  UNL1        0.0655
     36 H           3.4343    0.1599    2.2188 H       1  UNL1        0.0625
     37 H           5.1488    0.1056    3.8934 H       1  UNL1        0.0618
     38 H           7.4849   -0.3364    3.2563 H       1  UNL1        0.0618
     39 H           8.0500   -0.7218    0.8940 H       1  UNL1        0.0618
     40 H           6.3085   -0.6696   -0.8311 H       1  UNL1        0.0625
@<TRIPOS>BOND
     1     1     2    2
     2     2     3   am
     3     3     4    1
     4     4     5   ar
     5     5     6   ar
     6     6     7   ar
     7     7     8   ar
     8     8     9    1
     9     9    10   am
    10    10    11    2
    11    10    12    1
    12    12    13   ar
    13    13    14   ar
    14    14    15   ar
    15    15    16   ar
    16    16    17    1
    17    16    18   ar
    18     8    19   ar
    19     2    20    1
    20    20    21   ar
    21    21    22   ar
    22    22    23   ar
    23    23    24   ar
    24    24    25   ar
    25    19     4   ar
    26    25    20   ar
    27    18    12   ar
    28     3    26    1
    29     5    27    1
    30     6    28    1
    31     7    29    1
    32     9    30    1
    33    13    31    1
    34    14    32    1
    35    15    33    1
    36    18    34    1
    37    19    35    1
    38    21    36    1
    39    22    37    1
    40    23    38    1
    41    24    39    1
    42    25    40    1
