@<TRIPOS>MOLECULE
*****
 38 41 0 0 0
SMALL
GASTEIGER

@<TRIPOS>ATOM
      1 BR         -3.0057   -4.9539   -0.5671 Br      1  UNL1       -0.0286
      2 C          -1.4070   -3.9442   -0.3959 C.ar    1  UNL1        0.1094
      3 C          -0.1451   -4.5163   -0.3697 C.ar    1  UNL1        0.0609
      4 N           0.6900   -3.4702   -0.2386 N.ar    1  UNL1       -0.2331
      5 C          -0.0252   -2.3158   -0.1873 C.ar    1  UNL1        0.1595
      6 N          -1.3306   -2.5859   -0.2833 N.ar    1  UNL1       -0.2919
      7 C          -2.2845   -1.6357   -0.2618 C.ar    1  UNL1        0.0200
      8 C          -1.8796   -0.3257   -0.1341 C.ar    1  UNL1        0.0005
      9 C          -0.5339   -0.0139   -0.0325 C.ar    1  UNL1       -0.0281
     10 C           0.4325   -1.0210   -0.0578 C.ar    1  UNL1        0.0714
     11 N           1.8085   -0.6702    0.0489 N.pl3   1  UNL1       -0.3368
     12 C           2.2464    0.7099    0.1844 C.3     1  UNL1        0.0373
     13 C           3.7164    0.8245    0.2782 C.ar    1  UNL1        0.0057
     14 C           4.2871    0.7737    1.5546 C.ar    1  UNL1        0.0354
     15 N           5.6052    0.8722    1.6957 N.ar    1  UNL1       -0.2434
     16 C           6.4359    1.0201    0.6693 C.ar    1  UNL1        0.1159
     17 N           5.9330    1.0732   -0.5639 N.ar    1  UNL1       -0.2434
     18 C           4.6070    0.9796   -0.7783 C.ar    1  UNL1        0.0354
     19 C          -2.8749    0.7412   -0.1065 C.ar    1  UNL1       -0.0164
     20 C          -4.0854    0.7055   -0.7869 C.ar    1  UNL1       -0.0540
     21 C          -4.9683    1.7511   -0.7085 C.ar    1  UNL1       -0.0612
     22 C          -4.7012    2.8890    0.0476 C.ar    1  UNL1       -0.0617
     23 C          -3.5065    2.9765    0.7471 C.ar    1  UNL1       -0.0612
     24 C          -2.6619    1.8891    0.6253 C.ar    1  UNL1       -0.0540
     25 H           0.1577   -5.5318   -0.4335 H       1  UNL1        0.0857
     26 H          -3.3401   -1.9224   -0.3447 H       1  UNL1        0.0820
     27 H          -0.2309    1.0184    0.0671 H       1  UNL1        0.0644
     28 H           2.4880   -1.4867    0.0223 H       1  UNL1        0.1465
     29 H           1.8013    1.1082    1.1008 H       1  UNL1        0.0512
     30 H           1.9599    1.2862   -0.7341 H       1  UNL1        0.0512
     31 H           3.7042    0.6556    2.4606 H       1  UNL1        0.0834
     32 H           7.4953    1.0917    0.8807 H       1  UNL1        0.1047
     33 H           4.1435    1.0166   -1.7596 H       1  UNL1        0.0834
     34 H          -4.2991   -0.1877   -1.3827 H       1  UNL1        0.0624
     35 H          -5.9235    1.7232   -1.2453 H       1  UNL1        0.0618
     36 H          -5.3863    3.7300    0.1240 H       1  UNL1        0.0618
     37 H          -3.2111    3.8159    1.3583 H       1  UNL1        0.0618
     38 H          -1.7111    1.9298    1.1665 H       1  UNL1        0.0624
@<TRIPOS>BOND
     1     1     2    1
     2     2     3   ar
     3     3     4   ar
     4     4     5   ar
     5     5     6   ar
     6     6     7   ar
     7     7     8   ar
     8     8     9   ar
     9     9    10   ar
    10    10    11    1
    11    11    12    1
    12    12    13    1
    13    13    14   ar
    14    14    15   ar
    15    15    16   ar
    16    16    17   ar
    17    17    18   ar
    18     8    19    1
    19    19    20   ar
    20    20    21   ar
    21    21    22   ar
    22    22    23   ar
    23    23    24   ar
    24     6     2   ar
    25    18    13   ar
    26    24    19   ar
    27    10     5   ar
    28     3    25    1
    29     7    26    1
    30     9    27    1
    31    11    28    1
    32    12    29    1
    33    12    30    1
    34    14    31    1
    35    16    32    1
    36    18    33    1
    37    20    34    1
    38    21    35    1
    39    22    36    1
    40    23    37    1
    41    24    38    1
