
     RDKit          3D

 67 72  0  0  0  0  0  0  0  0999 V2000
    4.1043    1.7585   -2.2914 O   0  0  0  0  0  0  0  0  0  0  0  0
    4.0606    1.1125   -1.1931 C   0  0  0  0  0  0  0  0  0  0  0  0
    2.7633    0.5632   -0.8475 C   0  0  0  0  0  0  0  0  0  0  0  0
    1.6545    1.3539   -0.9782 C   0  0  0  0  0  0  0  0  0  0  0  0
    0.3485    0.9192   -0.6857 C   0  0  0  0  0  0  0  0  0  0  0  0
   -0.7250    1.8471   -0.9291 C   0  0  1  0  0  0  0  0  0  0  0  0
   -0.6931    2.3634   -2.3916 C   0  0  0  0  0  0  0  0  0  0  0  0
   -1.2308    1.1245   -3.0719 C   0  0  0  0  0  0  0  0  0  0  0  0
   -2.3858    0.7580   -2.1096 C   0  0  0  0  0  0  0  0  0  0  0  0
   -2.0790    1.4270   -0.8836 N   0  0  0  0  0  0  0  0  0  0  0  0
   -2.9607    1.7009    0.1909 C   0  0  0  0  0  0  0  0  0  0  0  0
   -2.4839    2.1866    1.4140 C   0  0  0  0  0  0  0  0  0  0  0  0
   -3.2989    2.4891    2.4623 C   0  0  0  0  0  0  0  0  0  0  0  0
   -2.7994    2.9558    3.6288 F   0  0  0  0  0  0  0  0  0  0  0  0
   -4.6607    2.3277    2.3689 C   0  0  0  0  0  0  0  0  0  0  0  0
   -5.1702    1.8536    1.1883 C   0  0  0  0  0  0  0  0  0  0  0  0
   -6.5072    1.6880    1.0784 F   0  0  0  0  0  0  0  0  0  0  0  0
   -4.3348    1.5521    0.1345 C   0  0  0  0  0  0  0  0  0  0  0  0
    0.1934   -0.3670   -0.2441 C   0  0  0  0  0  0  0  0  0  0  0  0
   -0.9908   -0.8526    0.0576 O   0  0  0  0  0  0  0  0  0  0  0  0
   -1.1793   -2.0911    0.4918 C   0  0  0  0  0  0  0  0  0  0  0  0
   -2.4694   -2.5925    0.8130 N   0  0  0  0  0  0  0  0  0  0  0  0
   -2.7842   -3.9183    1.2698 C   0  0  0  0  0  0  0  0  0  0  0  0
   -3.7973   -4.5948    0.3456 C   0  0  0  0  0  0  0  0  0  0  0  0
   -4.5462   -3.6247   -0.3281 O   0  0  0  0  0  0  0  0  0  0  0  0
   -4.8523   -2.5791    0.5501 C   0  0  0  0  0  0  0  0  0  0  0  0
   -3.6264   -1.6935    0.6855 C   0  0  0  0  0  0  0  0  0  0  0  0
   -0.0872   -2.9118    0.6352 C   0  0  0  0  0  0  0  0  0  0  0  0
    1.1967   -2.4832    0.3398 C   0  0  0  0  0  0  0  0  0  0  0  0
    2.2127   -3.1992    0.4569 O   0  0  0  0  0  0  0  0  0  0  0  0
    1.3202   -1.1903   -0.1043 C   0  0  0  0  0  0  0  0  0  0  0  0
    2.5950   -0.7053   -0.4119 C   0  0  0  0  0  0  0  0  0  0  0  0
    5.2268    0.9912   -0.4398 N   0  0  0  0  0  0  0  0  0  0  0  0
    6.4519    1.6099   -0.9453 C   0  0  0  0  0  0  0  0  0  0  0  0
    7.6306    1.4570   -0.0362 C   0  0  0  0  0  0  0  0  0  0  0  0
    7.5331    0.4243    0.8854 O   0  0  0  0  0  0  0  0  0  0  0  0
    6.4066    0.7496    1.6799 C   0  0  0  0  0  0  0  0  0  0  0  0
    5.2215    0.2683    0.8111 C   0  0  0  0  0  0  0  0  0  0  0  0
    1.7328    2.3828   -1.3198 H   0  0  0  0  0  0  0  0  0  0  0  0
   -0.5362    2.7702   -0.3153 H   0  0  0  0  0  0  0  0  0  0  0  0
   -1.4039    3.1823   -2.4617 H   0  0  0  0  0  0  0  0  0  0  0  0
    0.2896    2.6820   -2.7064 H   0  0  0  0  0  0  0  0  0  0  0  0
   -0.4623    0.3478   -2.9767 H   0  0  0  0  0  0  0  0  0  0  0  0
   -1.5709    1.3321   -4.0802 H   0  0  0  0  0  0  0  0  0  0  0  0
   -2.4696   -0.3178   -2.1025 H   0  0  0  0  0  0  0  0  0  0  0  0
   -3.3167    1.1419   -2.5889 H   0  0  0  0  0  0  0  0  0  0  0  0
   -1.4022    2.3130    1.4825 H   0  0  0  0  0  0  0  0  0  0  0  0
   -5.3083    2.5738    3.2260 H   0  0  0  0  0  0  0  0  0  0  0  0
   -4.7590    1.1713   -0.8099 H   0  0  0  0  0  0  0  0  0  0  0  0
   -3.2327   -3.8795    2.2923 H   0  0  0  0  0  0  0  0  0  0  0  0
   -1.8963   -4.5543    1.2309 H   0  0  0  0  0  0  0  0  0  0  0  0
   -3.3245   -5.2810   -0.3620 H   0  0  0  0  0  0  0  0  0  0  0  0
   -4.4915   -5.1638    0.9813 H   0  0  0  0  0  0  0  0  0  0  0  0
   -5.0923   -3.0113    1.5213 H   0  0  0  0  0  0  0  0  0  0  0  0
   -5.7245   -2.0533    0.1090 H   0  0  0  0  0  0  0  0  0  0  0  0
   -3.7216   -1.0627    1.5781 H   0  0  0  0  0  0  0  0  0  0  0  0
   -3.5482   -1.1124   -0.2387 H   0  0  0  0  0  0  0  0  0  0  0  0
   -0.1913   -3.9230    0.9893 H   0  0  0  0  0  0  0  0  0  0  0  0
    3.4345   -1.3825   -0.3003 H   0  0  0  0  0  0  0  0  0  0  0  0
    6.6686    1.1974   -1.9711 H   0  0  0  0  0  0  0  0  0  0  0  0
    6.2920    2.7101   -1.1074 H   0  0  0  0  0  0  0  0  0  0  0  0
    8.5250    1.3234   -0.7006 H   0  0  0  0  0  0  0  0  0  0  0  0
    7.7381    2.3932    0.5603 H   0  0  0  0  0  0  0  0  0  0  0  0
    6.3668    0.1607    2.5966 H   0  0  0  0  0  0  0  0  0  0  0  0
    6.3674    1.8328    1.7941 H   0  0  0  0  0  0  0  0  0  0  0  0
    4.3236    0.3737    1.4121 H   0  0  0  0  0  0  0  0  0  0  0  0
    5.4562   -0.8252    0.6718 H   0  0  0  0  0  0  0  0  0  0  0  0
  1  2  2  0
  2  3  1  0
  3  4  2  0
  4  5  1  0
  5  6  1  0
  6  7  1  0
  7  8  1  0
  8  9  1  0
  9 10  1  0
 10 11  1  0
 11 12  2  0
 12 13  1  0
 13 14  1  0
 13 15  2  0
 15 16  1  0
 16 17  1  0
 16 18  2  0
  5 19  2  0
 19 20  1  0
 20 21  1  0
 21 22  1  0
 22 23  1  0
 23 24  1  0
 24 25  1  0
 25 26  1  0
 26 27  1  0
 21 28  2  0
 28 29  1  0
 29 30  2  0
 29 31  1  0
 31 32  2  0
  2 33  1  0
 33 34  1  0
 34 35  1  0
 35 36  1  0
 36 37  1  0
 37 38  1  0
 32  3  1  0
 38 33  1  0
 10  6  1  0
 18 11  1  0
 31 19  1  0
 27 22  1  0
  4 39  1  0
  6 40  1  1
  7 41  1  0
  7 42  1  0
  8 43  1  0
  8 44  1  0
  9 45  1  0
  9 46  1  0
 12 47  1  0
 15 48  1  0
 18 49  1  0
 23 50  1  0
 23 51  1  0
 24 52  1  0
 24 53  1  0
 26 54  1  0
 26 55  1  0
 27 56  1  0
 27 57  1  0
 28 58  1  0
 32 59  1  0
 34 60  1  0
 34 61  1  0
 35 62  1  0
 35 63  1  0
 37 64  1  0
 37 65  1  0
 38 66  1  0
 38 67  1  0
M  END
$$$$
