@<TRIPOS>MOLECULE
*****
 67 72 0 0 0
SMALL
GASTEIGER

@<TRIPOS>ATOM
      1 O           4.1043    1.7585   -2.2914 O.2     1  UNL1       -0.2700
      2 C           4.0606    1.1125   -1.1931 C.2     1  UNL1        0.2468
      3 C           2.7633    0.5632   -0.8475 C.ar    1  UNL1        0.0381
      4 C           1.6545    1.3539   -0.9782 C.ar    1  UNL1       -0.0411
      5 C           0.3485    0.9192   -0.6857 C.ar    1  UNL1        0.0166
      6 C          -0.7250    1.8471   -0.9291 C.3     1  UNL1        0.0522
      7 C          -0.6931    2.3634   -2.3916 C.3     1  UNL1       -0.0287
      8 C          -1.2308    1.1245   -3.0719 C.3     1  UNL1       -0.0352
      9 C          -2.3858    0.7580   -2.1096 C.3     1  UNL1        0.0129
     10 N          -2.0790    1.4270   -0.8836 N.pl3   1  UNL1       -0.3225
     11 C          -2.9607    1.7009    0.1909 C.ar    1  UNL1        0.0356
     12 C          -2.4839    2.1866    1.4140 C.ar    1  UNL1       -0.0052
     13 C          -3.2989    2.4891    2.4623 C.ar    1  UNL1        0.1279
     14 F          -2.7994    2.9558    3.6288 F       1  UNL1       -0.2053
     15 C          -4.6607    2.3277    2.3689 C.ar    1  UNL1        0.0089
     16 C          -5.1702    1.8536    1.1883 C.ar    1  UNL1        0.1279
     17 F          -6.5072    1.6880    1.0784 F       1  UNL1       -0.2053
     18 C          -4.3348    1.5521    0.1345 C.ar    1  UNL1       -0.0052
     19 C           0.1934   -0.3670   -0.2441 C.ar    1  UNL1        0.1458
     20 O          -0.9908   -0.8526    0.0576 O.2     1  UNL1       -0.4407
     21 C          -1.1793   -2.0911    0.4918 C.ar    1  UNL1        0.1931
     22 N          -2.4694   -2.5925    0.8130 N.pl3   1  UNL1       -0.2969
     23 C          -2.7842   -3.9183    1.2698 C.3     1  UNL1        0.0383
     24 C          -3.7973   -4.5948    0.3456 C.3     1  UNL1        0.0635
     25 O          -4.5462   -3.6247   -0.3281 O.3     1  UNL1       -0.3767
     26 C          -4.8523   -2.5791    0.5501 C.3     1  UNL1        0.0635
     27 C          -3.6264   -1.6935    0.6855 C.3     1  UNL1        0.0383
     28 C          -0.0872   -2.9118    0.6352 C.ar    1  UNL1        0.0434
     29 C           1.1967   -2.4832    0.3398 C.ar    1  UNL1        0.1944
     30 O           2.2127   -3.1992    0.4569 O.2     1  UNL1       -0.2870
     31 C           1.3202   -1.1903   -0.1043 C.ar    1  UNL1        0.0651
     32 C           2.5950   -0.7053   -0.4119 C.ar    1  UNL1       -0.0352
     33 N           5.2268    0.9912   -0.4398 N.am    1  UNL1       -0.2932
     34 C           6.4519    1.6099   -0.9453 C.3     1  UNL1        0.0385
     35 C           7.6306    1.4570   -0.0362 C.3     1  UNL1        0.0635
     36 O           7.5331    0.4243    0.8854 O.3     1  UNL1       -0.3767
     37 C           6.4066    0.7496    1.6799 C.3     1  UNL1        0.0635
     38 C           5.2215    0.2683    0.8111 C.3     1  UNL1        0.0385
     39 H           1.7328    2.3828   -1.3198 H       1  UNL1        0.0629
     40 H          -0.5362    2.7702   -0.3153 H       1  UNL1        0.0551
     41 H          -1.4039    3.1823   -2.4617 H       1  UNL1        0.0287
     42 H           0.2896    2.6820   -2.7064 H       1  UNL1        0.0287
     43 H          -0.4623    0.3478   -2.9767 H       1  UNL1        0.0281
     44 H          -1.5709    1.3321   -4.0802 H       1  UNL1        0.0281
     45 H          -2.4696   -0.3178   -2.1025 H       1  UNL1        0.0464
     46 H          -3.3167    1.1419   -2.5889 H       1  UNL1        0.0464
     47 H          -1.4022    2.3130    1.4825 H       1  UNL1        0.0665
     48 H          -5.3083    2.5738    3.2260 H       1  UNL1        0.0675
     49 H          -4.7590    1.1713   -0.8099 H       1  UNL1        0.0665
     50 H          -3.2327   -3.8795    2.2923 H       1  UNL1        0.0487
     51 H          -1.8963   -4.5543    1.2309 H       1  UNL1        0.0487
     52 H          -3.3245   -5.2810   -0.3620 H       1  UNL1        0.0575
     53 H          -4.4915   -5.1638    0.9813 H       1  UNL1        0.0575
     54 H          -5.0923   -3.0113    1.5213 H       1  UNL1        0.0575
     55 H          -5.7245   -2.0533    0.1090 H       1  UNL1        0.0575
     56 H          -3.7216   -1.0627    1.5781 H       1  UNL1        0.0487
     57 H          -3.5482   -1.1124   -0.2387 H       1  UNL1        0.0487
     58 H          -0.1913   -3.9230    0.9893 H       1  UNL1        0.0707
     59 H           3.4345   -1.3825   -0.3003 H       1  UNL1        0.0633
     60 H           6.6686    1.1974   -1.9711 H       1  UNL1        0.0487
     61 H           6.2920    2.7101   -1.1074 H       1  UNL1        0.0487
     62 H           8.5250    1.3234   -0.7006 H       1  UNL1        0.0575
     63 H           7.7381    2.3932    0.5603 H       1  UNL1        0.0575
     64 H           6.3668    0.1607    2.5966 H       1  UNL1        0.0575
     65 H           6.3674    1.8328    1.7941 H       1  UNL1        0.0575
     66 H           4.3236    0.3737    1.4121 H       1  UNL1        0.0487
     67 H           5.4562   -0.8252    0.6718 H       1  UNL1        0.0487
@<TRIPOS>BOND
     1     1     2    2
     2     2     3    1
     3     3     4   ar
     4     4     5   ar
     5     5     6    1
     6     6     7    1
     7     7     8    1
     8     8     9    1
     9     9    10    1
    10    10    11    1
    11    11    12   ar
    12    12    13   ar
    13    13    14    1
    14    13    15   ar
    15    15    16   ar
    16    16    17    1
    17    16    18   ar
    18     5    19   ar
    19    19    20   ar
    20    20    21   ar
    21    21    22    1
    22    22    23    1
    23    23    24    1
    24    24    25    1
    25    25    26    1
    26    26    27    1
    27    21    28   ar
    28    28    29   ar
    29    29    30    2
    30    29    31   ar
    31    31    32   ar
    32     2    33   am
    33    33    34    1
    34    34    35    1
    35    35    36    1
    36    36    37    1
    37    37    38    1
    38    32     3   ar
    39    38    33    1
    40    10     6    1
    41    18    11   ar
    42    31    19   ar
    43    27    22    1
    44     4    39    1
    45     6    40    1
    46     7    41    1
    47     7    42    1
    48     8    43    1
    49     8    44    1
    50     9    45    1
    51     9    46    1
    52    12    47    1
    53    15    48    1
    54    18    49    1
    55    23    50    1
    56    23    51    1
    57    24    52    1
    58    24    53    1
    59    26    54    1
    60    26    55    1
    61    27    56    1
    62    27    57    1
    63    28    58    1
    64    32    59    1
    65    34    60    1
    66    34    61    1
    67    35    62    1
    68    35    63    1
    69    37    64    1
    70    37    65    1
    71    38    66    1
    72    38    67    1
