@<TRIPOS>MOLECULE
*****
 56 59 0 0 0
SMALL
GASTEIGER

@<TRIPOS>ATOM
      1 C           8.4401   -1.8543   -2.0930 C.3     1  UNL1        0.0789
      2 O           7.0764   -2.2064   -2.2187 O.3     1  UNL1       -0.4936
      3 C           6.0963   -1.5081   -1.5321 C.ar    1  UNL1        0.1387
      4 C           4.7632   -1.8128   -1.6225 C.ar    1  UNL1        0.0700
      5 N           3.8278   -1.1334   -0.9566 N.ar    1  UNL1       -0.2479
      6 C           4.1093   -0.0974   -0.1442 C.ar    1  UNL1        0.1111
      7 C           3.1361    0.5994    0.5400 C.ar    1  UNL1        0.1490
      8 N           1.7882    0.2237    0.3772 N.pl3   1  UNL1       -0.2977
      9 C           0.6743    0.7965    1.0423 C.ar    1  UNL1        0.0330
     10 C           0.7619    1.5372    2.1911 C.ar    1  UNL1       -0.0378
     11 C          -0.3716    2.0945    2.8004 C.ar    1  UNL1       -0.0243
     12 C          -1.6294    1.9248    2.2748 C.ar    1  UNL1        0.1313
     13 F          -2.7363    2.4609    2.8654 F       1  UNL1       -0.2050
     14 C          -1.7327    1.1810    1.1185 C.ar    1  UNL1        0.0479
     15 C          -3.0921    0.9736    0.5069 C.3     1  UNL1        0.2578
     16 C          -3.5324    2.3661    0.0339 C.3     1  UNL1        0.2915
     17 F          -2.6396    2.8640   -0.8904 F       1  UNL1       -0.2037
     18 F          -4.7808    2.3187   -0.5547 F       1  UNL1       -0.2037
     19 C          -4.0227    0.4441    1.5524 C.3     1  UNL1        0.1242
     20 S          -5.2909   -0.5899    0.8599 S.O2    1  UNL1       -0.0099
     21 O          -5.4962   -1.8354    1.6744 O.2     1  UNL1       -0.1731
     22 O          -6.6191    0.1377    0.8531 O.2     1  UNL1       -0.1731
     23 C          -4.9304   -1.0406   -0.8007 C.3     1  UNL1        0.1831
     24 C          -5.9816   -0.5056   -1.7814 C.3     1  UNL1       -0.0288
     25 C          -5.0041   -2.5672   -0.9576 C.3     1  UNL1       -0.0288
     26 C          -3.5831   -0.6560   -1.2533 C.2     1  UNL1        0.3069
     27 N          -3.0725   -1.2827   -2.4239 N.pl3   1  UNL1       -0.2488
     28 N          -2.9057    0.1836   -0.6456 N.2     1  UNL1       -0.0666
     29 C          -0.6187    0.6351    0.5223 C.ar    1  UNL1       -0.0299
     30 N           3.5271    1.6065    1.3156 N.ar    1  UNL1       -0.2380
     31 C           4.7974    1.9911    1.4787 C.ar    1  UNL1        0.0304
     32 C           5.7938    1.3000    0.7963 C.ar    1  UNL1       -0.0342
     33 C           5.4378    0.2460   -0.0217 C.ar    1  UNL1        0.0086
     34 C           6.4392   -0.4481   -0.7073 C.ar    1  UNL1       -0.0091
     35 H           9.0385   -2.5203   -2.7343 H       1  UNL1        0.0660
     36 H           8.5848   -0.7675   -2.3598 H       1  UNL1        0.0660
     37 H           8.7630   -1.9193   -1.0177 H       1  UNL1        0.0660
     38 H           4.4524   -2.6297   -2.2526 H       1  UNL1        0.0867
     39 H           1.5497   -0.5751   -0.3113 H       1  UNL1        0.1536
     40 H           1.7169    1.7029    2.6642 H       1  UNL1        0.0637
     41 H          -0.2901    2.6771    3.7059 H       1  UNL1        0.0647
     42 H          -3.6024    3.0906    0.8620 H       1  UNL1        0.1072
     43 H          -4.5323    1.3173    2.0261 H       1  UNL1        0.0553
     44 H          -3.4984   -0.1716    2.3218 H       1  UNL1        0.0553
     45 H          -5.5418   -0.2404   -2.7458 H       1  UNL1        0.0256
     46 H          -6.7776   -1.2595   -1.9512 H       1  UNL1        0.0256
     47 H          -6.4731    0.3515   -1.2852 H       1  UNL1        0.0256
     48 H          -5.9091   -2.9174   -0.4532 H       1  UNL1        0.0256
     49 H          -4.9579   -2.8102   -2.0310 H       1  UNL1        0.0256
     50 H          -4.0728   -2.9701   -0.4618 H       1  UNL1        0.0256
     51 H          -2.6608   -2.2434   -2.3948 H       1  UNL1        0.2881
     52 H          -3.1144   -0.7582   -3.3382 H       1  UNL1        0.2881
     53 H          -0.6881    0.0421   -0.3980 H       1  UNL1        0.0641
     54 H           5.0966    2.8141    2.1150 H       1  UNL1        0.0830
     55 H           6.8355    1.5644    0.8882 H       1  UNL1        0.0639
     56 H           7.4521   -0.1243   -0.5634 H       1  UNL1        0.0661
@<TRIPOS>BOND
     1     1     2    1
     2     2     3    1
     3     3     4   ar
     4     4     5   ar
     5     5     6   ar
     6     6     7   ar
     7     7     8    1
     8     8     9    1
     9     9    10   ar
    10    10    11   ar
    11    11    12   ar
    12    12    13    1
    13    12    14   ar
    14    14    15    1
    15    15    16    1
    16    16    17    1
    17    16    18    1
    18    15    19    1
    19    19    20    1
    20    20    21    2
    21    20    22    2
    22    20    23    1
    23    23    24    1
    24    23    25    1
    25    23    26    1
    26    26    27    1
    27    26    28    2
    28    14    29   ar
    29     7    30   ar
    30    30    31   ar
    31    31    32   ar
    32    32    33   ar
    33    33    34   ar
    34    34     3   ar
    35    33     6   ar
    36    29     9   ar
    37    28    15    1
    38     1    35    1
    39     1    36    1
    40     1    37    1
    41     4    38    1
    42     8    39    1
    43    10    40    1
    44    11    41    1
    45    16    42    1
    46    19    43    1
    47    19    44    1
    48    24    45    1
    49    24    46    1
    50    24    47    1
    51    25    48    1
    52    25    49    1
    53    25    50    1
    54    27    51    1
    55    27    52    1
    56    29    53    1
    57    31    54    1
    58    32    55    1
    59    34    56    1
