
     RDKit          3D

 26 26  0  0  0  0  0  0  0  0999 V2000
    5.2579    0.0599    0.0602 O   0  0  0  0  0  0  0  0  0  0  0  0
    4.1281   -0.1087   -0.7553 C   0  0  0  0  0  0  0  0  0  0  0  0
    4.1019   -1.0174   -1.6299 O   0  0  0  0  0  0  0  0  0  0  0  0
    2.9532    0.7874   -0.5893 C   0  0  0  0  0  0  0  0  0  0  0  0
    1.7518   -0.0988   -0.3212 C   0  0  0  0  0  0  0  0  0  0  0  0
    0.4720    0.7205   -0.1262 C   0  0  0  0  0  0  0  0  0  0  0  0
   -0.6144   -0.2579    0.1606 C   0  0  0  0  0  0  0  0  0  0  0  0
   -1.9707    0.3611    0.3853 C   0  0  2  0  0  0  0  0  0  0  0  0
   -2.8995   -0.7821    0.6618 C   0  0  0  0  0  0  0  0  0  0  0  0
   -4.3047   -0.2688    0.7340 C   0  0  0  0  0  0  0  0  0  0  0  0
   -4.6140    0.6621   -0.8072 S   0  0  0  0  0  0  0  0  0  0  0  0
   -2.5511    1.0425   -1.2327 S   0  0  0  0  0  0  0  0  0  0  0  0
    5.9666   -0.6947    0.1375 H   0  0  0  0  0  0  0  0  0  0  0  0
    2.7698    1.4144   -1.4844 H   0  0  0  0  0  0  0  0  0  0  0  0
    3.1108    1.4994    0.2584 H   0  0  0  0  0  0  0  0  0  0  0  0
    1.6556   -0.7956   -1.1560 H   0  0  0  0  0  0  0  0  0  0  0  0
    1.8879   -0.6856    0.6091 H   0  0  0  0  0  0  0  0  0  0  0  0
    0.2804    1.3447   -1.0188 H   0  0  0  0  0  0  0  0  0  0  0  0
    0.5727    1.4020    0.7357 H   0  0  0  0  0  0  0  0  0  0  0  0
   -0.7272   -0.9009   -0.7516 H   0  0  0  0  0  0  0  0  0  0  0  0
   -0.3433   -0.8891    1.0172 H   0  0  0  0  0  0  0  0  0  0  0  0
   -1.9935    1.1446    1.1534 H   0  0  0  0  0  0  0  0  0  0  0  0
   -2.7700   -1.5778   -0.0584 H   0  0  0  0  0  0  0  0  0  0  0  0
   -2.6570   -1.1440    1.6823 H   0  0  0  0  0  0  0  0  0  0  0  0
   -4.9822   -1.1377    0.6899 H   0  0  0  0  0  0  0  0  0  0  0  0
   -4.4813    0.3273    1.6456 H   0  0  0  0  0  0  0  0  0  0  0  0
  1  2  1  0
  2  3  2  0
  2  4  1  0
  4  5  1  0
  5  6  1  0
  6  7  1  0
  7  8  1  0
  8  9  1  0
  9 10  1  0
 10 11  1  0
 11 12  1  0
 12  8  1  0
  1 13  1  0
  4 14  1  0
  4 15  1  0
  5 16  1  0
  5 17  1  0
  6 18  1  0
  6 19  1  0
  7 20  1  0
  7 21  1  0
  8 22  1  1
  9 23  1  0
  9 24  1  0
 10 25  1  0
 10 26  1  0
M  END
$$$$
