@<TRIPOS>MOLECULE
*****
 26 26 0 0 0
SMALL
GASTEIGER

@<TRIPOS>ATOM
      1 O           5.2579    0.0599    0.0602 O.3     1  UNL1       -0.4806
      2 C           4.1281   -0.1087   -0.7553 C.2     1  UNL1        0.3047
      3 O           4.1019   -1.0174   -1.6299 O.2     1  UNL1       -0.2510
      4 C           2.9532    0.7874   -0.5893 C.3     1  UNL1        0.0448
      5 C           1.7518   -0.0988   -0.3212 C.3     1  UNL1       -0.0430
      6 C           0.4720    0.7205   -0.1262 C.3     1  UNL1       -0.0515
      7 C          -0.6144   -0.2579    0.1606 C.3     1  UNL1       -0.0403
      8 C          -1.9707    0.3611    0.3853 C.3     1  UNL1        0.0162
      9 C          -2.8995   -0.7821    0.6618 C.3     1  UNL1       -0.0305
     10 C          -4.3047   -0.2688    0.7340 C.3     1  UNL1        0.0050
     11 S          -4.6140    0.6621   -0.8072 S.3     1  UNL1       -0.0928
     12 S          -2.5511    1.0425   -1.2327 S.3     1  UNL1       -0.0897
     13 H           5.9666   -0.6947    0.1375 H       1  UNL1        0.2951
     14 H           2.7698    1.4144   -1.4844 H       1  UNL1        0.0377
     15 H           3.1108    1.4994    0.2584 H       1  UNL1        0.0377
     16 H           1.6556   -0.7956   -1.1560 H       1  UNL1        0.0270
     17 H           1.8879   -0.6856    0.6091 H       1  UNL1        0.0270
     18 H           0.2804    1.3447   -1.0188 H       1  UNL1        0.0266
     19 H           0.5727    1.4020    0.7357 H       1  UNL1        0.0266
     20 H          -0.7272   -0.9009   -0.7516 H       1  UNL1        0.0276
     21 H          -0.3433   -0.8891    1.0172 H       1  UNL1        0.0276
     22 H          -1.9935    1.1446    1.1534 H       1  UNL1        0.0421
     23 H          -2.7700   -1.5778   -0.0584 H       1  UNL1        0.0284
     24 H          -2.6570   -1.1440    1.6823 H       1  UNL1        0.0284
     25 H          -4.9822   -1.1377    0.6899 H       1  UNL1        0.0385
     26 H          -4.4813    0.3273    1.6456 H       1  UNL1        0.0385
@<TRIPOS>BOND
     1     1     2    1
     2     2     3    2
     3     2     4    1
     4     4     5    1
     5     5     6    1
     6     6     7    1
     7     7     8    1
     8     8     9    1
     9     9    10    1
    10    10    11    1
    11    11    12    1
    12    12     8    1
    13     1    13    1
    14     4    14    1
    15     4    15    1
    16     5    16    1
    17     5    17    1
    18     6    18    1
    19     6    19    1
    20     7    20    1
    21     7    21    1
    22     8    22    1
    23     9    23    1
    24     9    24    1
    25    10    25    1
    26    10    26    1
