
     RDKit          3D

 63 65  0  0  0  0  0  0  0  0999 V2000
   -5.0726   -0.2615   -0.2937 C   0  0  0  0  0  0  0  0  0  0  0  0
   -4.9120    1.1685   -0.5282 C   0  0  0  0  0  0  0  0  0  0  0  0
   -6.0455    1.9334   -0.7748 C   0  0  0  0  0  0  0  0  0  0  0  0
   -5.9340    3.2878   -0.9979 C   0  0  0  0  0  0  0  0  0  0  0  0
   -4.6980    3.8563   -0.9712 C   0  0  0  0  0  0  0  0  0  0  0  0
   -3.5605    3.0739   -0.7210 C   0  0  0  0  0  0  0  0  0  0  0  0
   -2.3045    3.7159   -0.6878 C   0  0  0  0  0  0  0  0  0  0  0  0
   -1.2643    4.2403   -0.6414 N   0  0  0  0  0  0  0  0  0  0  0  0
   -3.6506    1.7252   -0.4974 C   0  0  0  0  0  0  0  0  0  0  0  0
   -2.5850    0.9586   -0.2570 O   0  0  0  0  0  0  0  0  0  0  0  0
   -1.7020    0.2241   -0.9960 C   0  0  0  0  0  0  0  0  0  0  0  0
   -2.2973   -0.8958   -1.8207 C   0  0  0  0  0  0  0  0  0  0  0  0
   -0.9308    1.1236   -1.9409 C   0  0  0  0  0  0  0  0  0  0  0  0
   -0.6250   -0.4095   -0.1002 C   0  0  0  0  0  0  0  0  0  0  0  0
    0.0229    0.6553    0.5080 O   0  0  0  0  0  0  0  0  0  0  0  0
    1.3987    0.4599    0.5886 C   0  0  0  0  0  0  0  0  0  0  0  0
    1.5986   -0.9944    1.0248 C   0  0  0  0  0  0  0  0  0  0  0  0
    3.0950   -1.1574    1.2784 C   0  0  0  0  0  0  0  0  0  0  0  0
    3.8382   -0.8522    0.0516 C   0  0  0  0  0  0  0  0  0  0  0  0
    4.7321    0.0810   -0.1183 C   0  0  0  0  0  0  0  0  0  0  0  0
    5.1446    1.0024    0.9392 C   0  0  0  0  0  0  0  0  0  0  0  0
    4.8678    2.4542    0.5855 C   0  0  0  0  0  0  0  0  0  0  0  0
    5.5656    2.9121   -0.6154 C   0  0  0  0  0  0  0  0  0  0  0  0
    5.3923    4.0826   -1.0664 O   0  0  0  0  0  0  0  0  0  0  0  0
    6.4461    2.1207   -1.3302 O   0  0  0  0  0  0  0  0  0  0  0  0
    1.0558   -1.9179    0.0082 C   0  0  0  0  0  0  0  0  0  0  0  0
    0.4015   -3.1096    0.5930 C   0  0  0  0  0  0  0  0  0  0  0  0
    0.5852   -3.4504    1.8944 C   0  0  0  0  0  0  0  0  0  0  0  0
   -0.0688   -4.5838    2.3866 C   0  0  0  0  0  0  0  0  0  0  0  0
   -0.8809   -5.3387    1.5714 C   0  0  0  0  0  0  0  0  0  0  0  0
   -1.0423   -4.9717    0.2802 N   0  0  0  0  0  0  0  0  0  0  0  0
   -0.4185   -3.8829   -0.2059 C   0  0  0  0  0  0  0  0  0  0  0  0
    0.1845   -1.2285   -0.8494 O   0  0  0  0  0  0  0  0  0  0  0  0
   -6.0217   -0.4916    0.2417 H   0  0  0  0  0  0  0  0  0  0  0  0
   -4.2694   -0.7381    0.2865 H   0  0  0  0  0  0  0  0  0  0  0  0
   -5.1415   -0.7851   -1.2681 H   0  0  0  0  0  0  0  0  0  0  0  0
   -7.0298    1.4785   -0.7956 H   0  0  0  0  0  0  0  0  0  0  0  0
   -6.8535    3.8434   -1.1880 H   0  0  0  0  0  0  0  0  0  0  0  0
   -4.6094    4.9206   -1.1462 H   0  0  0  0  0  0  0  0  0  0  0  0
   -3.0897   -0.5637   -2.4880 H   0  0  0  0  0  0  0  0  0  0  0  0
   -2.5723   -1.7450   -1.1618 H   0  0  0  0  0  0  0  0  0  0  0  0
   -1.4679   -1.2733   -2.4876 H   0  0  0  0  0  0  0  0  0  0  0  0
   -0.2153    1.7762   -1.3857 H   0  0  0  0  0  0  0  0  0  0  0  0
   -0.2773    0.5382   -2.6272 H   0  0  0  0  0  0  0  0  0  0  0  0
   -1.6061    1.6900   -2.6175 H   0  0  0  0  0  0  0  0  0  0  0  0
   -1.0830   -1.0148    0.7003 H   0  0  0  0  0  0  0  0  0  0  0  0
    1.7600    1.0826    1.4332 H   0  0  0  0  0  0  0  0  0  0  0  0
    1.9390    0.7012   -0.3256 H   0  0  0  0  0  0  0  0  0  0  0  0
    1.0404   -1.0352    2.0109 H   0  0  0  0  0  0  0  0  0  0  0  0
    3.3056   -0.5072    2.1359 H   0  0  0  0  0  0  0  0  0  0  0  0
    3.3228   -2.2329    1.5173 H   0  0  0  0  0  0  0  0  0  0  0  0
    3.6277   -1.4812   -0.8307 H   0  0  0  0  0  0  0  0  0  0  0  0
    5.2074    0.1828   -1.1196 H   0  0  0  0  0  0  0  0  0  0  0  0
    4.7094    0.7290    1.9000 H   0  0  0  0  0  0  0  0  0  0  0  0
    6.2719    0.9445    1.1141 H   0  0  0  0  0  0  0  0  0  0  0  0
    3.7564    2.5479    0.4234 H   0  0  0  0  0  0  0  0  0  0  0  0
    5.0974    3.0963    1.4602 H   0  0  0  0  0  0  0  0  0  0  0  0
    6.7283    2.3040   -2.2814 H   0  0  0  0  0  0  0  0  0  0  0  0
    1.8581   -2.3053   -0.6465 H   0  0  0  0  0  0  0  0  0  0  0  0
    1.2061   -2.9189    2.5960 H   0  0  0  0  0  0  0  0  0  0  0  0
    0.0408   -4.9017    3.4142 H   0  0  0  0  0  0  0  0  0  0  0  0
   -1.3748   -6.2141    1.9855 H   0  0  0  0  0  0  0  0  0  0  0  0
   -0.5957   -3.6483   -1.2551 H   0  0  0  0  0  0  0  0  0  0  0  0
  1  2  1  0
  2  3  2  0
  3  4  1  0
  4  5  2  0
  5  6  1  0
  6  7  1  0
  7  8  3  0
  6  9  2  0
  9 10  1  0
 10 11  1  0
 11 12  1  0
 11 13  1  0
 11 14  1  0
 14 15  1  0
 15 16  1  0
 16 17  1  0
 17 18  1  0
 18 19  1  0
 19 20  2  0
 20 21  1  0
 21 22  1  0
 22 23  1  0
 23 24  2  0
 23 25  1  0
 17 26  1  0
 26 27  1  0
 27 28  2  0
 28 29  1  0
 29 30  2  0
 30 31  1  0
 31 32  2  0
 26 33  1  0
  9  2  1  0
 33 14  1  0
 32 27  1  0
  1 34  1  0
  1 35  1  0
  1 36  1  0
  3 37  1  0
  4 38  1  0
  5 39  1  0
 12 40  1  0
 12 41  1  0
 12 42  1  0
 13 43  1  0
 13 44  1  0
 13 45  1  0
 14 46  1  0
 16 47  1  0
 16 48  1  0
 17 49  1  0
 18 50  1  0
 18 51  1  0
 19 52  1  0
 20 53  1  0
 21 54  1  0
 21 55  1  0
 22 56  1  0
 22 57  1  0
 25 58  1  0
 26 59  1  0
 28 60  1  0
 29 61  1  0
 30 62  1  0
 32 63  1  0
M  END
$$$$
