@<TRIPOS>MOLECULE
*****
 63 65 0 0 0
SMALL
GASTEIGER

@<TRIPOS>ATOM
      1 C          -5.0726   -0.2615   -0.2937 C.3     1  UNL1       -0.0362
      2 C          -4.9120    1.1685   -0.5282 C.ar    1  UNL1       -0.0075
      3 C          -6.0455    1.9334   -0.7748 C.ar    1  UNL1       -0.0553
      4 C          -5.9340    3.2878   -0.9979 C.ar    1  UNL1       -0.0601
      5 C          -4.6980    3.8563   -0.9712 C.ar    1  UNL1       -0.0408
      6 C          -3.5605    3.0739   -0.7210 C.ar    1  UNL1        0.0936
      7 C          -2.3045    3.7159   -0.6878 C.1     1  UNL1        0.1028
      8 N          -1.2643    4.2403   -0.6414 N.1     1  UNL1       -0.1907
      9 C          -3.6506    1.7252   -0.4974 C.ar    1  UNL1        0.1417
     10 O          -2.5850    0.9586   -0.2570 O.3     1  UNL1       -0.4797
     11 C          -1.7020    0.2241   -0.9960 C.3     1  UNL1        0.1555
     12 C          -2.2973   -0.8958   -1.8207 C.3     1  UNL1       -0.0203
     13 C          -0.9308    1.1236   -1.9409 C.3     1  UNL1       -0.0203
     14 C          -0.6250   -0.4095   -0.1002 C.3     1  UNL1        0.1991
     15 O           0.0229    0.6553    0.5080 O.3     1  UNL1       -0.3473
     16 C           1.3987    0.4599    0.5886 C.3     1  UNL1        0.0566
     17 C           1.5986   -0.9944    1.0248 C.3     1  UNL1        0.0165
     18 C           3.0950   -1.1574    1.2784 C.3     1  UNL1       -0.0271
     19 C           3.8382   -0.8522    0.0516 C.2     1  UNL1       -0.0875
     20 C           4.7321    0.0810   -0.1183 C.2     1  UNL1       -0.0874
     21 C           5.1446    1.0024    0.9392 C.3     1  UNL1       -0.0247
     22 C           4.8678    2.4542    0.5855 C.3     1  UNL1        0.0482
     23 C           5.5656    2.9121   -0.6154 C.2     1  UNL1        0.3050
     24 O           5.3923    4.0826   -1.0664 O.2     1  UNL1       -0.2510
     25 O           6.4461    2.1207   -1.3302 O.3     1  UNL1       -0.4806
     26 C           1.0558   -1.9179    0.0082 C.3     1  UNL1        0.0933
     27 C           0.4015   -3.1096    0.5930 C.ar    1  UNL1       -0.0003
     28 C           0.5852   -3.4504    1.8944 C.ar    1  UNL1       -0.0532
     29 C          -0.0688   -4.5838    2.3866 C.ar    1  UNL1       -0.0433
     30 C          -0.8809   -5.3387    1.5714 C.ar    1  UNL1        0.0276
     31 N          -1.0423   -4.9717    0.2802 N.ar    1  UNL1       -0.2629
     32 C          -0.4185   -3.8829   -0.2059 C.ar    1  UNL1        0.0332
     33 O           0.1845   -1.2285   -0.8494 O.3     1  UNL1       -0.3393
     34 H          -6.0217   -0.4916    0.2417 H       1  UNL1        0.0279
     35 H          -4.2694   -0.7381    0.2865 H       1  UNL1        0.0279
     36 H          -5.1415   -0.7851   -1.2681 H       1  UNL1        0.0279
     37 H          -7.0298    1.4785   -0.7956 H       1  UNL1        0.0621
     38 H          -6.8535    3.8434   -1.1880 H       1  UNL1        0.0618
     39 H          -4.6094    4.9206   -1.1462 H       1  UNL1        0.0632
     40 H          -3.0897   -0.5637   -2.4880 H       1  UNL1        0.0270
     41 H          -2.5723   -1.7450   -1.1618 H       1  UNL1        0.0270
     42 H          -1.4679   -1.2733   -2.4876 H       1  UNL1        0.0270
     43 H          -0.2153    1.7762   -1.3857 H       1  UNL1        0.0270
     44 H          -0.2773    0.5382   -2.6272 H       1  UNL1        0.0270
     45 H          -1.6061    1.6900   -2.6175 H       1  UNL1        0.0270
     46 H          -1.0830   -1.0148    0.7003 H       1  UNL1        0.0951
     47 H           1.7600    1.0826    1.4332 H       1  UNL1        0.0564
     48 H           1.9390    0.7012   -0.3256 H       1  UNL1        0.0564
     49 H           1.0404   -1.0352    2.0109 H       1  UNL1        0.0354
     50 H           3.3056   -0.5072    2.1359 H       1  UNL1        0.0312
     51 H           3.3228   -2.2329    1.5173 H       1  UNL1        0.0312
     52 H           3.6277   -1.4812   -0.8307 H       1  UNL1        0.0569
     53 H           5.2074    0.1828   -1.1196 H       1  UNL1        0.0569
     54 H           4.7094    0.7290    1.9000 H       1  UNL1        0.0312
     55 H           6.2719    0.9445    1.1141 H       1  UNL1        0.0312
     56 H           3.7564    2.5479    0.4234 H       1  UNL1        0.0380
     57 H           5.0974    3.0963    1.4602 H       1  UNL1        0.0380
     58 H           6.7283    2.3040   -2.2814 H       1  UNL1        0.2951
     59 H           1.8581   -2.3053   -0.6465 H       1  UNL1        0.0651
     60 H           1.2061   -2.9189    2.5960 H       1  UNL1        0.0622
     61 H           0.0408   -4.9017    3.4142 H       1  UNL1        0.0633
     62 H          -1.3748   -6.2141    1.9855 H       1  UNL1        0.0829
     63 H          -0.5957   -3.6483   -1.2551 H       1  UNL1        0.0833
@<TRIPOS>BOND
     1     1     2    1
     2     2     3   ar
     3     3     4   ar
     4     4     5   ar
     5     5     6   ar
     6     6     7    1
     7     7     8    3
     8     6     9   ar
     9     9    10    1
    10    10    11    1
    11    11    12    1
    12    11    13    1
    13    11    14    1
    14    14    15    1
    15    15    16    1
    16    16    17    1
    17    17    18    1
    18    18    19    1
    19    19    20    2
    20    20    21    1
    21    21    22    1
    22    22    23    1
    23    23    24    2
    24    23    25    1
    25    17    26    1
    26    26    27    1
    27    27    28   ar
    28    28    29   ar
    29    29    30   ar
    30    30    31   ar
    31    31    32   ar
    32    26    33    1
    33     9     2   ar
    34    33    14    1
    35    32    27   ar
    36     1    34    1
    37     1    35    1
    38     1    36    1
    39     3    37    1
    40     4    38    1
    41     5    39    1
    42    12    40    1
    43    12    41    1
    44    12    42    1
    45    13    43    1
    46    13    44    1
    47    13    45    1
    48    14    46    1
    49    16    47    1
    50    16    48    1
    51    17    49    1
    52    18    50    1
    53    18    51    1
    54    19    52    1
    55    20    53    1
    56    21    54    1
    57    21    55    1
    58    22    56    1
    59    22    57    1
    60    25    58    1
    61    26    59    1
    62    28    60    1
    63    29    61    1
    64    30    62    1
    65    32    63    1
