@<TRIPOS>MOLECULE
*****
 60 65 0 0 0
SMALL
GASTEIGER

@<TRIPOS>ATOM
      1 C           6.2432   -1.3248   -0.4823 C.3     1  UNL1       -0.0157
      2 N           4.8988   -0.9768   -0.8687 N.3     1  UNL1       -0.3165
      3 C           3.9057   -1.8230   -0.2422 C.3     1  UNL1        0.0220
      4 C           2.5315   -1.4453   -0.6566 C.3     1  UNL1        0.0728
      5 C           2.1689   -0.0132   -0.5169 C.3     1  UNL1       -0.0074
      6 C           2.1626    0.5737    0.8769 C.3     1  UNL1        0.0257
      7 N           0.9453    1.4522    0.9515 N.ar    1  UNL1       -0.3459
      8 C          -0.2929    1.0257    1.2680 C.ar    1  UNL1        0.0136
      9 C          -1.1365    2.0529    1.0039 C.ar    1  UNL1        0.0131
     10 C          -0.3550    3.1402    0.5226 C.ar    1  UNL1        0.0077
     11 C          -0.6711    4.4322    0.1044 C.ar    1  UNL1       -0.0520
     12 C           0.3291    5.2924   -0.3253 C.ar    1  UNL1       -0.0611
     13 C           1.6201    4.8475   -0.3297 C.ar    1  UNL1       -0.0598
     14 C           1.9738    3.5888    0.0708 C.ar    1  UNL1       -0.0376
     15 C           0.9495    2.7308    0.5025 C.ar    1  UNL1        0.0497
     16 C          -2.6380    2.1039    1.0310 C.2     1  UNL1        0.0590
     17 C          -3.3799    1.0758    0.5165 C.2     1  UNL1        0.0590
     18 C          -4.7993    1.3672    0.6493 C.2     1  UNL1        0.2519
     19 O          -5.8110    0.7086    0.3114 O.2     1  UNL1       -0.2697
     20 N          -4.9011    2.6267    1.2735 N.am    1  UNL1       -0.2483
     21 C          -3.6087    3.0726    1.5050 C.2     1  UNL1        0.2519
     22 O          -3.3368    4.1885    2.0643 O.2     1  UNL1       -0.2697
     23 C          -2.6876   -0.1680   -0.0142 C.ar    1  UNL1        0.0131
     24 C          -1.6286   -0.3110   -0.8672 C.ar    1  UNL1        0.0137
     25 N          -1.3637   -1.6307   -0.9482 N.ar    1  UNL1       -0.3438
     26 C          -2.2641   -2.3299   -0.1518 C.ar    1  UNL1        0.0497
     27 C          -2.4611   -3.6877    0.1183 C.ar    1  UNL1       -0.0376
     28 C          -3.4674   -4.1500    0.9672 C.ar    1  UNL1       -0.0598
     29 C          -4.2845   -3.2194    1.5487 C.ar    1  UNL1       -0.0611
     30 C          -4.1209   -1.8766    1.3042 C.ar    1  UNL1       -0.0520
     31 C          -3.1109   -1.4356    0.4520 C.ar    1  UNL1        0.0077
     32 C          -0.3274   -2.3978   -1.6038 C.3     1  UNL1        0.0467
     33 C           0.7463   -2.9956   -0.7795 C.3     1  UNL1        0.0660
     34 O           1.5890   -2.2510   -0.0598 O.3     1  UNL1       -0.3735
     35 H           6.8204   -0.3720   -0.4244 H       1  UNL1        0.0388
     36 H           6.2131   -1.7207    0.5548 H       1  UNL1        0.0388
     37 H           6.7066   -2.0614   -1.1473 H       1  UNL1        0.0388
     38 H           4.7008    0.0403   -0.7624 H       1  UNL1        0.1217
     39 H           4.0988   -2.8602   -0.6518 H       1  UNL1        0.0449
     40 H           4.0487   -1.9173    0.8454 H       1  UNL1        0.0449
     41 H           2.4384   -1.6636   -1.7654 H       1  UNL1        0.0609
     42 H           2.8017    0.6151   -1.2294 H       1  UNL1        0.0308
     43 H           1.1579    0.1046   -0.9297 H       1  UNL1        0.0308
     44 H           2.3983   -0.0433    1.7058 H       1  UNL1        0.0492
     45 H           3.0812    1.2669    0.8462 H       1  UNL1        0.0492
     46 H          -0.5322   -0.0194    1.7248 H       1  UNL1        0.0815
     47 H          -1.7058    4.7510    0.1049 H       1  UNL1        0.0624
     48 H           0.0565    6.2899   -0.6440 H       1  UNL1        0.0618
     49 H           2.3929    5.5219   -0.6647 H       1  UNL1        0.0618
     50 H           3.0006    3.2378    0.0672 H       1  UNL1        0.0638
     51 H          -5.7794    3.1550    1.5283 H       1  UNL1        0.1581
     52 H          -1.0627    0.5029   -1.4461 H       1  UNL1        0.0815
     53 H          -1.8441   -4.4146   -0.3489 H       1  UNL1        0.0638
     54 H          -3.5743   -5.1940    1.1395 H       1  UNL1        0.0618
     55 H          -5.0656   -3.5777    2.2089 H       1  UNL1        0.0618
     56 H          -4.7708   -1.1915    1.7910 H       1  UNL1        0.0624
     57 H          -0.8193   -3.3470   -2.0747 H       1  UNL1        0.0514
     58 H           0.0892   -1.9385   -2.4867 H       1  UNL1        0.0514
     59 H           1.4093   -3.5408   -1.5556 H       1  UNL1        0.0578
     60 H           0.3223   -3.8666   -0.2240 H       1  UNL1        0.0578
@<TRIPOS>BOND
     1     1     2    1
     2     2     3    1
     3     3     4    1
     4     4     5    1
     5     5     6    1
     6     6     7    1
     7     7     8   ar
     8     8     9   ar
     9     9    10   ar
    10    10    11   ar
    11    11    12   ar
    12    12    13   ar
    13    13    14   ar
    14    14    15   ar
    15     9    16    1
    16    16    17    2
    17    17    18    1
    18    18    19    2
    19    18    20   am
    20    20    21   am
    21    21    22    2
    22    17    23    1
    23    23    24   ar
    24    24    25   ar
    25    25    26   ar
    26    26    27   ar
    27    27    28   ar
    28    28    29   ar
    29    29    30   ar
    30    30    31   ar
    31    25    32    1
    32    32    33    1
    33    33    34    1
    34    34     4    1
    35    15     7   ar
    36    21    16    1
    37    31    23   ar
    38    15    10   ar
    39    31    26   ar
    40     1    35    1
    41     1    36    1
    42     1    37    1
    43     2    38    1
    44     3    39    1
    45     3    40    1
    46     4    41    1
    47     5    42    1
    48     5    43    1
    49     6    44    1
    50     6    45    1
    51     8    46    1
    52    11    47    1
    53    12    48    1
    54    13    49    1
    55    14    50    1
    56    20    51    1
    57    24    52    1
    58    27    53    1
    59    28    54    1
    60    29    55    1
    61    30    56    1
    62    32    57    1
    63    32    58    1
    64    33    59    1
    65    33    60    1
