@<TRIPOS>MOLECULE
*****
 40 43 0 0 0
SMALL
GASTEIGER

@<TRIPOS>ATOM
      1 C           7.3102    0.1926    0.0217 C.3     1  UNL1       -0.0039
      2 C           5.9977   -0.5075   -0.3048 C.ar    1  UNL1        0.1359
      3 N           5.9805   -1.9545   -0.2683 N.ar    1  UNL1       -0.1939
      4 S           4.2202   -2.2503   -0.7097 S.2     1  UNL1        0.0369
      5 C           3.8124   -0.5388   -0.8602 C.ar    1  UNL1        0.1652
      6 C           2.4501   -0.0717   -1.2140 C.ar    1  UNL1        0.1910
      7 N           1.8809    0.0090   -2.4270 N.ar    1  UNL1       -0.1269
      8 N           0.6200    0.4708   -2.2537 N.ar    1  UNL1       -0.1320
      9 C           0.4312    0.6641   -0.9541 C.ar    1  UNL1        0.1542
     10 N           1.5697    0.3267   -0.3177 N.ar    1  UNL1       -0.3062
     11 C           1.5883    0.4785    1.1382 C.3     1  UNL1        0.0423
     12 C           0.3699   -0.2122    1.6690 C.3     1  UNL1        0.0338
     13 N          -0.8501    0.1265    0.9163 N.am    1  UNL1       -0.2860
     14 C          -2.0074   -0.5200    1.2462 C.2     1  UNL1        0.2473
     15 O          -1.8413   -1.3845    2.2705 O.2     1  UNL1       -0.2700
     16 C          -3.3578   -0.5078    0.7704 C.ar    1  UNL1        0.0398
     17 C          -4.4195   -0.0531    1.5726 C.ar    1  UNL1       -0.0467
     18 C          -5.7288   -0.0810    1.1409 C.ar    1  UNL1       -0.0229
     19 C          -6.0519   -0.5620   -0.1087 C.ar    1  UNL1        0.1584
     20 F          -7.3445   -0.6012   -0.5343 F       1  UNL1       -0.2025
     21 C          -5.0174   -1.0143   -0.9093 C.ar    1  UNL1        0.1591
     22 F          -5.3644   -1.4868   -2.1488 F       1  UNL1       -0.2025
     23 C          -3.7082   -0.9865   -0.4805 C.ar    1  UNL1       -0.0115
     24 C          -0.6893    1.1346   -0.0899 C.3     1  UNL1        0.0834
     25 C          -1.8918    1.5308   -0.8624 C.3     1  UNL1       -0.0393
     26 N           4.8870    0.0281   -0.6028 N.ar    1  UNL1       -0.2199
     27 H           7.0991    0.8060    0.9038 H       1  UNL1        0.0308
     28 H           7.4626    0.8820   -0.8480 H       1  UNL1        0.0308
     29 H           8.1210   -0.5185    0.1565 H       1  UNL1        0.0308
     30 H           2.4874    0.0056    1.5652 H       1  UNL1        0.0508
     31 H           1.5391    1.5728    1.3576 H       1  UNL1        0.0508
     32 H           0.5765   -1.3173    1.5447 H       1  UNL1        0.0482
     33 H           0.2296   -0.0850    2.7540 H       1  UNL1        0.0482
     34 H          -4.1406    0.3192    2.5577 H       1  UNL1        0.0626
     35 H          -6.5119    0.2743    1.7961 H       1  UNL1        0.0647
     36 H          -2.9049   -1.3454   -1.1238 H       1  UNL1        0.0655
     37 H          -0.2989    2.0598    0.4395 H       1  UNL1        0.0579
     38 H          -2.7454    1.6244   -0.1789 H       1  UNL1        0.0252
     39 H          -2.0580    0.9130   -1.7625 H       1  UNL1        0.0252
     40 H          -1.7014    2.5794   -1.2230 H       1  UNL1        0.0252
@<TRIPOS>BOND
     1     1     2    1
     2     2     3   ar
     3     3     4   ar
     4     4     5   ar
     5     5     6    1
     6     6     7   ar
     7     7     8   ar
     8     8     9   ar
     9     9    10   ar
    10    10    11    1
    11    11    12    1
    12    12    13    1
    13    13    14   am
    14    14    15    2
    15    14    16    1
    16    16    17   ar
    17    17    18   ar
    18    18    19   ar
    19    19    20    1
    20    19    21   ar
    21    21    22    1
    22    21    23   ar
    23    13    24    1
    24    24    25    1
    25     5    26   ar
    26    26     2   ar
    27    10     6   ar
    28    23    16   ar
    29    24     9    1
    30     1    27    1
    31     1    28    1
    32     1    29    1
    33    11    30    1
    34    11    31    1
    35    12    32    1
    36    12    33    1
    37    17    34    1
    38    18    35    1
    39    23    36    1
    40    24    37    1
    41    25    38    1
    42    25    39    1
    43    25    40    1
