@<TRIPOS>MOLECULE
*****
 32 33 0 0 0
SMALL
GASTEIGER

@<TRIPOS>ATOM
      1 C          -3.7598    1.9814    0.4404 C.3     1  UNL1        0.0790
      2 O          -3.6378    0.6175    0.7170 O.3     1  UNL1       -0.4915
      3 C          -2.6602   -0.2532    0.3624 C.ar    1  UNL1        0.1615
      4 C          -1.5503    0.1268   -0.3947 C.ar    1  UNL1       -0.0128
      5 C          -0.5890   -0.7746   -0.7304 C.ar    1  UNL1       -0.0392
      6 C           0.5988   -0.4142   -1.5220 C.3     1  UNL1        0.0024
      7 C           1.8025   -0.1055   -0.7268 C.ar    1  UNL1        0.0146
      8 C           2.7846   -1.0946   -0.6189 C.ar    1  UNL1        0.0379
      9 N           3.8739   -0.8203    0.1169 N.ar    1  UNL1       -0.2227
     10 C           4.0841    0.3393    0.7561 C.ar    1  UNL1        0.2142
     11 N           5.2471    0.5630    1.5103 N.pl3   1  UNL1       -0.3274
     12 N           3.1515    1.2970    0.6616 N.ar    1  UNL1       -0.1999
     13 C           2.0207    1.0698   -0.0769 C.ar    1  UNL1        0.1247
     14 N           1.0368    2.0894   -0.1911 N.pl3   1  UNL1       -0.3428
     15 C          -0.7156   -2.0921   -0.3133 C.ar    1  UNL1       -0.0546
     16 C          -1.8227   -2.4859    0.4450 C.ar    1  UNL1       -0.0163
     17 C          -2.7896   -1.5743    0.7815 C.ar    1  UNL1        0.1585
     18 O          -3.9193   -1.9376    1.5453 O.3     1  UNL1       -0.5033
     19 H          -4.0184    2.5758    1.3601 H       1  UNL1        0.0660
     20 H          -2.8427    2.4721    0.0616 H       1  UNL1        0.0660
     21 H          -4.5460    2.2277   -0.3051 H       1  UNL1        0.0660
     22 H          -1.5296    1.1719   -0.6866 H       1  UNL1        0.0658
     23 H           0.3263    0.4482   -2.2044 H       1  UNL1        0.0363
     24 H           0.8288   -1.2392   -2.2684 H       1  UNL1        0.0363
     25 H           2.6271   -2.0390   -1.1322 H       1  UNL1        0.0834
     26 H           5.5168   -0.1406    2.2483 H       1  UNL1        0.1452
     27 H           5.8191    1.4158    1.3269 H       1  UNL1        0.1452
     28 H           0.5569    2.2292   -1.1011 H       1  UNL1        0.1437
     29 H           0.8255    2.6724    0.6454 H       1  UNL1        0.1437
     30 H           0.0260   -2.8229   -0.5644 H       1  UNL1        0.0622
     31 H          -1.9510   -3.5056    0.7856 H       1  UNL1        0.0655
     32 H          -4.7945   -1.9979    1.0011 H       1  UNL1        0.2923
@<TRIPOS>BOND
     1     1     2    1
     2     2     3    1
     3     3     4   ar
     4     4     5   ar
     5     5     6    1
     6     6     7    1
     7     7     8   ar
     8     8     9   ar
     9     9    10   ar
    10    10    11    1
    11    10    12   ar
    12    12    13   ar
    13    13    14    1
    14     5    15   ar
    15    15    16   ar
    16    16    17   ar
    17    17    18    1
    18    17     3   ar
    19    13     7   ar
    20     1    19    1
    21     1    20    1
    22     1    21    1
    23     4    22    1
    24     6    23    1
    25     6    24    1
    26     8    25    1
    27    11    26    1
    28    11    27    1
    29    14    28    1
    30    14    29    1
    31    15    30    1
    32    16    31    1
    33    18    32    1
