
     RDKit          3D

 32 33  0  0  0  0  0  0  0  0999 V2000
   -3.7598    1.9814    0.4404 C   0  0  0  0  0  0  0  0  0  0  0  0
   -3.6378    0.6175    0.7170 O   0  0  0  0  0  0  0  0  0  0  0  0
   -2.6602   -0.2532    0.3624 C   0  0  0  0  0  0  0  0  0  0  0  0
   -1.5503    0.1268   -0.3947 C   0  0  0  0  0  0  0  0  0  0  0  0
   -0.5890   -0.7746   -0.7304 C   0  0  0  0  0  0  0  0  0  0  0  0
    0.5988   -0.4142   -1.5220 C   0  0  0  0  0  0  0  0  0  0  0  0
    1.8025   -0.1055   -0.7268 C   0  0  0  0  0  0  0  0  0  0  0  0
    2.7846   -1.0946   -0.6189 C   0  0  0  0  0  0  0  0  0  0  0  0
    3.8739   -0.8203    0.1169 N   0  0  0  0  0  0  0  0  0  0  0  0
    4.0841    0.3393    0.7561 C   0  0  0  0  0  0  0  0  0  0  0  0
    5.2471    0.5630    1.5103 N   0  0  0  0  0  0  0  0  0  0  0  0
    3.1515    1.2970    0.6616 N   0  0  0  0  0  0  0  0  0  0  0  0
    2.0207    1.0698   -0.0769 C   0  0  0  0  0  0  0  0  0  0  0  0
    1.0368    2.0894   -0.1911 N   0  0  0  0  0  0  0  0  0  0  0  0
   -0.7156   -2.0921   -0.3133 C   0  0  0  0  0  0  0  0  0  0  0  0
   -1.8227   -2.4859    0.4450 C   0  0  0  0  0  0  0  0  0  0  0  0
   -2.7896   -1.5743    0.7815 C   0  0  0  0  0  0  0  0  0  0  0  0
   -3.9193   -1.9376    1.5453 O   0  0  0  0  0  0  0  0  0  0  0  0
   -4.0184    2.5758    1.3601 H   0  0  0  0  0  0  0  0  0  0  0  0
   -2.8427    2.4721    0.0616 H   0  0  0  0  0  0  0  0  0  0  0  0
   -4.5460    2.2277   -0.3051 H   0  0  0  0  0  0  0  0  0  0  0  0
   -1.5296    1.1719   -0.6866 H   0  0  0  0  0  0  0  0  0  0  0  0
    0.3263    0.4482   -2.2044 H   0  0  0  0  0  0  0  0  0  0  0  0
    0.8288   -1.2392   -2.2684 H   0  0  0  0  0  0  0  0  0  0  0  0
    2.6271   -2.0390   -1.1322 H   0  0  0  0  0  0  0  0  0  0  0  0
    5.5168   -0.1406    2.2483 H   0  0  0  0  0  0  0  0  0  0  0  0
    5.8191    1.4158    1.3269 H   0  0  0  0  0  0  0  0  0  0  0  0
    0.5569    2.2292   -1.1011 H   0  0  0  0  0  0  0  0  0  0  0  0
    0.8255    2.6724    0.6454 H   0  0  0  0  0  0  0  0  0  0  0  0
    0.0260   -2.8229   -0.5644 H   0  0  0  0  0  0  0  0  0  0  0  0
   -1.9510   -3.5056    0.7856 H   0  0  0  0  0  0  0  0  0  0  0  0
   -4.7945   -1.9979    1.0011 H   0  0  0  0  0  0  0  0  0  0  0  0
  1  2  1  0
  2  3  1  0
  3  4  2  0
  4  5  1  0
  5  6  1  0
  6  7  1  0
  7  8  2  0
  8  9  1  0
  9 10  2  0
 10 11  1  0
 10 12  1  0
 12 13  2  0
 13 14  1  0
  5 15  2  0
 15 16  1  0
 16 17  2  0
 17 18  1  0
 17  3  1  0
 13  7  1  0
  1 19  1  0
  1 20  1  0
  1 21  1  0
  4 22  1  0
  6 23  1  0
  6 24  1  0
  8 25  1  0
 11 26  1  0
 11 27  1  0
 14 28  1  0
 14 29  1  0
 15 30  1  0
 16 31  1  0
 18 32  1  0
M  END
$$$$
