
     RDKit          3D

 58 63  0  0  0  0  0  0  0  0999 V2000
    7.3583   -1.0789    0.2396 C   0  0  0  0  0  0  0  0  0  0  0  0
    6.1962   -0.9653   -0.7280 C   0  0  0  0  0  0  0  0  0  0  0  0
    6.3782    0.3911   -1.4263 C   0  0  0  0  0  0  0  0  0  0  0  0
    4.9653   -0.9097   -0.0919 O   0  0  0  0  0  0  0  0  0  0  0  0
    3.8532   -1.6685   -0.2995 C   0  0  0  0  0  0  0  0  0  0  0  0
    3.8713   -2.5480   -1.1649 O   0  0  0  0  0  0  0  0  0  0  0  0
    2.6779   -1.4594    0.4668 N   0  0  0  0  0  0  0  0  0  0  0  0
    1.5583   -2.2967    0.1927 C   0  0  0  0  0  0  0  0  0  0  0  0
    0.4163   -1.7115   -0.5260 C   0  0  0  0  0  0  0  0  0  0  0  0
    0.0207   -0.3799   -0.1894 N   0  0  0  0  0  0  0  0  0  0  0  0
   -1.1676    0.0737   -0.6918 C   0  0  0  0  0  0  0  0  0  0  0  0
   -1.3685    1.3724   -0.2874 C   0  0  0  0  0  0  0  0  0  0  0  0
   -2.5460    2.1538   -0.6183 C   0  0  0  0  0  0  0  0  0  0  0  0
   -3.7978    1.7091   -0.4096 C   0  0  0  0  0  0  0  0  0  0  0  0
   -4.0677    0.3963    0.1800 C   0  0  0  0  0  0  0  0  0  0  0  0
   -3.4142   -0.0983    1.3279 C   0  0  0  0  0  0  0  0  0  0  0  0
   -3.8612   -1.3214    1.6123 N   0  0  0  0  0  0  0  0  0  0  0  0
   -4.7919   -1.6261    0.6686 C   0  0  0  0  0  0  0  0  0  0  0  0
   -5.5749   -2.7408    0.4612 C   0  0  0  0  0  0  0  0  0  0  0  0
   -6.4742   -2.8099   -0.6079 C   0  0  0  0  0  0  0  0  0  0  0  0
   -6.5479   -1.7208   -1.4453 C   0  0  0  0  0  0  0  0  0  0  0  0
   -5.7532   -0.6216   -1.2139 C   0  0  0  0  0  0  0  0  0  0  0  0
   -4.8992   -0.5893   -0.1750 N   0  0  0  0  0  0  0  0  0  0  0  0
   -4.7612    2.7036   -0.8375 C   0  0  0  0  0  0  0  0  0  0  0  0
   -6.0332    2.6634   -0.8039 O   0  0  0  0  0  0  0  0  0  0  0  0
   -4.0148    3.8318   -1.3436 N   0  0  0  0  0  0  0  0  0  0  0  0
   -2.6499    3.4783   -1.2018 C   0  0  0  0  0  0  0  0  0  0  0  0
   -1.7040    4.2237   -1.5418 O   0  0  0  0  0  0  0  0  0  0  0  0
   -0.2665    1.6810    0.4733 C   0  0  0  0  0  0  0  0  0  0  0  0
    0.0971    2.8240    1.1541 C   0  0  0  0  0  0  0  0  0  0  0  0
    1.2913    2.8741    1.8771 C   0  0  0  0  0  0  0  0  0  0  0  0
    2.1340    1.7809    1.9259 C   0  0  0  0  0  0  0  0  0  0  0  0
    1.7666    0.6428    1.2443 C   0  0  0  0  0  0  0  0  0  0  0  0
    0.5899    0.5875    0.5295 C   0  0  0  0  0  0  0  0  0  0  0  0
    2.8073   -0.3929    1.4413 C   0  0  0  0  0  0  0  0  0  0  0  0
    7.1745   -0.4037    1.1067 H   0  0  0  0  0  0  0  0  0  0  0  0
    7.5856   -2.1108    0.5470 H   0  0  0  0  0  0  0  0  0  0  0  0
    8.2548   -0.6851   -0.2799 H   0  0  0  0  0  0  0  0  0  0  0  0
    6.2927   -1.7309   -1.5113 H   0  0  0  0  0  0  0  0  0  0  0  0
    5.6974    0.4768   -2.2832 H   0  0  0  0  0  0  0  0  0  0  0  0
    7.4390    0.5614   -1.6956 H   0  0  0  0  0  0  0  0  0  0  0  0
    6.0628    1.1461   -0.6786 H   0  0  0  0  0  0  0  0  0  0  0  0
    1.9135   -3.1763   -0.4324 H   0  0  0  0  0  0  0  0  0  0  0  0
    1.2324   -2.8123    1.1516 H   0  0  0  0  0  0  0  0  0  0  0  0
   -0.4741   -2.3784   -0.3274 H   0  0  0  0  0  0  0  0  0  0  0  0
    0.5730   -1.8204   -1.6265 H   0  0  0  0  0  0  0  0  0  0  0  0
   -1.8525   -0.4772   -1.3060 H   0  0  0  0  0  0  0  0  0  0  0  0
   -2.6770    0.4521    1.8648 H   0  0  0  0  0  0  0  0  0  0  0  0
   -5.4894   -3.5811    1.1409 H   0  0  0  0  0  0  0  0  0  0  0  0
   -7.0885   -3.6837   -0.7716 H   0  0  0  0  0  0  0  0  0  0  0  0
   -7.2260   -1.7087   -2.2951 H   0  0  0  0  0  0  0  0  0  0  0  0
   -5.8321    0.2283   -1.9141 H   0  0  0  0  0  0  0  0  0  0  0  0
   -4.4309    4.7082   -1.7272 H   0  0  0  0  0  0  0  0  0  0  0  0
   -0.5808    3.6566    1.0940 H   0  0  0  0  0  0  0  0  0  0  0  0
    1.5299    3.7957    2.3939 H   0  0  0  0  0  0  0  0  0  0  0  0
    3.0422    1.8638    2.4961 H   0  0  0  0  0  0  0  0  0  0  0  0
    3.8303    0.0321    1.3560 H   0  0  0  0  0  0  0  0  0  0  0  0
    2.7353   -0.8007    2.4730 H   0  0  0  0  0  0  0  0  0  0  0  0
  1  2  1  0
  2  3  1  0
  2  4  1  0
  4  5  1  0
  5  6  2  0
  5  7  1  0
  7  8  1  0
  8  9  1  0
  9 10  1  0
 10 11  1  0
 11 12  2  0
 12 13  1  0
 13 14  2  0
 14 15  1  0
 15 16  2  0
 16 17  1  0
 17 18  2  0
 18 19  1  0
 19 20  2  0
 20 21  1  0
 21 22  2  0
 22 23  1  0
 14 24  1  0
 24 25  2  0
 24 26  1  0
 26 27  1  0
 27 28  2  0
 12 29  1  0
 29 30  2  0
 30 31  1  0
 31 32  2  0
 32 33  1  0
 33 34  2  0
 33 35  1  0
 35  7  1  0
 34 10  1  0
 27 13  1  0
 34 29  1  0
 23 15  1  0
 23 18  1  0
  1 36  1  0
  1 37  1  0
  1 38  1  0
  2 39  1  0
  3 40  1  0
  3 41  1  0
  3 42  1  0
  8 43  1  0
  8 44  1  0
  9 45  1  0
  9 46  1  0
 11 47  1  0
 16 48  1  0
 19 49  1  0
 20 50  1  0
 21 51  1  0
 22 52  1  0
 26 53  1  0
 30 54  1  0
 31 55  1  0
 32 56  1  0
 35 57  1  0
 35 58  1  0
M  END
$$$$
