@<TRIPOS>MOLECULE
*****
 58 63 0 0 0
SMALL
GASTEIGER

@<TRIPOS>ATOM
      1 C           7.3583   -1.0789    0.2396 C.3     1  UNL1       -0.0279
      2 C           6.1962   -0.9653   -0.7280 C.3     1  UNL1        0.0991
      3 C           6.3782    0.3911   -1.4263 C.3     1  UNL1       -0.0279
      4 O           4.9653   -0.9097   -0.0919 O.3     1  UNL1       -0.4475
      5 C           3.8532   -1.6685   -0.2995 C.2     1  UNL1        0.4034
      6 O           3.8713   -2.5480   -1.1649 O.2     1  UNL1       -0.2262
      7 N           2.6779   -1.4594    0.4668 N.am    1  UNL1       -0.2613
      8 C           1.5583   -2.2967    0.1927 C.3     1  UNL1        0.0361
      9 C           0.4163   -1.7115   -0.5260 C.3     1  UNL1        0.0392
     10 N           0.0207   -0.3799   -0.1894 N.ar    1  UNL1       -0.3443
     11 C          -1.1676    0.0737   -0.6918 C.ar    1  UNL1        0.0137
     12 C          -1.3685    1.3724   -0.2874 C.ar    1  UNL1        0.0131
     13 C          -2.5460    2.1538   -0.6183 C.2     1  UNL1        0.0604
     14 C          -3.7978    1.7091   -0.4096 C.2     1  UNL1        0.0751
     15 C          -4.0677    0.3963    0.1800 C.ar    1  UNL1        0.0789
     16 C          -3.4142   -0.0983    1.3279 C.ar    1  UNL1        0.0545
     17 N          -3.8612   -1.3214    1.6123 N.ar    1  UNL1       -0.2355
     18 C          -4.7919   -1.6261    0.6686 C.ar    1  UNL1        0.1380
     19 C          -5.5749   -2.7408    0.4612 C.ar    1  UNL1       -0.0188
     20 C          -6.4742   -2.8099   -0.6079 C.ar    1  UNL1       -0.0569
     21 C          -6.5479   -1.7208   -1.4453 C.ar    1  UNL1       -0.0450
     22 C          -5.7532   -0.6216   -1.2139 C.ar    1  UNL1        0.0118
     23 N          -4.8992   -0.5893   -0.1750 N.ar    1  UNL1       -0.2991
     24 C          -4.7612    2.7036   -0.8375 C.2     1  UNL1        0.2533
     25 O          -6.0332    2.6634   -0.8039 O.2     1  UNL1       -0.2697
     26 N          -4.0148    3.8318   -1.3436 N.am    1  UNL1       -0.2482
     27 C          -2.6499    3.4783   -1.2018 C.2     1  UNL1        0.2519
     28 O          -1.7040    4.2237   -1.5418 O.2     1  UNL1       -0.2697
     29 C          -0.2665    1.6810    0.4733 C.ar    1  UNL1        0.0081
     30 C           0.0971    2.8240    1.1541 C.ar    1  UNL1       -0.0520
     31 C           1.2913    2.8741    1.8771 C.ar    1  UNL1       -0.0607
     32 C           2.1340    1.7809    1.9259 C.ar    1  UNL1       -0.0551
     33 C           1.7666    0.6428    1.2443 C.ar    1  UNL1       -0.0059
     34 C           0.5899    0.5875    0.5295 C.ar    1  UNL1        0.0544
     35 C           2.8073   -0.3929    1.4413 C.3     1  UNL1        0.0449
     36 H           7.1745   -0.4037    1.1067 H       1  UNL1        0.0265
     37 H           7.5856   -2.1108    0.5470 H       1  UNL1        0.0265
     38 H           8.2548   -0.6851   -0.2799 H       1  UNL1        0.0265
     39 H           6.2927   -1.7309   -1.5113 H       1  UNL1        0.0729
     40 H           5.6974    0.4768   -2.2832 H       1  UNL1        0.0265
     41 H           7.4390    0.5614   -1.6956 H       1  UNL1        0.0265
     42 H           6.0628    1.1461   -0.6786 H       1  UNL1        0.0265
     43 H           1.9135   -3.1763   -0.4324 H       1  UNL1        0.0483
     44 H           1.2324   -2.8123    1.1516 H       1  UNL1        0.0483
     45 H          -0.4741   -2.3784   -0.3274 H       1  UNL1        0.0507
     46 H           0.5730   -1.8204   -1.6265 H       1  UNL1        0.0507
     47 H          -1.8525   -0.4772   -1.3060 H       1  UNL1        0.0815
     48 H          -2.6770    0.4521    1.8648 H       1  UNL1        0.0852
     49 H          -5.4894   -3.5811    1.1409 H       1  UNL1        0.0654
     50 H          -7.0885   -3.6837   -0.7716 H       1  UNL1        0.0619
     51 H          -7.2260   -1.7087   -2.2951 H       1  UNL1        0.0632
     52 H          -5.8321    0.2283   -1.9141 H       1  UNL1        0.0813
     53 H          -4.4309    4.7082   -1.7272 H       1  UNL1        0.1581
     54 H          -0.5808    3.6566    1.0940 H       1  UNL1        0.0624
     55 H           1.5299    3.7957    2.3939 H       1  UNL1        0.0618
     56 H           3.0422    1.8638    2.4961 H       1  UNL1        0.0621
     57 H           3.8303    0.0321    1.3560 H       1  UNL1        0.0515
     58 H           2.7353   -0.8007    2.4730 H       1  UNL1        0.0515
@<TRIPOS>BOND
     1     1     2    1
     2     2     3    1
     3     2     4    1
     4     4     5    1
     5     5     6    2
     6     5     7   am
     7     7     8    1
     8     8     9    1
     9     9    10    1
    10    10    11   ar
    11    11    12   ar
    12    12    13    1
    13    13    14    2
    14    14    15    1
    15    15    16   ar
    16    16    17   ar
    17    17    18   ar
    18    18    19   ar
    19    19    20   ar
    20    20    21   ar
    21    21    22   ar
    22    22    23   ar
    23    14    24    1
    24    24    25    2
    25    24    26   am
    26    26    27   am
    27    27    28    2
    28    12    29   ar
    29    29    30   ar
    30    30    31   ar
    31    31    32   ar
    32    32    33   ar
    33    33    34   ar
    34    33    35    1
    35    35     7    1
    36    34    10   ar
    37    27    13    1
    38    34    29   ar
    39    23    15   ar
    40    23    18   ar
    41     1    36    1
    42     1    37    1
    43     1    38    1
    44     2    39    1
    45     3    40    1
    46     3    41    1
    47     3    42    1
    48     8    43    1
    49     8    44    1
    50     9    45    1
    51     9    46    1
    52    11    47    1
    53    16    48    1
    54    19    49    1
    55    20    50    1
    56    21    51    1
    57    22    52    1
    58    26    53    1
    59    30    54    1
    60    31    55    1
    61    32    56    1
    62    35    57    1
    63    35    58    1
