
     RDKit          3D

 48 52  0  0  0  0  0  0  0  0999 V2000
   -0.1681   -4.1512    0.8267 C   0  0  0  0  0  0  0  0  0  0  0  0
    1.1261   -4.1942    0.0175 C   0  0  0  0  0  0  0  0  0  0  0  0
    1.7991   -2.8753    0.0466 C   0  0  0  0  0  0  0  0  0  0  0  0
    0.8951   -1.7017   -0.0948 C   0  0  0  0  0  0  0  0  0  0  0  0
    1.4144   -0.4032   -0.2101 C   0  0  0  0  0  0  0  0  0  0  0  0
    0.0660    0.6307   -0.3581 P   0  0  0  0  0  0  0  0  0  0  0  0
   -1.2364   -0.7151   -0.2623 C   0  0  0  0  0  0  0  0  0  0  0  0
   -0.4331   -1.8982   -0.1167 C   0  0  0  0  0  0  0  0  0  0  0  0
   -1.0551   -3.2402    0.0037 C   0  0  0  0  0  0  0  0  0  0  0  0
   -2.7095   -0.4995   -0.3279 C   0  0  0  0  0  0  0  0  0  0  0  0
   -3.4318   -1.1713    0.5819 N   0  0  0  0  0  0  0  0  0  0  0  0
   -4.7709   -0.9931    0.5441 C   0  0  0  0  0  0  0  0  0  0  0  0
   -5.3278   -0.1454   -0.4089 C   0  0  0  0  0  0  0  0  0  0  0  0
   -4.5566    0.5361   -1.3371 C   0  0  0  0  0  0  0  0  0  0  0  0
   -3.1893    0.3444   -1.2865 C   0  0  0  0  0  0  0  0  0  0  0  0
   -0.2418    2.3160    0.2401 C   0  0  0  0  0  0  0  0  0  0  0  0
   -0.1048    2.6993    1.5555 C   0  0  0  0  0  0  0  0  0  0  0  0
   -0.3550    4.0043    1.9513 C   0  0  0  0  0  0  0  0  0  0  0  0
   -0.7547    4.9738    1.0269 C   0  0  0  0  0  0  0  0  0  0  0  0
   -0.9000    4.6110   -0.3069 C   0  0  0  0  0  0  0  0  0  0  0  0
   -0.6425    3.2935   -0.6785 C   0  0  0  0  0  0  0  0  0  0  0  0
    2.7418    0.1064   -0.2191 C   0  0  0  0  0  0  0  0  0  0  0  0
    3.6518   -0.3280    0.6825 N   0  0  0  0  0  0  0  0  0  0  0  0
    4.9183    0.1296    0.7070 C   0  0  0  0  0  0  0  0  0  0  0  0
    5.2917    1.0733   -0.2224 C   0  0  0  0  0  0  0  0  0  0  0  0
    4.3941    1.5444   -1.1611 C   0  0  0  0  0  0  0  0  0  0  0  0
    3.1144    1.0525   -1.1518 C   0  0  0  0  0  0  0  0  0  0  0  0
   -0.0414   -3.7152    1.8237 H   0  0  0  0  0  0  0  0  0  0  0  0
   -0.6278   -5.1540    0.8158 H   0  0  0  0  0  0  0  0  0  0  0  0
    0.8642   -4.5055   -1.0022 H   0  0  0  0  0  0  0  0  0  0  0  0
    1.7511   -4.9548    0.5120 H   0  0  0  0  0  0  0  0  0  0  0  0
    2.6284   -2.8527   -0.7080 H   0  0  0  0  0  0  0  0  0  0  0  0
    2.3547   -2.8386    1.0296 H   0  0  0  0  0  0  0  0  0  0  0  0
   -1.0754   -3.6859   -1.0103 H   0  0  0  0  0  0  0  0  0  0  0  0
   -2.0781   -3.2005    0.4181 H   0  0  0  0  0  0  0  0  0  0  0  0
   -5.4406   -1.4919    1.2373 H   0  0  0  0  0  0  0  0  0  0  0  0
   -6.3994   -0.0019   -0.4403 H   0  0  0  0  0  0  0  0  0  0  0  0
   -4.9721    1.1986   -2.0844 H   0  0  0  0  0  0  0  0  0  0  0  0
   -2.5636    0.8575   -1.9912 H   0  0  0  0  0  0  0  0  0  0  0  0
    0.2048    1.9295    2.2449 H   0  0  0  0  0  0  0  0  0  0  0  0
   -0.2383    4.2842    3.0064 H   0  0  0  0  0  0  0  0  0  0  0  0
   -0.9573    6.0024    1.3080 H   0  0  0  0  0  0  0  0  0  0  0  0
   -1.2032    5.3024   -1.0696 H   0  0  0  0  0  0  0  0  0  0  0  0
   -0.7534    3.0161   -1.6975 H   0  0  0  0  0  0  0  0  0  0  0  0
    5.5783   -0.2805    1.4711 H   0  0  0  0  0  0  0  0  0  0  0  0
    6.3313    1.4096   -0.1567 H   0  0  0  0  0  0  0  0  0  0  0  0
    4.7249    2.2836   -1.8725 H   0  0  0  0  0  0  0  0  0  0  0  0
    2.3774    1.3989   -1.8758 H   0  0  0  0  0  0  0  0  0  0  0  0
  1  2  1  0
  2  3  1  0
  3  4  1  0
  4  5  2  0
  5  6  1  0
  6  7  1  0
  7  8  2  0
  8  9  1  0
  7 10  1  0
 10 11  2  0
 11 12  1  0
 12 13  2  0
 13 14  1  0
 14 15  2  0
  6 16  1  0
 16 17  2  0
 17 18  1  0
 18 19  2  0
 19 20  1  0
 20 21  2  0
  5 22  1  0
 22 23  2  0
 23 24  1  0
 24 25  2  0
 25 26  1  0
 26 27  2  0
  9  1  1  0
 15 10  1  0
 21 16  1  0
 27 22  1  0
  8  4  1  0
  1 28  1  0
  1 29  1  0
  2 30  1  0
  2 31  1  0
  3 32  1  0
  3 33  1  0
  9 34  1  0
  9 35  1  0
 12 36  1  0
 13 37  1  0
 14 38  1  0
 15 39  1  0
 17 40  1  0
 18 41  1  0
 19 42  1  0
 20 43  1  0
 21 44  1  0
 24 45  1  0
 25 46  1  0
 26 47  1  0
 27 48  1  0
M  END
$$$$
