@<TRIPOS>MOLECULE
*****
 49 52 0 0 0
SMALL
GASTEIGER

@<TRIPOS>ATOM
      1 N          -7.2808    4.0601   -0.5804 N.am    1  UNL1       -0.3253
      2 C          -6.4386    3.4040    0.3403 C.2     1  UNL1        0.2431
      3 O          -6.0188    4.0118    1.3350 O.2     1  UNL1       -0.2704
      4 C          -6.0647    1.9931    0.1075 C.ar    1  UNL1        0.0580
      5 C          -6.5279    1.3110   -0.9966 C.ar    1  UNL1        0.0399
      6 N          -6.1970    0.0302   -1.2206 N.ar    1  UNL1       -0.2589
      7 C          -5.3829   -0.6328   -0.3464 C.ar    1  UNL1        0.0692
      8 C          -4.8787   -0.0254    0.7769 C.ar    1  UNL1        0.1397
      9 O          -4.0745   -0.5945    1.6851 O.3     1  UNL1       -0.4858
     10 C          -3.4514   -1.7555    1.9521 C.3     1  UNL1        0.1148
     11 C          -2.4457   -2.1544    0.9174 C.ar    1  UNL1       -0.0087
     12 C          -2.7503   -3.0614   -0.0664 C.ar    1  UNL1       -0.0552
     13 C          -1.8462   -3.4284   -1.0244 C.ar    1  UNL1       -0.0596
     14 C          -0.5739   -2.8450   -0.9773 C.ar    1  UNL1       -0.0404
     15 C          -0.2201   -1.9342   -0.0149 C.ar    1  UNL1        0.0340
     16 N           1.0521   -1.3255    0.0646 N.am    1  UNL1       -0.2815
     17 C           2.1543   -1.5128   -0.7732 C.2     1  UNL1        0.2497
     18 O           2.0697   -2.3109   -1.7396 O.2     1  UNL1       -0.2698
     19 C           3.4210   -0.7847   -0.5393 C.ar    1  UNL1        0.0551
     20 C           3.6021    0.0906    0.4724 C.ar    1  UNL1       -0.0461
     21 C           4.8381    0.7289    0.6091 C.ar    1  UNL1       -0.0345
     22 C           5.8533    0.4769   -0.2634 C.ar    1  UNL1        0.0776
     23 C           7.1727    1.1408   -0.1397 C.ar    1  UNL1        0.0375
     24 C           8.2669    1.0192   -0.8898 C.ar    1  UNL1       -0.0455
     25 C           9.3719    1.7181   -0.6049 C.ar    1  UNL1       -0.0541
     26 C           9.2902    2.5713    0.5220 C.ar    1  UNL1       -0.0237
     27 S           7.6228    2.2926    1.0765 S.2     1  UNL1       -0.0951
     28 N           5.6719   -0.3783   -1.2496 N.ar    1  UNL1       -0.2537
     29 C           4.4931   -1.0140   -1.4141 C.ar    1  UNL1        0.0404
     30 C          -1.1799   -1.6027    0.9281 C.ar    1  UNL1       -0.0341
     31 C          -5.2546    1.3270    0.9732 C.ar    1  UNL1       -0.0048
     32 H          -8.3049    3.9659   -0.4945 H       1  UNL1        0.1453
     33 H          -6.8853    4.6344   -1.3404 H       1  UNL1        0.1453
     34 H          -7.1786    1.8581   -1.6854 H       1  UNL1        0.0837
     35 H          -5.1292   -1.6667   -0.5263 H       1  UNL1        0.0867
     36 H          -2.9001   -1.7271    2.9507 H       1  UNL1        0.0748
     37 H          -4.2379   -2.5782    2.0248 H       1  UNL1        0.0748
     38 H          -3.7498   -3.5266   -0.0973 H       1  UNL1        0.0621
     39 H          -2.0943   -4.1564   -1.8125 H       1  UNL1        0.0618
     40 H           0.1167   -3.1671   -1.7620 H       1  UNL1        0.0636
     41 H           1.1719   -0.6365    0.8733 H       1  UNL1        0.1551
     42 H           2.8061    0.3187    1.1953 H       1  UNL1        0.0626
     43 H           4.9468    1.4193    1.4258 H       1  UNL1        0.0639
     44 H           8.2382    0.3109   -1.7728 H       1  UNL1        0.0629
     45 H          10.3222    1.6538   -1.2040 H       1  UNL1        0.0623
     46 H          10.0762    3.2493    0.9541 H       1  UNL1        0.0693
     47 H           4.3589   -1.7191   -2.2356 H       1  UNL1        0.0837
     48 H          -0.9723   -0.8861    1.7237 H       1  UNL1        0.0640
     49 H          -4.8789    1.8387    1.8450 H       1  UNL1        0.0663
@<TRIPOS>BOND
     1     1     2   am
     2     2     3    2
     3     2     4    1
     4     4     5   ar
     5     5     6   ar
     6     6     7   ar
     7     7     8   ar
     8     8     9    1
     9     9    10    1
    10    10    11    1
    11    11    12   ar
    12    12    13   ar
    13    13    14   ar
    14    14    15   ar
    15    15    16    1
    16    16    17   am
    17    17    18    2
    18    17    19    1
    19    19    20   ar
    20    20    21   ar
    21    21    22   ar
    22    22    23    1
    23    23    24   ar
    24    24    25   ar
    25    25    26   ar
    26    26    27   ar
    27    22    28   ar
    28    28    29   ar
    29    15    30   ar
    30     8    31   ar
    31    31     4   ar
    32    30    11   ar
    33    29    19   ar
    34    27    23   ar
    35     1    32    1
    36     1    33    1
    37     5    34    1
    38     7    35    1
    39    10    36    1
    40    10    37    1
    41    12    38    1
    42    13    39    1
    43    14    40    1
    44    16    41    1
    45    20    42    1
    46    21    43    1
    47    24    44    1
    48    25    45    1
    49    26    46    1
    50    29    47    1
    51    30    48    1
    52    31    49    1
