@<TRIPOS>MOLECULE
*****
 61 66 0 0 0
SMALL
GASTEIGER

@<TRIPOS>ATOM
      1 C          10.9419   -0.7228   -0.3524 C.3     1  UNL1        0.0805
      2 O           9.6730   -1.0655   -0.8607 O.3     1  UNL1       -0.4786
      3 C           8.4892   -0.5796   -0.3181 C.ar    1  UNL1        0.2332
      4 C           7.3008   -0.9787   -0.8928 C.ar    1  UNL1        0.0899
      5 N           6.1153   -0.5262   -0.3925 N.ar    1  UNL1       -0.2435
      6 C           6.0788    0.3083    0.6585 C.ar    1  UNL1        0.1439
      7 C           4.8095    0.7945    1.1962 C.2     1  UNL1        0.2681
      8 O           4.8428    1.5676    2.1743 O.2     1  UNL1       -0.2681
      9 N           3.5849    0.4077    0.6343 N.am    1  UNL1       -0.2802
     10 C           2.2809    0.7873    1.0354 C.ar    1  UNL1        0.0343
     11 C           2.0450    1.6235    2.0776 C.ar    1  UNL1       -0.0370
     12 C           0.7680    2.0015    2.4785 C.ar    1  UNL1       -0.0172
     13 C          -0.3224    1.5078    1.7893 C.ar    1  UNL1        0.1344
     14 C          -0.1181    0.6732    0.7470 C.ar    1  UNL1        0.0285
     15 C           1.1772    0.3007    0.3543 C.ar    1  UNL1       -0.0312
     16 C          -1.2191    0.0629   -0.0940 C.3     1  UNL1        0.1216
     17 C          -0.9778    0.5758   -1.4641 C.3     1  UNL1       -0.0096
     18 C          -0.5789   -0.3259   -2.5470 C.3     1  UNL1        0.0037
     19 S          -1.1981   -2.0198   -2.3753 S.3     1  UNL1       -0.0910
     20 C          -1.0244   -2.3485   -0.5985 C.2     1  UNL1        0.1478
     21 N          -0.8588   -3.6886   -0.1520 N.pl3   1  UNL1       -0.3380
     22 N          -1.0633   -1.3398    0.1417 N.2     1  UNL1       -0.2472
     23 C          -2.5599    0.5219    0.4112 C.ar    1  UNL1        0.0303
     24 C          -3.6953    0.0371   -0.2676 C.ar    1  UNL1       -0.0267
     25 C          -4.9424    0.4213    0.1447 C.ar    1  UNL1        0.0674
     26 C          -6.1556   -0.0661   -0.5422 C.2     1  UNL1       -0.0216
     27 C          -6.1186   -0.8835   -1.5735 C.2     1  UNL1       -0.0534
     28 C          -7.4646   -1.2639   -2.1328 C.3     1  UNL1        0.0665
     29 O          -8.2827   -0.1808   -2.3170 O.3     1  UNL1       -0.3754
     30 C          -8.2980    0.7359   -1.2978 C.3     1  UNL1        0.0521
     31 C          -7.5099    0.3556   -0.0876 C.3     1  UNL1       -0.0024
     32 N          -5.0575    1.2577    1.1945 N.ar    1  UNL1       -0.2516
     33 C          -3.9886    1.7210    1.8424 C.ar    1  UNL1        0.0708
     34 C          -2.6796    1.3629    1.4668 C.ar    1  UNL1        0.1523
     35 O          -1.6095    1.8721    2.1733 O.3     1  UNL1       -0.4538
     36 C           7.2752    0.6913    1.2134 C.ar    1  UNL1        0.0619
     37 N           8.4666    0.2555    0.7345 N.ar    1  UNL1       -0.2178
     38 H          11.2335    0.3225   -0.6100 H       1  UNL1        0.0660
     39 H          10.9745   -0.7844    0.7604 H       1  UNL1        0.0660
     40 H          11.7039   -1.3826   -0.7848 H       1  UNL1        0.0660
     41 H           7.3120   -1.6505   -1.7400 H       1  UNL1        0.0884
     42 H           3.6918   -0.2649   -0.2086 H       1  UNL1        0.1552
     43 H           2.8506    2.0578    2.6746 H       1  UNL1        0.0637
     44 H           0.5691    2.6662    3.3062 H       1  UNL1        0.0655
     45 H           1.3626   -0.3618   -0.4695 H       1  UNL1        0.0641
     46 H          -0.2405    1.4412   -1.4395 H       1  UNL1        0.0303
     47 H          -1.9312    1.1156   -1.7762 H       1  UNL1        0.0303
     48 H          -0.9770    0.0569   -3.5334 H       1  UNL1        0.0381
     49 H           0.5166   -0.3888   -2.7041 H       1  UNL1        0.0381
     50 H          -0.0070   -4.2557   -0.3149 H       1  UNL1        0.1442
     51 H          -1.6430   -4.1220    0.3696 H       1  UNL1        0.1442
     52 H          -3.5215   -0.6320   -1.1029 H       1  UNL1        0.0644
     53 H          -5.2079   -1.2413   -1.9729 H       1  UNL1        0.0598
     54 H          -7.9344   -1.8987   -1.3303 H       1  UNL1        0.0604
     55 H          -7.3240   -1.8013   -3.0731 H       1  UNL1        0.0604
     56 H          -7.9154    1.7450   -1.6292 H       1  UNL1        0.0563
     57 H          -9.3658    0.9324   -0.9903 H       1  UNL1        0.0563
     58 H          -7.4360    1.2509    0.5650 H       1  UNL1        0.0336
     59 H          -7.9949   -0.4366    0.5246 H       1  UNL1        0.0336
     60 H          -4.0655    2.4034    2.7000 H       1  UNL1        0.0867
     61 H           7.2235    1.3752    2.0734 H       1  UNL1        0.0854
@<TRIPOS>BOND
     1     1     2    1
     2     2     3    1
     3     3     4   ar
     4     4     5   ar
     5     5     6   ar
     6     6     7    1
     7     7     8    2
     8     7     9   am
     9     9    10    1
    10    10    11   ar
    11    11    12   ar
    12    12    13   ar
    13    13    14   ar
    14    14    15   ar
    15    14    16    1
    16    16    17    1
    17    17    18    1
    18    18    19    1
    19    19    20    1
    20    20    21    1
    21    20    22    2
    22    16    23    1
    23    23    24   ar
    24    24    25   ar
    25    25    26    1
    26    26    27    2
    27    27    28    1
    28    28    29    1
    29    29    30    1
    30    30    31    1
    31    25    32   ar
    32    32    33   ar
    33    33    34   ar
    34    34    35    1
    35     6    36   ar
    36    36    37   ar
    37    37     3   ar
    38    15    10   ar
    39    22    16    1
    40    34    23   ar
    41    35    13    1
    42    31    26    1
    43     1    38    1
    44     1    39    1
    45     1    40    1
    46     4    41    1
    47     9    42    1
    48    11    43    1
    49    12    44    1
    50    15    45    1
    51    17    46    1
    52    17    47    1
    53    18    48    1
    54    18    49    1
    55    21    50    1
    56    21    51    1
    57    24    52    1
    58    27    53    1
    59    28    54    1
    60    28    55    1
    61    30    56    1
    62    30    57    1
    63    31    58    1
    64    31    59    1
    65    33    60    1
    66    36    61    1
