
     RDKit          3D

 61 66  0  0  0  0  0  0  0  0999 V2000
   10.9419   -0.7228   -0.3524 C   0  0  0  0  0  0  0  0  0  0  0  0
    9.6730   -1.0655   -0.8607 O   0  0  0  0  0  0  0  0  0  0  0  0
    8.4892   -0.5796   -0.3181 C   0  0  0  0  0  0  0  0  0  0  0  0
    7.3008   -0.9787   -0.8928 C   0  0  0  0  0  0  0  0  0  0  0  0
    6.1153   -0.5262   -0.3925 N   0  0  0  0  0  0  0  0  0  0  0  0
    6.0788    0.3083    0.6585 C   0  0  0  0  0  0  0  0  0  0  0  0
    4.8095    0.7945    1.1962 C   0  0  0  0  0  0  0  0  0  0  0  0
    4.8428    1.5676    2.1743 O   0  0  0  0  0  0  0  0  0  0  0  0
    3.5849    0.4077    0.6343 N   0  0  0  0  0  0  0  0  0  0  0  0
    2.2809    0.7873    1.0354 C   0  0  0  0  0  0  0  0  0  0  0  0
    2.0450    1.6235    2.0776 C   0  0  0  0  0  0  0  0  0  0  0  0
    0.7680    2.0015    2.4785 C   0  0  0  0  0  0  0  0  0  0  0  0
   -0.3224    1.5078    1.7893 C   0  0  0  0  0  0  0  0  0  0  0  0
   -0.1181    0.6732    0.7470 C   0  0  0  0  0  0  0  0  0  0  0  0
    1.1772    0.3007    0.3543 C   0  0  0  0  0  0  0  0  0  0  0  0
   -1.2191    0.0629   -0.0940 C   0  0  0  0  0  0  0  0  0  0  0  0
   -0.9778    0.5758   -1.4641 C   0  0  0  0  0  0  0  0  0  0  0  0
   -0.5789   -0.3259   -2.5470 C   0  0  0  0  0  0  0  0  0  0  0  0
   -1.1981   -2.0198   -2.3753 S   0  0  0  0  0  0  0  0  0  0  0  0
   -1.0244   -2.3485   -0.5985 C   0  0  0  0  0  0  0  0  0  0  0  0
   -0.8588   -3.6886   -0.1520 N   0  0  0  0  0  0  0  0  0  0  0  0
   -1.0633   -1.3398    0.1417 N   0  0  0  0  0  0  0  0  0  0  0  0
   -2.5599    0.5219    0.4112 C   0  0  0  0  0  0  0  0  0  0  0  0
   -3.6953    0.0371   -0.2676 C   0  0  0  0  0  0  0  0  0  0  0  0
   -4.9424    0.4213    0.1447 C   0  0  0  0  0  0  0  0  0  0  0  0
   -6.1556   -0.0661   -0.5422 C   0  0  0  0  0  0  0  0  0  0  0  0
   -6.1186   -0.8835   -1.5735 C   0  0  0  0  0  0  0  0  0  0  0  0
   -7.4646   -1.2639   -2.1328 C   0  0  0  0  0  0  0  0  0  0  0  0
   -8.2827   -0.1808   -2.3170 O   0  0  0  0  0  0  0  0  0  0  0  0
   -8.2980    0.7359   -1.2978 C   0  0  0  0  0  0  0  0  0  0  0  0
   -7.5099    0.3556   -0.0876 C   0  0  0  0  0  0  0  0  0  0  0  0
   -5.0575    1.2577    1.1945 N   0  0  0  0  0  0  0  0  0  0  0  0
   -3.9886    1.7210    1.8424 C   0  0  0  0  0  0  0  0  0  0  0  0
   -2.6796    1.3629    1.4668 C   0  0  0  0  0  0  0  0  0  0  0  0
   -1.6095    1.8721    2.1733 O   0  0  0  0  0  0  0  0  0  0  0  0
    7.2752    0.6913    1.2134 C   0  0  0  0  0  0  0  0  0  0  0  0
    8.4666    0.2555    0.7345 N   0  0  0  0  0  0  0  0  0  0  0  0
   11.2335    0.3225   -0.6100 H   0  0  0  0  0  0  0  0  0  0  0  0
   10.9745   -0.7844    0.7604 H   0  0  0  0  0  0  0  0  0  0  0  0
   11.7039   -1.3826   -0.7848 H   0  0  0  0  0  0  0  0  0  0  0  0
    7.3120   -1.6505   -1.7400 H   0  0  0  0  0  0  0  0  0  0  0  0
    3.6918   -0.2649   -0.2086 H   0  0  0  0  0  0  0  0  0  0  0  0
    2.8506    2.0578    2.6746 H   0  0  0  0  0  0  0  0  0  0  0  0
    0.5691    2.6662    3.3062 H   0  0  0  0  0  0  0  0  0  0  0  0
    1.3626   -0.3618   -0.4695 H   0  0  0  0  0  0  0  0  0  0  0  0
   -0.2405    1.4412   -1.4395 H   0  0  0  0  0  0  0  0  0  0  0  0
   -1.9312    1.1156   -1.7762 H   0  0  0  0  0  0  0  0  0  0  0  0
   -0.9770    0.0569   -3.5334 H   0  0  0  0  0  0  0  0  0  0  0  0
    0.5166   -0.3888   -2.7041 H   0  0  0  0  0  0  0  0  0  0  0  0
   -0.0070   -4.2557   -0.3149 H   0  0  0  0  0  0  0  0  0  0  0  0
   -1.6430   -4.1220    0.3696 H   0  0  0  0  0  0  0  0  0  0  0  0
   -3.5215   -0.6320   -1.1029 H   0  0  0  0  0  0  0  0  0  0  0  0
   -5.2079   -1.2413   -1.9729 H   0  0  0  0  0  0  0  0  0  0  0  0
   -7.9344   -1.8987   -1.3303 H   0  0  0  0  0  0  0  0  0  0  0  0
   -7.3240   -1.8013   -3.0731 H   0  0  0  0  0  0  0  0  0  0  0  0
   -7.9154    1.7450   -1.6292 H   0  0  0  0  0  0  0  0  0  0  0  0
   -9.3658    0.9324   -0.9903 H   0  0  0  0  0  0  0  0  0  0  0  0
   -7.4360    1.2509    0.5650 H   0  0  0  0  0  0  0  0  0  0  0  0
   -7.9949   -0.4366    0.5246 H   0  0  0  0  0  0  0  0  0  0  0  0
   -4.0655    2.4034    2.7000 H   0  0  0  0  0  0  0  0  0  0  0  0
    7.2235    1.3752    2.0734 H   0  0  0  0  0  0  0  0  0  0  0  0
  1  2  1  0
  2  3  1  0
  3  4  2  0
  4  5  1  0
  5  6  2  0
  6  7  1  0
  7  8  2  0
  7  9  1  0
  9 10  1  0
 10 11  2  0
 11 12  1  0
 12 13  2  0
 13 14  1  0
 14 15  2  0
 14 16  1  0
 16 17  1  0
 17 18  1  0
 18 19  1  0
 19 20  1  0
 20 21  1  0
 20 22  2  0
 16 23  1  0
 23 24  2  0
 24 25  1  0
 25 26  1  0
 26 27  2  0
 27 28  1  0
 28 29  1  0
 29 30  1  0
 30 31  1  0
 25 32  2  0
 32 33  1  0
 33 34  2  0
 34 35  1  0
  6 36  1  0
 36 37  2  0
 37  3  1  0
 15 10  1  0
 22 16  1  0
 34 23  1  0
 35 13  1  0
 31 26  1  0
  1 38  1  0
  1 39  1  0
  1 40  1  0
  4 41  1  0
  9 42  1  0
 11 43  1  0
 12 44  1  0
 15 45  1  0
 17 46  1  0
 17 47  1  0
 18 48  1  0
 18 49  1  0
 21 50  1  0
 21 51  1  0
 24 52  1  0
 27 53  1  0
 28 54  1  0
 28 55  1  0
 30 56  1  0
 30 57  1  0
 31 58  1  0
 31 59  1  0
 33 60  1  0
 36 61  1  0
M  END
$$$$
