@<TRIPOS>MOLECULE
*****
 47 48 0 0 0
SMALL
GASTEIGER

@<TRIPOS>ATOM
      1 C          -3.5055    3.8674   -0.5642 C.3     1  UNL1        0.0788
      2 O          -3.5710    2.5999    0.0589 O.3     1  UNL1       -0.4947
      3 C          -2.3815    1.9039    0.2141 C.ar    1  UNL1        0.1270
      4 C          -1.1845    2.4252   -0.2206 C.ar    1  UNL1        0.0225
      5 C          -0.1143    1.6019    0.0144 C.ar    1  UNL1        0.1311
      6 O           1.0530    2.1804   -0.4435 O.3     1  UNL1       -0.5059
      7 C          -0.1106    0.3682    0.6106 C.ar    1  UNL1        0.0635
      8 C          -1.3629   -0.0464    1.0022 C.ar    1  UNL1       -0.0405
      9 C          -2.5118    0.6821    0.8250 C.ar    1  UNL1       -0.0011
     10 C          -3.8259    0.1554    1.2806 C.3     1  UNL1       -0.0058
     11 C          -4.5736   -0.3169    0.0838 C.2     1  UNL1       -0.0809
     12 C          -5.0219   -1.5143   -0.1820 C.2     1  UNL1       -0.0793
     13 C          -4.8544   -2.6722    0.7101 C.3     1  UNL1       -0.0440
     14 C          -5.7413   -1.7494   -1.4410 C.3     1  UNL1       -0.0440
     15 C           1.0246   -0.4770    0.8458 C.2     1  UNL1        0.1896
     16 O           0.6973   -1.5760    1.4296 O.2     1  UNL1       -0.2872
     17 C           2.4193   -0.6443    0.7120 C.2     1  UNL1       -0.0137
     18 C           3.4488    0.0042    0.2377 C.2     1  UNL1       -0.0510
     19 C           4.8594   -0.3223    0.1789 C.ar    1  UNL1       -0.0247
     20 C           5.3949   -1.4933    0.6658 C.ar    1  UNL1       -0.0511
     21 C           6.7286   -1.8428    0.6300 C.ar    1  UNL1       -0.0196
     22 C           7.6012   -0.9452    0.0588 C.ar    1  UNL1        0.1169
     23 O           8.9642   -1.1576   -0.0482 O.3     1  UNL1       -0.5068
     24 C           7.1075    0.2400   -0.4415 C.ar    1  UNL1       -0.0196
     25 C           5.7666    0.5420   -0.3815 C.ar    1  UNL1       -0.0511
     26 H          -4.4934    4.3549   -0.3215 H       1  UNL1        0.0660
     27 H          -3.3532    3.8094   -1.6597 H       1  UNL1        0.0660
     28 H          -2.7469    4.5157   -0.0471 H       1  UNL1        0.0660
     29 H          -1.1631    3.3939   -0.6924 H       1  UNL1        0.0691
     30 H           1.3861    1.9549   -1.3939 H       1  UNL1        0.2922
     31 H          -1.5163   -1.0173    1.4951 H       1  UNL1        0.0630
     32 H          -4.4345    0.9532    1.7540 H       1  UNL1        0.0357
     33 H          -3.7075   -0.6461    2.0340 H       1  UNL1        0.0357
     34 H          -4.7097    0.5163   -0.5888 H       1  UNL1        0.0575
     35 H          -4.0162   -2.5642    1.4207 H       1  UNL1        0.0274
     36 H          -5.7669   -2.8857    1.2986 H       1  UNL1        0.0274
     37 H          -4.5885   -3.5507    0.0622 H       1  UNL1        0.0274
     38 H          -5.3812   -2.7019   -1.8702 H       1  UNL1        0.0274
     39 H          -6.8406   -1.7651   -1.3160 H       1  UNL1        0.0274
     40 H          -5.5425   -0.9567   -2.2135 H       1  UNL1        0.0274
     41 H           2.9274   -1.5523    1.0755 H       1  UNL1        0.0656
     42 H           3.2096    0.9562   -0.1887 H       1  UNL1        0.0625
     43 H           4.7847   -2.2552    1.1305 H       1  UNL1        0.0625
     44 H           7.1254   -2.7647    1.0172 H       1  UNL1        0.0654
     45 H           9.2983   -2.0658   -0.3164 H       1  UNL1        0.2921
     46 H           7.7800    0.9588   -0.8949 H       1  UNL1        0.0654
     47 H           5.4430    1.4995   -0.7973 H       1  UNL1        0.0625
@<TRIPOS>BOND
     1     1     2    1
     2     2     3    1
     3     3     4   ar
     4     4     5   ar
     5     5     6    1
     6     5     7   ar
     7     7     8   ar
     8     8     9   ar
     9     9    10    1
    10    10    11    1
    11    11    12    2
    12    12    13    1
    13    12    14    1
    14     7    15    1
    15    15    16    2
    16    15    17    1
    17    17    18    2
    18    18    19    1
    19    19    20   ar
    20    20    21   ar
    21    21    22   ar
    22    22    23    1
    23    22    24   ar
    24    24    25   ar
    25     9     3   ar
    26    25    19   ar
    27     1    26    1
    28     1    27    1
    29     1    28    1
    30     4    29    1
    31     6    30    1
    32     8    31    1
    33    10    32    1
    34    10    33    1
    35    11    34    1
    36    13    35    1
    37    13    36    1
    38    13    37    1
    39    14    38    1
    40    14    39    1
    41    14    40    1
    42    17    41    1
    43    18    42    1
    44    20    43    1
    45    21    44    1
    46    23    45    1
    47    24    46    1
    48    25    47    1
