
     RDKit          3D

 47 48  0  0  0  0  0  0  0  0999 V2000
   -3.5055    3.8674   -0.5642 C   0  0  0  0  0  0  0  0  0  0  0  0
   -3.5710    2.5999    0.0589 O   0  0  0  0  0  0  0  0  0  0  0  0
   -2.3815    1.9039    0.2141 C   0  0  0  0  0  0  0  0  0  0  0  0
   -1.1845    2.4252   -0.2206 C   0  0  0  0  0  0  0  0  0  0  0  0
   -0.1143    1.6019    0.0144 C   0  0  0  0  0  0  0  0  0  0  0  0
    1.0530    2.1804   -0.4435 O   0  0  0  0  0  0  0  0  0  0  0  0
   -0.1106    0.3682    0.6106 C   0  0  0  0  0  0  0  0  0  0  0  0
   -1.3629   -0.0464    1.0022 C   0  0  0  0  0  0  0  0  0  0  0  0
   -2.5118    0.6821    0.8250 C   0  0  0  0  0  0  0  0  0  0  0  0
   -3.8259    0.1554    1.2806 C   0  0  0  0  0  0  0  0  0  0  0  0
   -4.5736   -0.3169    0.0838 C   0  0  0  0  0  0  0  0  0  0  0  0
   -5.0219   -1.5143   -0.1820 C   0  0  0  0  0  0  0  0  0  0  0  0
   -4.8544   -2.6722    0.7101 C   0  0  0  0  0  0  0  0  0  0  0  0
   -5.7413   -1.7494   -1.4410 C   0  0  0  0  0  0  0  0  0  0  0  0
    1.0246   -0.4770    0.8458 C   0  0  0  0  0  0  0  0  0  0  0  0
    0.6973   -1.5760    1.4296 O   0  0  0  0  0  0  0  0  0  0  0  0
    2.4193   -0.6443    0.7120 C   0  0  0  0  0  0  0  0  0  0  0  0
    3.4488    0.0042    0.2377 C   0  0  0  0  0  0  0  0  0  0  0  0
    4.8594   -0.3223    0.1789 C   0  0  0  0  0  0  0  0  0  0  0  0
    5.3949   -1.4933    0.6658 C   0  0  0  0  0  0  0  0  0  0  0  0
    6.7286   -1.8428    0.6300 C   0  0  0  0  0  0  0  0  0  0  0  0
    7.6012   -0.9452    0.0588 C   0  0  0  0  0  0  0  0  0  0  0  0
    8.9642   -1.1576   -0.0482 O   0  0  0  0  0  0  0  0  0  0  0  0
    7.1075    0.2400   -0.4415 C   0  0  0  0  0  0  0  0  0  0  0  0
    5.7666    0.5420   -0.3815 C   0  0  0  0  0  0  0  0  0  0  0  0
   -4.4934    4.3549   -0.3215 H   0  0  0  0  0  0  0  0  0  0  0  0
   -3.3532    3.8094   -1.6597 H   0  0  0  0  0  0  0  0  0  0  0  0
   -2.7469    4.5157   -0.0471 H   0  0  0  0  0  0  0  0  0  0  0  0
   -1.1631    3.3939   -0.6924 H   0  0  0  0  0  0  0  0  0  0  0  0
    1.3861    1.9549   -1.3939 H   0  0  0  0  0  0  0  0  0  0  0  0
   -1.5163   -1.0173    1.4951 H   0  0  0  0  0  0  0  0  0  0  0  0
   -4.4345    0.9532    1.7540 H   0  0  0  0  0  0  0  0  0  0  0  0
   -3.7075   -0.6461    2.0340 H   0  0  0  0  0  0  0  0  0  0  0  0
   -4.7097    0.5163   -0.5888 H   0  0  0  0  0  0  0  0  0  0  0  0
   -4.0162   -2.5642    1.4207 H   0  0  0  0  0  0  0  0  0  0  0  0
   -5.7669   -2.8857    1.2986 H   0  0  0  0  0  0  0  0  0  0  0  0
   -4.5885   -3.5507    0.0622 H   0  0  0  0  0  0  0  0  0  0  0  0
   -5.3812   -2.7019   -1.8702 H   0  0  0  0  0  0  0  0  0  0  0  0
   -6.8406   -1.7651   -1.3160 H   0  0  0  0  0  0  0  0  0  0  0  0
   -5.5425   -0.9567   -2.2135 H   0  0  0  0  0  0  0  0  0  0  0  0
    2.9274   -1.5523    1.0755 H   0  0  0  0  0  0  0  0  0  0  0  0
    3.2096    0.9562   -0.1887 H   0  0  0  0  0  0  0  0  0  0  0  0
    4.7847   -2.2552    1.1305 H   0  0  0  0  0  0  0  0  0  0  0  0
    7.1254   -2.7647    1.0172 H   0  0  0  0  0  0  0  0  0  0  0  0
    9.2983   -2.0658   -0.3164 H   0  0  0  0  0  0  0  0  0  0  0  0
    7.7800    0.9588   -0.8949 H   0  0  0  0  0  0  0  0  0  0  0  0
    5.4430    1.4995   -0.7973 H   0  0  0  0  0  0  0  0  0  0  0  0
  1  2  1  0
  2  3  1  0
  3  4  2  0
  4  5  1  0
  5  6  1  0
  5  7  2  0
  7  8  1  0
  8  9  2  0
  9 10  1  0
 10 11  1  0
 11 12  2  3
 12 13  1  0
 12 14  1  0
  7 15  1  0
 15 16  2  0
 15 17  1  0
 17 18  2  0
 18 19  1  0
 19 20  2  0
 20 21  1  0
 21 22  2  0
 22 23  1  0
 22 24  1  0
 24 25  2  0
  9  3  1  0
 25 19  1  0
  1 26  1  0
  1 27  1  0
  1 28  1  0
  4 29  1  0
  6 30  1  0
  8 31  1  0
 10 32  1  0
 10 33  1  0
 11 34  1  0
 13 35  1  0
 13 36  1  0
 13 37  1  0
 14 38  1  0
 14 39  1  0
 14 40  1  0
 17 41  1  0
 18 42  1  0
 20 43  1  0
 21 44  1  0
 23 45  1  0
 24 46  1  0
 25 47  1  0
M  END
$$$$
