@<TRIPOS>MOLECULE
*****
 26 26 0 0 0
SMALL
GASTEIGER

@<TRIPOS>ATOM
      1 N          -3.4093    0.0262   -1.0064 N.4     1  UNL1        1.0000
      2 C          -3.1761    0.8493    0.1573 C.3     1  UNL1        0.0000
      3 C          -1.6980    0.8128    0.5382 C.3     1  UNL1        0.0000
      4 C          -1.3564   -0.6143    0.8322 C.3     1  UNL1        0.0000
      5 C           0.0953   -0.7947    1.2273 C.3     1  UNL1        0.0000
      6 O           0.9383   -0.3739    0.2144 O.3     1  UNL1        0.0000
      7 B           2.3521   -0.5314    0.5582 B       1  UNL1        0.0000
      8 O           3.1873    0.6641    0.7180 O.3     1  UNL1        0.0000
      9 C           3.5601    0.8596   -0.6144 C.3     1  UNL1        0.0000
     10 C           3.9353   -0.5266   -1.0316 C.3     1  UNL1        0.0000
     11 O           3.2175   -1.4127   -0.2298 O.3     1  UNL1        0.0000
     12 H          -2.5695    0.0034   -1.6246 H       1  UNL1        0.0000
     13 H          -4.2697    0.3172   -1.5278 H       1  UNL1        0.0000
     14 H          -3.6152   -0.9543   -0.6581 H       1  UNL1        0.0000
     15 H          -3.4700    1.8831   -0.0116 H       1  UNL1        0.0000
     16 H          -3.7410    0.4310    1.0215 H       1  UNL1        0.0000
     17 H          -1.1015    1.1887   -0.2944 H       1  UNL1        0.0000
     18 H          -1.6055    1.4476    1.4468 H       1  UNL1        0.0000
     19 H          -1.6075   -1.2358   -0.0452 H       1  UNL1        0.0000
     20 H          -1.9478   -1.0053    1.6865 H       1  UNL1        0.0000
     21 H           0.2762   -0.1619    2.1226 H       1  UNL1        0.0000
     22 H           0.3037   -1.8673    1.3895 H       1  UNL1        0.0000
     23 H           4.3639    1.6049   -0.7321 H       1  UNL1        0.0000
     24 H           2.6305    1.1470   -1.1693 H       1  UNL1        0.0000
     25 H           5.0397   -0.6463   -0.8888 H       1  UNL1        0.0000
     26 H           3.6678   -0.7037   -2.0783 H       1  UNL1        0.0000
@<TRIPOS>UNITY_ATOM_ATTR
1 1
charge 1
@<TRIPOS>BOND
     1     1     2    1
     2     2     3    1
     3     3     4    1
     4     4     5    1
     5     5     6    1
     6     6     7    1
     7     7     8    1
     8     8     9    1
     9     9    10    1
    10    10    11    1
    11    11     7    1
    12     1    12    1
    13     1    13    1
    14     1    14    1
    15     2    15    1
    16     2    16    1
    17     3    17    1
    18     3    18    1
    19     4    19    1
    20     4    20    1
    21     5    21    1
    22     5    22    1
    23     9    23    1
    24     9    24    1
    25    10    25    1
    26    10    26    1
