
     RDKit          3D

 26 26  0  0  0  0  0  0  0  0999 V2000
   -3.4093    0.0262   -1.0064 N   0  0  0  0  0  4  0  0  0  0  0  0
   -3.1761    0.8493    0.1573 C   0  0  0  0  0  0  0  0  0  0  0  0
   -1.6980    0.8128    0.5382 C   0  0  0  0  0  0  0  0  0  0  0  0
   -1.3564   -0.6143    0.8322 C   0  0  0  0  0  0  0  0  0  0  0  0
    0.0953   -0.7947    1.2273 C   0  0  0  0  0  0  0  0  0  0  0  0
    0.9383   -0.3739    0.2144 O   0  0  0  0  0  0  0  0  0  0  0  0
    2.3521   -0.5314    0.5582 B   0  0  0  0  0  0  0  0  0  0  0  0
    3.1873    0.6641    0.7180 O   0  0  0  0  0  0  0  0  0  0  0  0
    3.5601    0.8596   -0.6144 C   0  0  0  0  0  0  0  0  0  0  0  0
    3.9353   -0.5266   -1.0316 C   0  0  0  0  0  0  0  0  0  0  0  0
    3.2175   -1.4127   -0.2298 O   0  0  0  0  0  0  0  0  0  0  0  0
   -2.5695    0.0034   -1.6246 H   0  0  0  0  0  0  0  0  0  0  0  0
   -4.2697    0.3172   -1.5278 H   0  0  0  0  0  0  0  0  0  0  0  0
   -3.6152   -0.9543   -0.6581 H   0  0  0  0  0  0  0  0  0  0  0  0
   -3.4700    1.8831   -0.0116 H   0  0  0  0  0  0  0  0  0  0  0  0
   -3.7410    0.4310    1.0215 H   0  0  0  0  0  0  0  0  0  0  0  0
   -1.1015    1.1887   -0.2944 H   0  0  0  0  0  0  0  0  0  0  0  0
   -1.6055    1.4476    1.4468 H   0  0  0  0  0  0  0  0  0  0  0  0
   -1.6075   -1.2358   -0.0452 H   0  0  0  0  0  0  0  0  0  0  0  0
   -1.9478   -1.0053    1.6865 H   0  0  0  0  0  0  0  0  0  0  0  0
    0.2762   -0.1619    2.1226 H   0  0  0  0  0  0  0  0  0  0  0  0
    0.3037   -1.8673    1.3895 H   0  0  0  0  0  0  0  0  0  0  0  0
    4.3639    1.6049   -0.7321 H   0  0  0  0  0  0  0  0  0  0  0  0
    2.6305    1.1470   -1.1693 H   0  0  0  0  0  0  0  0  0  0  0  0
    5.0397   -0.6463   -0.8888 H   0  0  0  0  0  0  0  0  0  0  0  0
    3.6678   -0.7037   -2.0783 H   0  0  0  0  0  0  0  0  0  0  0  0
  1  2  1  0
  2  3  1  0
  3  4  1  0
  4  5  1  0
  5  6  1  0
  6  7  1  0
  7  8  1  0
  8  9  1  0
  9 10  1  0
 10 11  1  0
 11  7  1  0
  1 12  1  0
  1 13  1  0
  1 14  1  0
  2 15  1  0
  2 16  1  0
  3 17  1  0
  3 18  1  0
  4 19  1  0
  4 20  1  0
  5 21  1  0
  5 22  1  0
  9 23  1  0
  9 24  1  0
 10 25  1  0
 10 26  1  0
M  CHG  1   1   1
M  END
$$$$
