@<TRIPOS>MOLECULE
*****
 94 101 0 0 0
SMALL
GASTEIGER

@<TRIPOS>ATOM
      1 C           5.9092   -4.3023    0.0152 C.3     1  UNL1       -0.0572
      2 C           4.3970   -4.2780    0.0969 C.3     1  UNL1       -0.0025
      3 C           3.8969   -4.9644    1.3567 C.3     1  UNL1       -0.0572
      4 C           3.9236   -2.8740    0.1400 C.ar    1  UNL1        0.0679
      5 C           3.0644   -2.3087   -0.7854 C.ar    1  UNL1        0.0018
      6 C           2.8325   -0.9709   -0.4414 C.ar    1  UNL1        0.1299
      7 N           2.0007   -0.1191   -1.2003 N.am    1  UNL1       -0.2538
      8 C           0.6005   -0.0653   -1.0001 C.2     1  UNL1        0.3092
      9 O           0.1334   -0.8210   -0.1059 O.2     1  UNL1       -0.2521
     10 N          -0.3164    0.7406   -1.6934 N.am    1  UNL1       -0.2686
     11 C          -1.7188    0.7319   -1.4242 C.ar    1  UNL1        0.0427
     12 C          -2.2799    1.5692   -0.4730 C.ar    1  UNL1       -0.0363
     13 C          -3.6290    1.5680   -0.2040 C.ar    1  UNL1       -0.0169
     14 C          -4.5014    0.7221   -0.8777 C.ar    1  UNL1        0.1381
     15 O          -5.8538    0.7171   -0.6128 O.3     1  UNL1       -0.4373
     16 C          -6.8400    1.1144   -1.5070 C.ar    1  UNL1        0.2249
     17 C          -6.5566    1.6111   -2.7610 C.ar    1  UNL1        0.0186
     18 C          -7.5618    1.9943   -3.6052 C.ar    1  UNL1        0.0362
     19 N          -8.8425    1.9011   -3.2453 N.ar    1  UNL1       -0.2225
     20 C          -9.1385    1.4027   -1.9862 C.ar    1  UNL1        0.2226
     21 N         -10.5110    1.3329   -1.7018 N.pl3   1  UNL1       -0.2835
     22 C         -11.0303    0.9194   -0.4549 C.ar    1  UNL1        0.0343
     23 C         -12.4035    0.6290   -0.3443 C.ar    1  UNL1       -0.0384
     24 C         -12.9311    0.2413    0.8538 C.ar    1  UNL1       -0.0345
     25 C         -12.1692    0.1143    1.9981 C.ar    1  UNL1        0.0658
     26 N         -12.3963   -0.2320    3.2594 N.ar    1  UNL1       -0.2770
     27 N         -11.2634   -0.1824    3.9576 N.ar    1  UNL1       -0.1812
     28 C         -10.2638    0.2012    3.1589 C.ar    1  UNL1        0.0569
     29 C         -10.8313    0.3919    1.9119 C.ar    1  UNL1        0.0212
     30 C         -10.2960    0.7937    0.6641 C.ar    1  UNL1       -0.0298
     31 N          -8.1480    1.0363   -1.1830 N.ar    1  UNL1       -0.1789
     32 C          -3.9567   -0.1152   -1.8232 C.ar    1  UNL1        0.0262
     33 C          -4.7656   -0.9969   -2.5151 C.ar    1  UNL1       -0.0505
     34 C          -4.2420   -1.8611   -3.4619 C.ar    1  UNL1       -0.0611
     35 C          -2.8982   -1.8212   -3.6959 C.ar    1  UNL1       -0.0611
     36 C          -2.0378   -0.9723   -3.0435 C.ar    1  UNL1       -0.0521
     37 C          -2.5791   -0.1078   -2.0921 C.ar    1  UNL1        0.0069
     38 N           3.5400   -0.7622    0.6569 N.ar    1  UNL1       -0.2180
     39 C           3.6340    0.4689    1.3720 C.ar    1  UNL1        0.0709
     40 C           2.5898    1.2776    1.6998 C.ar    1  UNL1       -0.0360
     41 C           2.8095    2.4468    2.4014 C.ar    1  UNL1       -0.0563
     42 C           4.0542    2.8446    2.7939 C.ar    1  UNL1       -0.0198
     43 C           5.1656    2.0336    2.4732 C.ar    1  UNL1        0.1226
     44 O           6.3919    2.4495    2.8792 O.3     1  UNL1       -0.4906
     45 C           7.6649    1.9981    2.7684 C.3     1  UNL1        0.1022
     46 C           8.1978    1.9407    1.3695 C.3     1  UNL1        0.0333
     47 N           9.5629    1.4306    1.3518 N.3     1  UNL1       -0.2948
     48 C           9.6528    0.0499    1.7110 C.3     1  UNL1        0.0225
     49 C          10.0752   -0.7842    0.4979 C.3     1  UNL1        0.0604
     50 O           9.2699   -0.4670   -0.5925 O.3     1  UNL1       -0.3772
     51 C           9.5000    0.8440   -0.9690 C.3     1  UNL1        0.0604
     52 C          10.1960    1.6569    0.0903 C.3     1  UNL1        0.0225
     53 C           4.9078    0.8808    1.7764 C.ar    1  UNL1        0.0056
     54 N           4.1886   -1.9011    0.9997 N.ar    1  UNL1       -0.1694
     55 H           6.2951   -5.2507    0.4399 H       1  UNL1        0.0236
     56 H           6.3669   -3.3954    0.4538 H       1  UNL1        0.0236
     57 H           6.1936   -4.3140   -1.0743 H       1  UNL1        0.0236
     58 H           3.9550   -4.7712   -0.7900 H       1  UNL1        0.0359
     59 H           4.2929   -5.9926    1.4511 H       1  UNL1        0.0236
     60 H           2.7781   -5.0491    1.2332 H       1  UNL1        0.0236
     61 H           4.0595   -4.3502    2.2507 H       1  UNL1        0.0236
     62 H           2.6294   -2.8112   -1.6484 H       1  UNL1        0.0671
     63 H           2.3704    0.5242   -1.9568 H       1  UNL1        0.1578
     64 H           0.0632    1.3735   -2.4415 H       1  UNL1        0.1564
     65 H          -1.5863    2.2225    0.0422 H       1  UNL1        0.0637
     66 H          -4.0617    2.2171    0.5347 H       1  UNL1        0.0655
     67 H          -5.5407    1.7152   -3.1159 H       1  UNL1        0.0686
     68 H          -7.3277    2.3900   -4.6060 H       1  UNL1        0.0832
     69 H         -11.2328    1.6027   -2.4537 H       1  UNL1        0.1550
     70 H         -13.0111    0.7219   -1.2216 H       1  UNL1        0.0637
     71 H         -13.9955    0.0167    0.9359 H       1  UNL1        0.0639
     72 H         -13.3471   -0.5002    3.6245 H       1  UNL1        0.1889
     73 H          -9.2138    0.3536    3.3634 H       1  UNL1        0.0854
     74 H          -9.2343    1.0115    0.6667 H       1  UNL1        0.0643
     75 H          -5.8151   -1.0174   -2.2906 H       1  UNL1        0.0625
     76 H          -4.9411   -2.5282   -3.9684 H       1  UNL1        0.0618
     77 H          -2.4820   -2.4892   -4.4333 H       1  UNL1        0.0618
     78 H          -0.9828   -0.9527   -3.2392 H       1  UNL1        0.0624
     79 H           1.5826    1.0109    1.4231 H       1  UNL1        0.0639
     80 H           1.9800    3.0818    2.6572 H       1  UNL1        0.0619
     81 H           4.2366    3.7577    3.3419 H       1  UNL1        0.0654
     82 H           7.8501    1.0045    3.2757 H       1  UNL1        0.0709
     83 H           8.3235    2.6925    3.3957 H       1  UNL1        0.0709
     84 H           7.5516    1.3263    0.7405 H       1  UNL1        0.0460
     85 H           8.2605    2.9994    1.0202 H       1  UNL1        0.0460
     86 H           8.6485   -0.3541    1.9862 H       1  UNL1        0.0449
     87 H          10.3950   -0.1349    2.5014 H       1  UNL1        0.0449
     88 H          11.1533   -0.6115    0.3057 H       1  UNL1        0.0572
     89 H           9.8840   -1.8541    0.8079 H       1  UNL1        0.0572
     90 H           8.5311    1.3534   -1.2309 H       1  UNL1        0.0572
     91 H          10.1358    0.7791   -1.9020 H       1  UNL1        0.0572
     92 H          10.0272    2.7355   -0.1689 H       1  UNL1        0.0449
     93 H          11.2861    1.4635    0.1067 H       1  UNL1        0.0449
     94 H           5.7251    0.2291    1.5294 H       1  UNL1        0.0675
@<TRIPOS>BOND
     1     1     2    1
     2     2     3    1
     3     2     4    1
     4     4     5   ar
     5     5     6   ar
     6     6     7    1
     7     7     8   am
     8     8     9    2
     9     8    10   am
    10    10    11    1
    11    11    12   ar
    12    12    13   ar
    13    13    14   ar
    14    14    15    1
    15    15    16    1
    16    16    17   ar
    17    17    18   ar
    18    18    19   ar
    19    19    20   ar
    20    20    21    1
    21    21    22    1
    22    22    23   ar
    23    23    24   ar
    24    24    25   ar
    25    25    26   ar
    26    26    27   ar
    27    27    28   ar
    28    28    29   ar
    29    29    30   ar
    30    20    31   ar
    31    14    32   ar
    32    32    33   ar
    33    33    34   ar
    34    34    35   ar
    35    35    36   ar
    36    36    37   ar
    37     6    38   ar
    38    38    39    1
    39    39    40   ar
    40    40    41   ar
    41    41    42   ar
    42    42    43   ar
    43    43    44    1
    44    44    45    1
    45    45    46    1
    46    46    47    1
    47    47    48    1
    48    48    49    1
    49    49    50    1
    50    50    51    1
    51    51    52    1
    52    43    53   ar
    53    38    54   ar
    54    54     4   ar
    55    37    11   ar
    56    53    39   ar
    57    31    16   ar
    58    37    32   ar
    59    52    47    1
    60    30    22   ar
    61    29    25   ar
    62     1    55    1
    63     1    56    1
    64     1    57    1
    65     2    58    1
    66     3    59    1
    67     3    60    1
    68     3    61    1
    69     5    62    1
    70     7    63    1
    71    10    64    1
    72    12    65    1
    73    13    66    1
    74    17    67    1
    75    18    68    1
    76    21    69    1
    77    23    70    1
    78    24    71    1
    79    26    72    1
    80    28    73    1
    81    30    74    1
    82    33    75    1
    83    34    76    1
    84    35    77    1
    85    36    78    1
    86    40    79    1
    87    41    80    1
    88    42    81    1
    89    45    82    1
    90    45    83    1
    91    46    84    1
    92    46    85    1
    93    48    86    1
    94    48    87    1
    95    49    88    1
    96    49    89    1
    97    51    90    1
    98    51    91    1
    99    52    92    1
   100    52    93    1
   101    53    94    1
