
     RDKit          3D

 94101  0  0  0  0  0  0  0  0999 V2000
    5.9092   -4.3023    0.0152 C   0  0  0  0  0  0  0  0  0  0  0  0
    4.3970   -4.2780    0.0969 C   0  0  0  0  0  0  0  0  0  0  0  0
    3.8969   -4.9644    1.3567 C   0  0  0  0  0  0  0  0  0  0  0  0
    3.9236   -2.8740    0.1400 C   0  0  0  0  0  0  0  0  0  0  0  0
    3.0644   -2.3087   -0.7854 C   0  0  0  0  0  0  0  0  0  0  0  0
    2.8325   -0.9709   -0.4414 C   0  0  0  0  0  0  0  0  0  0  0  0
    2.0007   -0.1191   -1.2003 N   0  0  0  0  0  0  0  0  0  0  0  0
    0.6005   -0.0653   -1.0001 C   0  0  0  0  0  0  0  0  0  0  0  0
    0.1334   -0.8210   -0.1059 O   0  0  0  0  0  0  0  0  0  0  0  0
   -0.3164    0.7406   -1.6934 N   0  0  0  0  0  0  0  0  0  0  0  0
   -1.7188    0.7319   -1.4242 C   0  0  0  0  0  0  0  0  0  0  0  0
   -2.2799    1.5692   -0.4730 C   0  0  0  0  0  0  0  0  0  0  0  0
   -3.6290    1.5680   -0.2040 C   0  0  0  0  0  0  0  0  0  0  0  0
   -4.5014    0.7221   -0.8777 C   0  0  0  0  0  0  0  0  0  0  0  0
   -5.8538    0.7171   -0.6128 O   0  0  0  0  0  0  0  0  0  0  0  0
   -6.8400    1.1144   -1.5070 C   0  0  0  0  0  0  0  0  0  0  0  0
   -6.5566    1.6111   -2.7610 C   0  0  0  0  0  0  0  0  0  0  0  0
   -7.5618    1.9943   -3.6052 C   0  0  0  0  0  0  0  0  0  0  0  0
   -8.8425    1.9011   -3.2453 N   0  0  0  0  0  0  0  0  0  0  0  0
   -9.1385    1.4027   -1.9862 C   0  0  0  0  0  0  0  0  0  0  0  0
  -10.5110    1.3329   -1.7018 N   0  0  0  0  0  0  0  0  0  0  0  0
  -11.0303    0.9194   -0.4549 C   0  0  0  0  0  0  0  0  0  0  0  0
  -12.4035    0.6290   -0.3443 C   0  0  0  0  0  0  0  0  0  0  0  0
  -12.9311    0.2413    0.8538 C   0  0  0  0  0  0  0  0  0  0  0  0
  -12.1692    0.1143    1.9981 C   0  0  0  0  0  0  0  0  0  0  0  0
  -12.3963   -0.2320    3.2594 N   0  0  0  0  0  0  0  0  0  0  0  0
  -11.2634   -0.1824    3.9576 N   0  0  0  0  0  0  0  0  0  0  0  0
  -10.2638    0.2012    3.1589 C   0  0  0  0  0  0  0  0  0  0  0  0
  -10.8313    0.3919    1.9119 C   0  0  0  0  0  0  0  0  0  0  0  0
  -10.2960    0.7937    0.6641 C   0  0  0  0  0  0  0  0  0  0  0  0
   -8.1480    1.0363   -1.1830 N   0  0  0  0  0  0  0  0  0  0  0  0
   -3.9567   -0.1152   -1.8232 C   0  0  0  0  0  0  0  0  0  0  0  0
   -4.7656   -0.9969   -2.5151 C   0  0  0  0  0  0  0  0  0  0  0  0
   -4.2420   -1.8611   -3.4619 C   0  0  0  0  0  0  0  0  0  0  0  0
   -2.8982   -1.8212   -3.6959 C   0  0  0  0  0  0  0  0  0  0  0  0
   -2.0378   -0.9723   -3.0435 C   0  0  0  0  0  0  0  0  0  0  0  0
   -2.5791   -0.1078   -2.0921 C   0  0  0  0  0  0  0  0  0  0  0  0
    3.5400   -0.7622    0.6569 N   0  0  0  0  0  0  0  0  0  0  0  0
    3.6340    0.4689    1.3720 C   0  0  0  0  0  0  0  0  0  0  0  0
    2.5898    1.2776    1.6998 C   0  0  0  0  0  0  0  0  0  0  0  0
    2.8095    2.4468    2.4014 C   0  0  0  0  0  0  0  0  0  0  0  0
    4.0542    2.8446    2.7939 C   0  0  0  0  0  0  0  0  0  0  0  0
    5.1656    2.0336    2.4732 C   0  0  0  0  0  0  0  0  0  0  0  0
    6.3919    2.4495    2.8792 O   0  0  0  0  0  0  0  0  0  0  0  0
    7.6649    1.9981    2.7684 C   0  0  0  0  0  0  0  0  0  0  0  0
    8.1978    1.9407    1.3695 C   0  0  0  0  0  0  0  0  0  0  0  0
    9.5629    1.4306    1.3518 N   0  0  0  0  0  0  0  0  0  0  0  0
    9.6528    0.0499    1.7110 C   0  0  0  0  0  0  0  0  0  0  0  0
   10.0752   -0.7842    0.4979 C   0  0  0  0  0  0  0  0  0  0  0  0
    9.2699   -0.4670   -0.5925 O   0  0  0  0  0  0  0  0  0  0  0  0
    9.5000    0.8440   -0.9690 C   0  0  0  0  0  0  0  0  0  0  0  0
   10.1960    1.6569    0.0903 C   0  0  0  0  0  0  0  0  0  0  0  0
    4.9078    0.8808    1.7764 C   0  0  0  0  0  0  0  0  0  0  0  0
    4.1886   -1.9011    0.9997 N   0  0  0  0  0  0  0  0  0  0  0  0
    6.2951   -5.2507    0.4399 H   0  0  0  0  0  0  0  0  0  0  0  0
    6.3669   -3.3954    0.4538 H   0  0  0  0  0  0  0  0  0  0  0  0
    6.1936   -4.3140   -1.0743 H   0  0  0  0  0  0  0  0  0  0  0  0
    3.9550   -4.7712   -0.7900 H   0  0  0  0  0  0  0  0  0  0  0  0
    4.2929   -5.9926    1.4511 H   0  0  0  0  0  0  0  0  0  0  0  0
    2.7781   -5.0491    1.2332 H   0  0  0  0  0  0  0  0  0  0  0  0
    4.0595   -4.3502    2.2507 H   0  0  0  0  0  0  0  0  0  0  0  0
    2.6294   -2.8112   -1.6484 H   0  0  0  0  0  0  0  0  0  0  0  0
    2.3704    0.5242   -1.9568 H   0  0  0  0  0  0  0  0  0  0  0  0
    0.0632    1.3735   -2.4415 H   0  0  0  0  0  0  0  0  0  0  0  0
   -1.5863    2.2225    0.0422 H   0  0  0  0  0  0  0  0  0  0  0  0
   -4.0617    2.2171    0.5347 H   0  0  0  0  0  0  0  0  0  0  0  0
   -5.5407    1.7152   -3.1159 H   0  0  0  0  0  0  0  0  0  0  0  0
   -7.3277    2.3900   -4.6060 H   0  0  0  0  0  0  0  0  0  0  0  0
  -11.2328    1.6027   -2.4537 H   0  0  0  0  0  0  0  0  0  0  0  0
  -13.0111    0.7219   -1.2216 H   0  0  0  0  0  0  0  0  0  0  0  0
  -13.9955    0.0167    0.9359 H   0  0  0  0  0  0  0  0  0  0  0  0
  -13.3471   -0.5002    3.6245 H   0  0  0  0  0  0  0  0  0  0  0  0
   -9.2138    0.3536    3.3634 H   0  0  0  0  0  0  0  0  0  0  0  0
   -9.2343    1.0115    0.6667 H   0  0  0  0  0  0  0  0  0  0  0  0
   -5.8151   -1.0174   -2.2906 H   0  0  0  0  0  0  0  0  0  0  0  0
   -4.9411   -2.5282   -3.9684 H   0  0  0  0  0  0  0  0  0  0  0  0
   -2.4820   -2.4892   -4.4333 H   0  0  0  0  0  0  0  0  0  0  0  0
   -0.9828   -0.9527   -3.2392 H   0  0  0  0  0  0  0  0  0  0  0  0
    1.5826    1.0109    1.4231 H   0  0  0  0  0  0  0  0  0  0  0  0
    1.9800    3.0818    2.6572 H   0  0  0  0  0  0  0  0  0  0  0  0
    4.2366    3.7577    3.3419 H   0  0  0  0  0  0  0  0  0  0  0  0
    7.8501    1.0045    3.2757 H   0  0  0  0  0  0  0  0  0  0  0  0
    8.3235    2.6925    3.3957 H   0  0  0  0  0  0  0  0  0  0  0  0
    7.5516    1.3263    0.7405 H   0  0  0  0  0  0  0  0  0  0  0  0
    8.2605    2.9994    1.0202 H   0  0  0  0  0  0  0  0  0  0  0  0
    8.6485   -0.3541    1.9862 H   0  0  0  0  0  0  0  0  0  0  0  0
   10.3950   -0.1349    2.5014 H   0  0  0  0  0  0  0  0  0  0  0  0
   11.1533   -0.6115    0.3057 H   0  0  0  0  0  0  0  0  0  0  0  0
    9.8840   -1.8541    0.8079 H   0  0  0  0  0  0  0  0  0  0  0  0
    8.5311    1.3534   -1.2309 H   0  0  0  0  0  0  0  0  0  0  0  0
   10.1358    0.7791   -1.9020 H   0  0  0  0  0  0  0  0  0  0  0  0
   10.0272    2.7355   -0.1689 H   0  0  0  0  0  0  0  0  0  0  0  0
   11.2861    1.4635    0.1067 H   0  0  0  0  0  0  0  0  0  0  0  0
    5.7251    0.2291    1.5294 H   0  0  0  0  0  0  0  0  0  0  0  0
  1  2  1  0
  2  3  1  0
  2  4  1  0
  4  5  1  0
  5  6  2  0
  6  7  1  0
  7  8  1  0
  8  9  2  0
  8 10  1  0
 10 11  1  0
 11 12  2  0
 12 13  1  0
 13 14  2  0
 14 15  1  0
 15 16  1  0
 16 17  2  0
 17 18  1  0
 18 19  2  0
 19 20  1  0
 20 21  1  0
 21 22  1  0
 22 23  2  0
 23 24  1  0
 24 25  2  0
 25 26  1  0
 26 27  1  0
 27 28  2  0
 28 29  1  0
 29 30  2  0
 20 31  2  0
 14 32  1  0
 32 33  2  0
 33 34  1  0
 34 35  2  0
 35 36  1  0
 36 37  2  0
  6 38  1  0
 38 39  1  0
 39 40  2  0
 40 41  1  0
 41 42  2  0
 42 43  1  0
 43 44  1  0
 44 45  1  0
 45 46  1  0
 46 47  1  0
 47 48  1  0
 48 49  1  0
 49 50  1  0
 50 51  1  0
 51 52  1  0
 43 53  2  0
 38 54  1  0
 54  4  2  0
 37 11  1  0
 53 39  1  0
 31 16  1  0
 37 32  1  0
 52 47  1  0
 30 22  1  0
 29 25  1  0
  1 55  1  0
  1 56  1  0
  1 57  1  0
  2 58  1  0
  3 59  1  0
  3 60  1  0
  3 61  1  0
  5 62  1  0
  7 63  1  0
 10 64  1  0
 12 65  1  0
 13 66  1  0
 17 67  1  0
 18 68  1  0
 21 69  1  0
 23 70  1  0
 24 71  1  0
 26 72  1  0
 28 73  1  0
 30 74  1  0
 33 75  1  0
 34 76  1  0
 35 77  1  0
 36 78  1  0
 40 79  1  0
 41 80  1  0
 42 81  1  0
 45 82  1  0
 45 83  1  0
 46 84  1  0
 46 85  1  0
 48 86  1  0
 48 87  1  0
 49 88  1  0
 49 89  1  0
 51 90  1  0
 51 91  1  0
 52 92  1  0
 52 93  1  0
 53 94  1  0
M  END
$$$$
