
     RDKit          3D

 59 63  0  0  0  0  0  0  0  0999 V2000
   -8.0580    0.6189    2.2334 O   0  0  0  0  0  0  0  0  0  0  0  0
   -8.4728    0.6217    1.0466 C   0  0  0  0  0  0  0  0  0  0  0  0
   -9.8442    0.5548    0.8581 O   0  0  0  0  0  0  0  0  0  0  0  0
   -7.5177    0.6943   -0.0944 C   0  0  0  0  0  0  0  0  0  0  0  0
   -6.0751    0.7440    0.4302 C   0  0  0  0  0  0  0  0  0  0  0  0
   -5.8109   -0.4802    1.2165 C   0  0  0  0  0  0  0  0  0  0  0  0
   -4.7456   -1.3852    0.6810 C   0  0  0  0  0  0  0  0  0  0  0  0
   -3.6851   -0.6158   -0.0819 C   0  0  0  0  0  0  0  0  0  0  0  0
   -2.7685   -1.6475   -0.6985 C   0  0  0  0  0  0  0  0  0  0  0  0
   -1.6762   -0.9910   -1.5585 C   0  0  0  0  0  0  0  0  0  0  0  0
   -0.9500   -0.0963   -0.7031 N   0  0  0  0  0  0  0  0  0  0  0  0
    0.4616   -0.1010   -0.6929 C   0  0  0  0  0  0  0  0  0  0  0  0
    1.2636   -0.8228   -1.5462 C   0  0  0  0  0  0  0  0  0  0  0  0
    2.6585   -0.7642   -1.4467 C   0  0  0  0  0  0  0  0  0  0  0  0
    3.2691    0.0183   -0.4916 C   0  0  0  0  0  0  0  0  0  0  0  0
    4.7148    0.1141   -0.3437 C   0  0  0  0  0  0  0  0  0  0  0  0
    5.3824    0.8408    0.5451 N   0  0  0  0  0  0  0  0  0  0  0  0
    6.7104    0.6931    0.3987 C   0  0  0  0  0  0  0  0  0  0  0  0
    7.8009    1.2178    1.0542 C   0  0  0  0  0  0  0  0  0  0  0  0
    9.0798    0.8691    0.6650 C   0  0  0  0  0  0  0  0  0  0  0  0
   10.2499    1.4516    1.3922 C   0  0  0  0  0  0  0  0  0  0  0  0
   10.7200    0.4403    2.2421 F   0  0  0  0  0  0  0  0  0  0  0  0
   11.2302    1.6841    0.4382 F   0  0  0  0  0  0  0  0  0  0  0  0
    9.8923    2.5783    2.0778 F   0  0  0  0  0  0  0  0  0  0  0  0
    9.2421   -0.0101   -0.3874 C   0  0  0  0  0  0  0  0  0  0  0  0
    8.1459   -0.5303   -1.0378 C   0  0  0  0  0  0  0  0  0  0  0  0
    6.8727   -0.1830   -0.6500 C   0  0  0  0  0  0  0  0  0  0  0  0
    5.6274   -0.5273   -1.0929 N   0  0  0  0  0  0  0  0  0  0  0  0
    2.4288    0.7247    0.3420 C   0  0  0  0  0  0  0  0  0  0  0  0
    1.1077    0.6587    0.2355 N   0  0  0  0  0  0  0  0  0  0  0  0
   -1.6572    0.8269    0.1557 C   0  0  0  0  0  0  0  0  0  0  0  0
   -2.8611    0.2468    0.8261 C   0  0  0  0  0  0  0  0  0  0  0  0
   -4.3177    0.0525   -1.0957 O   0  0  0  0  0  0  0  0  0  0  0  0
   -5.1823    1.0377   -0.7117 C   0  0  0  0  0  0  0  0  0  0  0  0
  -10.4556    0.1062    1.5342 H   0  0  0  0  0  0  0  0  0  0  0  0
   -7.6878   -0.2078   -0.7146 H   0  0  0  0  0  0  0  0  0  0  0  0
   -7.7680    1.5719   -0.6907 H   0  0  0  0  0  0  0  0  0  0  0  0
   -6.0618    1.6523    1.1043 H   0  0  0  0  0  0  0  0  0  0  0  0
   -6.7351   -1.0907    1.3629 H   0  0  0  0  0  0  0  0  0  0  0  0
   -5.4982   -0.1905    2.2479 H   0  0  0  0  0  0  0  0  0  0  0  0
   -4.2834   -2.0218    1.4514 H   0  0  0  0  0  0  0  0  0  0  0  0
   -5.2156   -2.0732   -0.0744 H   0  0  0  0  0  0  0  0  0  0  0  0
   -2.2195   -2.1972    0.0914 H   0  0  0  0  0  0  0  0  0  0  0  0
   -3.3271   -2.3746   -1.3220 H   0  0  0  0  0  0  0  0  0  0  0  0
   -2.1376   -0.4549   -2.4153 H   0  0  0  0  0  0  0  0  0  0  0  0
   -1.0927   -1.8450   -1.9482 H   0  0  0  0  0  0  0  0  0  0  0  0
    0.8097   -1.4453   -2.3118 H   0  0  0  0  0  0  0  0  0  0  0  0
    3.2600   -1.3435   -2.1320 H   0  0  0  0  0  0  0  0  0  0  0  0
    7.6765    1.9202    1.8950 H   0  0  0  0  0  0  0  0  0  0  0  0
   10.2517   -0.2789   -0.6865 H   0  0  0  0  0  0  0  0  0  0  0  0
    8.2743   -1.2247   -1.8691 H   0  0  0  0  0  0  0  0  0  0  0  0
    5.4454   -1.1841   -1.8855 H   0  0  0  0  0  0  0  0  0  0  0  0
    2.8418    1.3589    1.1141 H   0  0  0  0  0  0  0  0  0  0  0  0
   -0.9810    1.3396    0.8660 H   0  0  0  0  0  0  0  0  0  0  0  0
   -2.0241    1.6480   -0.5284 H   0  0  0  0  0  0  0  0  0  0  0  0
   -2.5116   -0.3796    1.6739 H   0  0  0  0  0  0  0  0  0  0  0  0
   -3.4804    1.0830    1.1944 H   0  0  0  0  0  0  0  0  0  0  0  0
   -5.7679    1.3261   -1.6352 H   0  0  0  0  0  0  0  0  0  0  0  0
   -4.5478    1.9558   -0.5272 H   0  0  0  0  0  0  0  0  0  0  0  0
  1  2  2  0
  2  3  1  0
  2  4  1  0
  4  5  1  0
  5  6  1  0
  6  7  1  0
  7  8  1  0
  8  9  1  0
  9 10  1  0
 10 11  1  0
 11 12  1  0
 12 13  2  0
 13 14  1  0
 14 15  2  0
 15 16  1  0
 16 17  2  0
 17 18  1  0
 18 19  2  0
 19 20  1  0
 20 21  1  0
 21 22  1  0
 21 23  1  0
 21 24  1  0
 20 25  2  0
 25 26  1  0
 26 27  2  0
 27 28  1  0
 15 29  1  0
 29 30  2  0
 11 31  1  0
 31 32  1  0
  8 33  1  0
 33 34  1  0
 34  5  1  0
 32  8  1  0
 30 12  1  0
 28 16  1  0
 27 18  1  0
  3 35  1  0
  4 36  1  0
  4 37  1  0
  5 38  1  0
  6 39  1  0
  6 40  1  0
  7 41  1  0
  7 42  1  0
  9 43  1  0
  9 44  1  0
 10 45  1  0
 10 46  1  0
 13 47  1  0
 14 48  1  0
 19 49  1  0
 25 50  1  0
 26 51  1  0
 28 52  1  0
 29 53  1  0
 31 54  1  0
 31 55  1  0
 32 56  1  0
 32 57  1  0
 34 58  1  0
 34 59  1  0
M  END
$$$$
