@<TRIPOS>MOLECULE
*****
 59 63 0 0 0
SMALL
GASTEIGER

@<TRIPOS>ATOM
      1 O          -8.0580    0.6189    2.2334 O.2     1  UNL1       -0.2510
      2 C          -8.4728    0.6217    1.0466 C.2     1  UNL1        0.3050
      3 O          -9.8442    0.5548    0.8581 O.3     1  UNL1       -0.4806
      4 C          -7.5177    0.6943   -0.0944 C.3     1  UNL1        0.0497
      5 C          -6.0751    0.7440    0.4302 C.3     1  UNL1       -0.0074
      6 C          -5.8109   -0.4802    1.2165 C.3     1  UNL1       -0.0450
      7 C          -4.7456   -1.3852    0.6810 C.3     1  UNL1       -0.0233
      8 C          -3.6851   -0.6158   -0.0819 C.3     1  UNL1        0.0724
      9 C          -2.7685   -1.6475   -0.6985 C.3     1  UNL1       -0.0079
     10 C          -1.6762   -0.9910   -1.5585 C.3     1  UNL1        0.0161
     11 N          -0.9500   -0.0963   -0.7031 N.pl3   1  UNL1       -0.3150
     12 C           0.4616   -0.1010   -0.6929 C.ar    1  UNL1        0.1212
     13 C           1.2636   -0.8228   -1.5462 C.ar    1  UNL1       -0.0210
     14 C           2.6585   -0.7642   -1.4467 C.ar    1  UNL1       -0.0464
     15 C           3.2691    0.0183   -0.4916 C.ar    1  UNL1        0.0355
     16 C           4.7148    0.1141   -0.3437 C.ar    1  UNL1        0.1407
     17 N           5.3824    0.8408    0.5451 N.ar    1  UNL1       -0.2277
     18 C           6.7104    0.6931    0.3987 C.ar    1  UNL1        0.0900
     19 C           7.8009    1.2178    1.0542 C.ar    1  UNL1       -0.0226
     20 C           9.0798    0.8691    0.6650 C.ar    1  UNL1        0.0569
     21 C          10.2499    1.4516    1.3922 C.3     1  UNL1        0.4175
     22 F          10.7200    0.4403    2.2421 F       1  UNL1       -0.1659
     23 F          11.2302    1.6841    0.4382 F       1  UNL1       -0.1659
     24 F           9.8923    2.5783    2.0778 F       1  UNL1       -0.1659
     25 C           9.2421   -0.0101   -0.3874 C.ar    1  UNL1       -0.0480
     26 C           8.1459   -0.5303   -1.0378 C.ar    1  UNL1       -0.0357
     27 C           6.8727   -0.1830   -0.6500 C.ar    1  UNL1        0.0665
     28 N           5.6274   -0.5273   -1.0929 N.ar    1  UNL1       -0.3378
     29 C           2.4288    0.7247    0.3420 C.ar    1  UNL1        0.0403
     30 N           1.1077    0.6587    0.2355 N.ar    1  UNL1       -0.2396
     31 C          -1.6572    0.8269    0.1557 C.3     1  UNL1        0.0161
     32 C          -2.8611    0.2468    0.8261 C.3     1  UNL1       -0.0079
     33 O          -4.3177    0.0525   -1.0957 O.3     1  UNL1       -0.3730
     34 C          -5.1823    1.0377   -0.7117 C.3     1  UNL1        0.0517
     35 H         -10.4556    0.1062    1.5342 H       1  UNL1        0.2951
     36 H          -7.6878   -0.2078   -0.7146 H       1  UNL1        0.0381
     37 H          -7.7680    1.5719   -0.6907 H       1  UNL1        0.0381
     38 H          -6.0618    1.6523    1.1043 H       1  UNL1        0.0328
     39 H          -6.7351   -1.0907    1.3629 H       1  UNL1        0.0270
     40 H          -5.4982   -0.1905    2.2479 H       1  UNL1        0.0270
     41 H          -4.2834   -2.0218    1.4514 H       1  UNL1        0.0293
     42 H          -5.2156   -2.0732   -0.0744 H       1  UNL1        0.0293
     43 H          -2.2195   -2.1972    0.0914 H       1  UNL1        0.0308
     44 H          -3.3271   -2.3746   -1.3220 H       1  UNL1        0.0308
     45 H          -2.1376   -0.4549   -2.4153 H       1  UNL1        0.0465
     46 H          -1.0927   -1.8450   -1.9482 H       1  UNL1        0.0465
     47 H           0.8097   -1.4453   -2.3118 H       1  UNL1        0.0652
     48 H           3.2600   -1.3435   -2.1320 H       1  UNL1        0.0626
     49 H           7.6765    1.9202    1.8950 H       1  UNL1        0.0645
     50 H          10.2517   -0.2789   -0.6865 H       1  UNL1        0.0624
     51 H           8.2743   -1.2247   -1.8691 H       1  UNL1        0.0639
     52 H           5.4454   -1.1841   -1.8855 H       1  UNL1        0.1674
     53 H           2.8418    1.3589    1.1141 H       1  UNL1        0.0837
     54 H          -0.9810    1.3396    0.8660 H       1  UNL1        0.0465
     55 H          -2.0241    1.6480   -0.5284 H       1  UNL1        0.0465
     56 H          -2.5116   -0.3796    1.6739 H       1  UNL1        0.0308
     57 H          -3.4804    1.0830    1.1944 H       1  UNL1        0.0308
     58 H          -5.7679    1.3261   -1.6352 H       1  UNL1        0.0563
     59 H          -4.5478    1.9558   -0.5272 H       1  UNL1        0.0563
@<TRIPOS>BOND
     1     1     2    2
     2     2     3    1
     3     2     4    1
     4     4     5    1
     5     5     6    1
     6     6     7    1
     7     7     8    1
     8     8     9    1
     9     9    10    1
    10    10    11    1
    11    11    12    1
    12    12    13   ar
    13    13    14   ar
    14    14    15   ar
    15    15    16    1
    16    16    17   ar
    17    17    18   ar
    18    18    19   ar
    19    19    20   ar
    20    20    21    1
    21    21    22    1
    22    21    23    1
    23    21    24    1
    24    20    25   ar
    25    25    26   ar
    26    26    27   ar
    27    27    28   ar
    28    15    29   ar
    29    29    30   ar
    30    11    31    1
    31    31    32    1
    32     8    33    1
    33    33    34    1
    34    34     5    1
    35    32     8    1
    36    30    12   ar
    37    28    16   ar
    38    27    18   ar
    39     3    35    1
    40     4    36    1
    41     4    37    1
    42     5    38    1
    43     6    39    1
    44     6    40    1
    45     7    41    1
    46     7    42    1
    47     9    43    1
    48     9    44    1
    49    10    45    1
    50    10    46    1
    51    13    47    1
    52    14    48    1
    53    19    49    1
    54    25    50    1
    55    26    51    1
    56    28    52    1
    57    29    53    1
    58    31    54    1
    59    31    55    1
    60    32    56    1
    61    32    57    1
    62    34    58    1
    63    34    59    1
