@<TRIPOS>MOLECULE
*****
 55 60 0 0 0
SMALL
GASTEIGER

@<TRIPOS>ATOM
      1 C          -6.5520   -1.3702    0.2579 C.3     1  UNL1       -0.0389
      2 C          -6.4109   -0.0039   -0.3650 C.3     1  UNL1        0.0535
      3 C          -7.5576    0.8407    0.2122 C.3     1  UNL1       -0.0389
      4 O          -5.1939    0.5942   -0.1515 O.3     1  UNL1       -0.3725
      5 C          -4.5166    0.8719   -1.3456 C.3     1  UNL1        0.0750
      6 C          -3.2142    1.5134   -1.1043 C.ar    1  UNL1        0.0035
      7 C          -3.0923    2.8723   -1.3102 C.ar    1  UNL1       -0.0543
      8 C          -1.8987    3.5258   -1.0965 C.ar    1  UNL1       -0.0593
      9 C          -0.8201    2.7892   -0.6697 C.ar    1  UNL1       -0.0342
     10 C          -0.9415    1.4312   -0.4640 C.ar    1  UNL1        0.0899
     11 N          -0.0704    0.4702   -0.0552 N.ar    1  UNL1       -0.2261
     12 C          -0.6606   -0.7336   -0.0061 C.ar    1  UNL1        0.1601
     13 C          -0.0723   -2.0162    0.3837 C.ar    1  UNL1        0.1367
     14 N          -0.6120   -3.2213    0.4505 N.ar    1  UNL1       -0.1683
     15 N           0.2681   -4.1270    0.8554 N.ar    1  UNL1       -0.2595
     16 C           1.4417   -3.4951    1.0661 C.ar    1  UNL1        0.1563
     17 N           2.6752   -3.8702    1.4738 N.ar    1  UNL1       -0.2355
     18 C           3.6837   -2.9892    1.5940 C.ar    1  UNL1        0.0377
     19 C           3.5478   -1.6419    1.3146 C.ar    1  UNL1        0.0030
     20 C           4.6712   -0.7312    1.4820 C.ar    1  UNL1        0.0094
     21 C           5.3071   -0.6677    2.7035 C.ar    1  UNL1        0.0359
     22 N           6.3267    0.1725    2.9287 N.ar    1  UNL1       -0.2620
     23 C           6.7802    0.9989    1.9650 C.ar    1  UNL1        0.0353
     24 C           6.1761    0.9688    0.7308 C.ar    1  UNL1        0.0008
     25 C           6.6409    1.8113   -0.2769 C.ar    1  UNL1       -0.0526
     26 C           6.0400    1.7737   -1.5178 C.ar    1  UNL1       -0.0611
     27 C           4.9990    0.9192   -1.7584 C.ar    1  UNL1       -0.0611
     28 C           4.5258    0.0752   -0.7653 C.ar    1  UNL1       -0.0534
     29 C           5.1229    0.1161    0.4624 C.ar    1  UNL1       -0.0072
     30 C           2.2908   -1.2440    0.8970 C.ar    1  UNL1       -0.0396
     31 C           1.2472   -2.1582    0.7730 C.ar    1  UNL1        0.0498
     32 N          -1.9322   -0.5392   -0.3903 N.ar    1  UNL1       -0.3363
     33 C          -2.1370    0.7609   -0.6751 C.ar    1  UNL1        0.0719
     34 H          -7.4242   -1.8805   -0.2166 H       1  UNL1        0.0254
     35 H          -5.6259   -1.9733    0.1780 H       1  UNL1        0.0254
     36 H          -6.8539   -1.1957    1.3302 H       1  UNL1        0.0254
     37 H          -6.5674   -0.1367   -1.4685 H       1  UNL1        0.0590
     38 H          -7.4610    0.7399    1.3136 H       1  UNL1        0.0254
     39 H          -7.4604    1.9057   -0.0722 H       1  UNL1        0.0254
     40 H          -8.5009    0.3756   -0.1532 H       1  UNL1        0.0254
     41 H          -4.3714   -0.0941   -1.8841 H       1  UNL1        0.0611
     42 H          -5.1228    1.5344   -1.9860 H       1  UNL1        0.0611
     43 H          -3.9344    3.4819   -1.6497 H       1  UNL1        0.0622
     44 H          -1.8529    4.5936   -1.2720 H       1  UNL1        0.0618
     45 H           0.1337    3.2615   -0.4901 H       1  UNL1        0.0639
     46 H           0.1258   -5.1618    1.0011 H       1  UNL1        0.1905
     47 H           4.6832   -3.3033    1.9254 H       1  UNL1        0.0836
     48 H           4.9716   -1.3125    3.4957 H       1  UNL1        0.0836
     49 H           7.6044    1.6913    2.1165 H       1  UNL1        0.0836
     50 H           7.4642    2.4777   -0.0646 H       1  UNL1        0.0624
     51 H           6.4326    2.4445   -2.2712 H       1  UNL1        0.0618
     52 H           4.5437    0.9060   -2.7385 H       1  UNL1        0.0618
     53 H           3.7236   -0.5853   -0.9791 H       1  UNL1        0.0624
     54 H           2.0978   -0.2036    0.6678 H       1  UNL1        0.0632
     55 H          -2.6675   -1.2618   -0.4664 H       1  UNL1        0.1674
@<TRIPOS>BOND
     1     1     2    1
     2     2     3    1
     3     2     4    1
     4     4     5    1
     5     5     6    1
     6     6     7   ar
     7     7     8   ar
     8     8     9   ar
     9     9    10   ar
    10    10    11   ar
    11    11    12   ar
    12    12    13    1
    13    13    14   ar
    14    14    15   ar
    15    15    16   ar
    16    16    17   ar
    17    17    18   ar
    18    18    19   ar
    19    19    20    1
    20    20    21   ar
    21    21    22   ar
    22    22    23   ar
    23    23    24   ar
    24    24    25   ar
    25    25    26   ar
    26    26    27   ar
    27    27    28   ar
    28    28    29   ar
    29    19    30   ar
    30    30    31   ar
    31    12    32   ar
    32    32    33   ar
    33    33     6   ar
    34    33    10   ar
    35    31    13   ar
    36    31    16   ar
    37    29    20   ar
    38    29    24   ar
    39     1    34    1
    40     1    35    1
    41     1    36    1
    42     2    37    1
    43     3    38    1
    44     3    39    1
    45     3    40    1
    46     5    41    1
    47     5    42    1
    48     7    43    1
    49     8    44    1
    50     9    45    1
    51    15    46    1
    52    18    47    1
    53    21    48    1
    54    23    49    1
    55    25    50    1
    56    26    51    1
    57    27    52    1
    58    28    53    1
    59    30    54    1
    60    32    55    1
