
     RDKit          3D

 78 81  0  0  0  0  0  0  0  0999 V2000
    0.5896    4.8401   -0.9645 C   0  0  0  0  0  0  0  0  0  0  0  0
    2.0429    4.5283   -0.7136 C   0  0  0  0  0  0  0  0  0  0  0  0
    2.2931    3.6475    0.4650 C   0  0  0  0  0  0  0  0  0  0  0  0
    1.6812    2.3092    0.3495 C   0  0  0  0  0  0  0  0  0  0  0  0
    2.1137    1.4506   -0.7042 N   0  0  0  0  0  0  0  0  0  0  0  0
    3.4110    0.8767   -0.6376 C   0  0  0  0  0  0  0  0  0  0  0  0
    4.4642    1.5914   -1.1575 C   0  0  0  0  0  0  0  0  0  0  0  0
    5.7676    1.0889   -1.1051 C   0  0  0  0  0  0  0  0  0  0  0  0
    5.9868   -0.1346   -0.5252 C   0  0  0  0  0  0  0  0  0  0  0  0
    4.9389   -0.8798    0.0085 C   0  0  0  0  0  0  0  0  0  0  0  0
    5.2815   -2.1566    0.5867 C   0  0  0  0  0  0  0  0  0  0  0  0
    4.6584   -3.3302    0.2933 C   0  0  0  0  0  0  0  0  0  0  0  0
    5.0656   -4.5090    0.9162 C   0  0  0  0  0  0  0  0  0  0  0  0
    6.0928   -4.5165    1.8297 C   0  0  0  0  0  0  0  0  0  0  0  0
    6.6326   -5.9862    2.6345 Cl  0  0  0  0  0  0  0  0  0  0  0  0
    6.7309   -3.3332    2.1337 C   0  0  0  0  0  0  0  0  0  0  0  0
    6.3198   -2.1788    1.5131 C   0  0  0  0  0  0  0  0  0  0  0  0
    3.6598   -0.3453   -0.0636 C   0  0  0  0  0  0  0  0  0  0  0  0
    2.5649   -1.1631    0.5064 C   0  0  0  0  0  0  0  0  0  0  0  0
    1.1570    1.0960   -2.0692 S   0  0  0  0  0  6  0  0  0  0  0  0
    0.8577    2.3324   -2.8366 O   0  0  0  0  0  0  0  0  0  0  0  0
    1.8966    0.1772   -3.0334 O   0  0  0  0  0  0  0  0  0  0  0  0
   -0.3552    0.2874   -1.6112 C   0  0  0  0  0  0  0  0  0  0  0  0
   -0.4251   -1.0852   -1.6355 C   0  0  0  0  0  0  0  0  0  0  0  0
   -1.6120   -1.6788   -1.2671 C   0  0  0  0  0  0  0  0  0  0  0  0
   -2.7484   -0.9836   -0.8713 C   0  0  0  0  0  0  0  0  0  0  0  0
   -3.9130   -1.5977   -0.5150 O   0  0  0  0  0  0  0  0  0  0  0  0
   -4.2416   -2.9414   -0.5121 C   0  0  0  0  0  0  0  0  0  0  0  0
   -5.5583   -3.0931   -1.2929 C   0  0  0  0  0  0  0  0  0  0  0  0
   -4.5126   -3.4191    0.8590 C   0  0  0  0  0  0  0  0  0  0  0  0
   -4.8468   -4.6077    1.0808 O   0  0  0  0  0  0  0  0  0  0  0  0
   -4.3998   -2.5567    1.9238 O   0  0  0  0  0  0  0  0  0  0  0  0
   -2.6675    0.3863   -0.8511 C   0  0  0  0  0  0  0  0  0  0  0  0
   -3.7307    1.3271   -0.4627 C   0  0  0  0  0  0  0  0  0  0  0  0
   -3.3752    1.9287    0.8655 C   0  0  0  0  0  0  0  0  0  0  0  0
   -3.8908    1.0611    1.9716 C   0  0  0  0  0  0  0  0  0  0  0  0
   -5.3996    1.1424    1.9444 C   0  0  0  0  0  0  0  0  0  0  0  0
   -5.8700    0.5017    0.6959 C   0  0  0  0  0  0  0  0  0  0  0  0
   -5.1200    0.8951   -0.5096 C   0  0  0  0  0  0  0  0  0  0  0  0
   -1.4622    1.0088   -1.2244 C   0  0  0  0  0  0  0  0  0  0  0  0
   -0.1097    4.0563   -0.6923 H   0  0  0  0  0  0  0  0  0  0  0  0
    0.4635    5.0352   -2.0600 H   0  0  0  0  0  0  0  0  0  0  0  0
    0.3156    5.7994   -0.4511 H   0  0  0  0  0  0  0  0  0  0  0  0
    2.5492    5.5353   -0.5798 H   0  0  0  0  0  0  0  0  0  0  0  0
    2.4645    4.0850   -1.6446 H   0  0  0  0  0  0  0  0  0  0  0  0
    3.3993    3.6079    0.6483 H   0  0  0  0  0  0  0  0  0  0  0  0
    1.8406    4.1652    1.3741 H   0  0  0  0  0  0  0  0  0  0  0  0
    1.7997    1.7366    1.3150 H   0  0  0  0  0  0  0  0  0  0  0  0
    0.5537    2.3985    0.2259 H   0  0  0  0  0  0  0  0  0  0  0  0
    4.2871    2.5553   -1.6143 H   0  0  0  0  0  0  0  0  0  0  0  0
    6.5322    1.7118   -1.5340 H   0  0  0  0  0  0  0  0  0  0  0  0
    7.0127   -0.4870   -0.5053 H   0  0  0  0  0  0  0  0  0  0  0  0
    3.8442   -3.3897   -0.4249 H   0  0  0  0  0  0  0  0  0  0  0  0
    4.5725   -5.4627    0.6903 H   0  0  0  0  0  0  0  0  0  0  0  0
    7.5574   -3.3043    2.8607 H   0  0  0  0  0  0  0  0  0  0  0  0
    6.8264   -1.2417    1.7549 H   0  0  0  0  0  0  0  0  0  0  0  0
    1.7995   -0.5639    1.0213 H   0  0  0  0  0  0  0  0  0  0  0  0
    2.9811   -1.8629    1.2889 H   0  0  0  0  0  0  0  0  0  0  0  0
    2.0993   -1.8225   -0.2649 H   0  0  0  0  0  0  0  0  0  0  0  0
    0.4328   -1.6636   -1.9418 H   0  0  0  0  0  0  0  0  0  0  0  0
   -1.6968   -2.7633   -1.2749 H   0  0  0  0  0  0  0  0  0  0  0  0
   -3.4594   -3.5947   -0.9616 H   0  0  0  0  0  0  0  0  0  0  0  0
   -5.3697   -3.3533   -2.3391 H   0  0  0  0  0  0  0  0  0  0  0  0
   -6.2215   -3.8249   -0.7845 H   0  0  0  0  0  0  0  0  0  0  0  0
   -6.1064   -2.1238   -1.2827 H   0  0  0  0  0  0  0  0  0  0  0  0
   -4.7744   -2.7515    2.8355 H   0  0  0  0  0  0  0  0  0  0  0  0
   -3.6335    2.2002   -1.1927 H   0  0  0  0  0  0  0  0  0  0  0  0
   -3.7887    2.9613    0.9280 H   0  0  0  0  0  0  0  0  0  0  0  0
   -2.2787    2.0121    1.0206 H   0  0  0  0  0  0  0  0  0  0  0  0
   -3.6023    0.0170    1.7848 H   0  0  0  0  0  0  0  0  0  0  0  0
   -3.5248    1.3641    2.9719 H   0  0  0  0  0  0  0  0  0  0  0  0
   -5.7697    2.1781    2.0934 H   0  0  0  0  0  0  0  0  0  0  0  0
   -5.7659    0.5510    2.8160 H   0  0  0  0  0  0  0  0  0  0  0  0
   -5.9729   -0.5965    0.8695 H   0  0  0  0  0  0  0  0  0  0  0  0
   -6.9558    0.8522    0.5691 H   0  0  0  0  0  0  0  0  0  0  0  0
   -5.7201    1.7765   -0.9409 H   0  0  0  0  0  0  0  0  0  0  0  0
   -5.3113    0.1430   -1.3671 H   0  0  0  0  0  0  0  0  0  0  0  0
   -1.3476    2.0842   -1.2261 H   0  0  0  0  0  0  0  0  0  0  0  0
  1  2  1  0
  2  3  1  0
  3  4  1  0
  4  5  1  0
  5  6  1  0
  6  7  2  0
  7  8  1  0
  8  9  2  0
  9 10  1  0
 10 11  1  0
 11 12  2  0
 12 13  1  0
 13 14  2  0
 14 15  1  0
 14 16  1  0
 16 17  2  0
 10 18  2  0
 18 19  1  0
  5 20  1  0
 20 21  2  0
 20 22  2  0
 20 23  1  0
 23 24  2  0
 24 25  1  0
 25 26  2  0
 26 27  1  0
 27 28  1  0
 28 29  1  0
 28 30  1  0
 30 31  2  0
 30 32  1  0
 26 33  1  0
 33 34  1  0
 34 35  1  0
 35 36  1  0
 36 37  1  0
 37 38  1  0
 38 39  1  0
 33 40  2  0
 18  6  1  0
 40 23  1  0
 17 11  1  0
 39 34  1  0
  1 41  1  0
  1 42  1  0
  1 43  1  0
  2 44  1  0
  2 45  1  0
  3 46  1  0
  3 47  1  0
  4 48  1  0
  4 49  1  0
  7 50  1  0
  8 51  1  0
  9 52  1  0
 12 53  1  0
 13 54  1  0
 16 55  1  0
 17 56  1  0
 19 57  1  0
 19 58  1  0
 19 59  1  0
 24 60  1  0
 25 61  1  0
 28 62  1  0
 29 63  1  0
 29 64  1  0
 29 65  1  0
 32 66  1  0
 34 67  1  0
 35 68  1  0
 35 69  1  0
 36 70  1  0
 36 71  1  0
 37 72  1  0
 37 73  1  0
 38 74  1  0
 38 75  1  0
 39 76  1  0
 39 77  1  0
 40 78  1  0
M  END
$$$$
