@<TRIPOS>MOLECULE
*****
 78 81 0 0 0
SMALL
GASTEIGER

@<TRIPOS>ATOM
      1 C           0.5896    4.8401   -0.9645 C.3     1  UNL1       -0.0652
      2 C           2.0429    4.5283   -0.7136 C.3     1  UNL1       -0.0544
      3 C           2.2931    3.6475    0.4650 C.3     1  UNL1       -0.0357
      4 C           1.6812    2.3092    0.3495 C.3     1  UNL1        0.0350
      5 N           2.1137    1.4506   -0.7042 N.pl3   1  UNL1       -0.2027
      6 C           3.4110    0.8767   -0.6376 C.ar    1  UNL1        0.0547
      7 C           4.4642    1.5914   -1.1575 C.ar    1  UNL1       -0.0388
      8 C           5.7676    1.0889   -1.1051 C.ar    1  UNL1       -0.0594
      9 C           5.9868   -0.1346   -0.5252 C.ar    1  UNL1       -0.0537
     10 C           4.9389   -0.8798    0.0085 C.ar    1  UNL1       -0.0132
     11 C           5.2815   -2.1566    0.5867 C.ar    1  UNL1       -0.0175
     12 C           4.6584   -3.3302    0.2933 C.ar    1  UNL1       -0.0526
     13 C           5.0656   -4.5090    0.9162 C.ar    1  UNL1       -0.0428
     14 C           6.0928   -4.5165    1.8297 C.ar    1  UNL1        0.0410
     15 CL          6.6326   -5.9862    2.6345 Cl      1  UNL1       -0.0835
     16 C           6.7309   -3.3332    2.1337 C.ar    1  UNL1       -0.0428
     17 C           6.3198   -2.1788    1.5131 C.ar    1  UNL1       -0.0526
     18 C           3.6598   -0.3453   -0.0636 C.ar    1  UNL1       -0.0202
     19 C           2.5649   -1.1631    0.5064 C.3     1  UNL1       -0.0373
     20 S           1.1570    1.0960   -2.0692 S.O2    1  UNL1        0.0747
     21 O           0.8577    2.3324   -2.8366 O.2     1  UNL1       -0.1498
     22 O           1.8966    0.1772   -3.0334 O.2     1  UNL1       -0.1498
     23 C          -0.3552    0.2874   -1.6112 C.ar    1  UNL1        0.1092
     24 C          -0.4251   -1.0852   -1.6355 C.ar    1  UNL1       -0.0316
     25 C          -1.6120   -1.6788   -1.2671 C.ar    1  UNL1       -0.0178
     26 C          -2.7484   -0.9836   -0.8713 C.ar    1  UNL1        0.1252
     27 O          -3.9130   -1.5977   -0.5150 O.3     1  UNL1       -0.4776
     28 C          -4.2416   -2.9414   -0.5121 C.3     1  UNL1        0.1931
     29 C          -5.5583   -3.0931   -1.2929 C.3     1  UNL1       -0.0172
     30 C          -4.5126   -3.4191    0.8590 C.2     1  UNL1        0.3456
     31 O          -4.8468   -4.6077    1.0808 O.2     1  UNL1       -0.2468
     32 O          -4.3998   -2.5567    1.9238 O.3     1  UNL1       -0.4781
     33 C          -2.6675    0.3863   -0.8511 C.ar    1  UNL1       -0.0007
     34 C          -3.7307    1.3271   -0.4627 C.3     1  UNL1       -0.0123
     35 C          -3.3752    1.9287    0.8655 C.3     1  UNL1       -0.0461
     36 C          -3.8908    1.0611    1.9716 C.3     1  UNL1       -0.0525
     37 C          -5.3996    1.1424    1.9444 C.3     1  UNL1       -0.0530
     38 C          -5.8700    0.5017    0.6959 C.3     1  UNL1       -0.0525
     39 C          -5.1200    0.8951   -0.5096 C.3     1  UNL1       -0.0461
     40 C          -1.4622    1.0088   -1.2244 C.ar    1  UNL1       -0.0282
     41 H          -0.1097    4.0563   -0.6923 H       1  UNL1        0.0230
     42 H           0.4635    5.0352   -2.0600 H       1  UNL1        0.0230
     43 H           0.3156    5.7994   -0.4511 H       1  UNL1        0.0230
     44 H           2.5492    5.5353   -0.5798 H       1  UNL1        0.0263
     45 H           2.4645    4.0850   -1.6446 H       1  UNL1        0.0263
     46 H           3.3993    3.6079    0.6483 H       1  UNL1        0.0281
     47 H           1.8406    4.1652    1.3741 H       1  UNL1        0.0281
     48 H           1.7997    1.7366    1.3150 H       1  UNL1        0.0482
     49 H           0.5537    2.3985    0.2259 H       1  UNL1        0.0482
     50 H           4.2871    2.5553   -1.6143 H       1  UNL1        0.0637
     51 H           6.5322    1.7118   -1.5340 H       1  UNL1        0.0618
     52 H           7.0127   -0.4870   -0.5053 H       1  UNL1        0.0624
     53 H           3.8442   -3.3897   -0.4249 H       1  UNL1        0.0624
     54 H           4.5725   -5.4627    0.6903 H       1  UNL1        0.0632
     55 H           7.5574   -3.3043    2.8607 H       1  UNL1        0.0632
     56 H           6.8264   -1.2417    1.7549 H       1  UNL1        0.0624
     57 H           1.7995   -0.5639    1.0213 H       1  UNL1        0.0278
     58 H           2.9811   -1.8629    1.2889 H       1  UNL1        0.0278
     59 H           2.0993   -1.8225   -0.2649 H       1  UNL1        0.0278
     60 H           0.4328   -1.6636   -1.9418 H       1  UNL1        0.0638
     61 H          -1.6968   -2.7633   -1.2749 H       1  UNL1        0.0655
     62 H          -3.4594   -3.5947   -0.9616 H       1  UNL1        0.0849
     63 H          -5.3697   -3.3533   -2.3391 H       1  UNL1        0.0271
     64 H          -6.2215   -3.8249   -0.7845 H       1  UNL1        0.0271
     65 H          -6.1064   -2.1238   -1.2827 H       1  UNL1        0.0271
     66 H          -4.7744   -2.7515    2.8355 H       1  UNL1        0.2952
     67 H          -3.6335    2.2002   -1.1927 H       1  UNL1        0.0350
     68 H          -3.7887    2.9613    0.9280 H       1  UNL1        0.0271
     69 H          -2.2787    2.0121    1.0206 H       1  UNL1        0.0271
     70 H          -3.6023    0.0170    1.7848 H       1  UNL1        0.0265
     71 H          -3.5248    1.3641    2.9719 H       1  UNL1        0.0265
     72 H          -5.7697    2.1781    2.0934 H       1  UNL1        0.0265
     73 H          -5.7659    0.5510    2.8160 H       1  UNL1        0.0265
     74 H          -5.9729   -0.5965    0.8695 H       1  UNL1        0.0265
     75 H          -6.9558    0.8522    0.5691 H       1  UNL1        0.0265
     76 H          -5.7201    1.7765   -0.9409 H       1  UNL1        0.0271
     77 H          -5.3113    0.1430   -1.3671 H       1  UNL1        0.0271
     78 H          -1.3476    2.0842   -1.2261 H       1  UNL1        0.0641
@<TRIPOS>BOND
     1     1     2    1
     2     2     3    1
     3     3     4    1
     4     4     5    1
     5     5     6    1
     6     6     7   ar
     7     7     8   ar
     8     8     9   ar
     9     9    10   ar
    10    10    11    1
    11    11    12   ar
    12    12    13   ar
    13    13    14   ar
    14    14    15    1
    15    14    16   ar
    16    16    17   ar
    17    10    18   ar
    18    18    19    1
    19     5    20    1
    20    20    21    2
    21    20    22    2
    22    20    23    1
    23    23    24   ar
    24    24    25   ar
    25    25    26   ar
    26    26    27    1
    27    27    28    1
    28    28    29    1
    29    28    30    1
    30    30    31    2
    31    30    32    1
    32    26    33   ar
    33    33    34    1
    34    34    35    1
    35    35    36    1
    36    36    37    1
    37    37    38    1
    38    38    39    1
    39    33    40   ar
    40    18     6   ar
    41    40    23   ar
    42    17    11   ar
    43    39    34    1
    44     1    41    1
    45     1    42    1
    46     1    43    1
    47     2    44    1
    48     2    45    1
    49     3    46    1
    50     3    47    1
    51     4    48    1
    52     4    49    1
    53     7    50    1
    54     8    51    1
    55     9    52    1
    56    12    53    1
    57    13    54    1
    58    16    55    1
    59    17    56    1
    60    19    57    1
    61    19    58    1
    62    19    59    1
    63    24    60    1
    64    25    61    1
    65    28    62    1
    66    29    63    1
    67    29    64    1
    68    29    65    1
    69    32    66    1
    70    34    67    1
    71    35    68    1
    72    35    69    1
    73    36    70    1
    74    36    71    1
    75    37    72    1
    76    37    73    1
    77    38    74    1
    78    38    75    1
    79    39    76    1
    80    39    77    1
    81    40    78    1
