
     RDKit          3D

 45 48  0  0  0  0  0  0  0  0999 V2000
    4.5717   -2.1686    0.9964 C   0  0  0  0  0  0  0  0  0  0  0  0
    4.9089   -0.7402    0.8952 C   0  0  0  0  0  0  0  0  0  0  0  0
    6.1383   -0.3037    1.3999 C   0  0  0  0  0  0  0  0  0  0  0  0
    6.4523    1.0305    1.3049 C   0  0  0  0  0  0  0  0  0  0  0  0
    7.9727    1.6773    1.9093 Cl  0  0  0  0  0  0  0  0  0  0  0  0
    5.5391    1.8678    0.7174 C   0  0  0  0  0  0  0  0  0  0  0  0
    4.3509    1.4255    0.2334 N   0  0  0  0  0  0  0  0  0  0  0  0
    4.0246    0.1389    0.3138 C   0  0  0  0  0  0  0  0  0  0  0  0
    2.7388   -0.2981   -0.2176 C   0  0  0  0  0  0  0  0  0  0  0  0
    2.3777   -1.5118   -0.1673 O   0  0  0  0  0  0  0  0  0  0  0  0
    1.8213    0.6058   -0.8192 N   0  0  0  0  0  0  0  0  0  0  0  0
    0.5593    0.2093   -1.3467 C   0  0  0  0  0  0  0  0  0  0  0  0
    0.4377   -0.1812   -2.6691 C   0  0  0  0  0  0  0  0  0  0  0  0
   -0.7722   -0.5700   -3.2075 C   0  0  0  0  0  0  0  0  0  0  0  0
   -1.9119   -0.5846   -2.4453 C   0  0  0  0  0  0  0  0  0  0  0  0
   -3.1230   -0.9407   -2.9160 F   0  0  0  0  0  0  0  0  0  0  0  0
   -1.8197   -0.2016   -1.1269 C   0  0  0  0  0  0  0  0  0  0  0  0
   -2.9827   -0.2050   -0.2451 C   0  0  1  0  0  0  0  0  0  0  0  0
   -3.5923   -1.5497    0.0378 C   0  0  0  0  0  0  0  0  0  0  0  0
   -4.0526   -2.2424   -1.0216 F   0  0  0  0  0  0  0  0  0  0  0  0
   -2.7297   -2.3028    0.8467 F   0  0  0  0  0  0  0  0  0  0  0  0
   -2.5410    0.2741    1.0754 N   0  0  0  0  0  0  0  0  0  0  0  0
   -3.3844    0.7746    1.9063 C   0  0  0  0  0  0  0  0  0  0  0  0
   -2.9272    1.2311    3.1810 N   0  0  0  0  0  0  0  0  0  0  0  0
   -4.7067    0.8346    1.4904 O   0  0  0  0  0  0  0  0  0  0  0  0
   -4.9783    1.2890    0.1898 C   0  0  2  0  0  0  0  0  0  0  0  0
   -5.4115    0.4433   -0.9197 C   0  0  0  0  0  0  0  0  0  0  0  0
   -3.9794    0.7879   -0.7673 C   0  0  2  0  0  0  0  0  0  0  0  0
   -0.5908    0.1917   -0.5871 C   0  0  0  0  0  0  0  0  0  0  0  0
    3.6790   -2.3216    1.6687 H   0  0  0  0  0  0  0  0  0  0  0  0
    5.3922   -2.7342    1.4831 H   0  0  0  0  0  0  0  0  0  0  0  0
    4.4136   -2.6471    0.0079 H   0  0  0  0  0  0  0  0  0  0  0  0
    6.8275   -0.9996    1.8549 H   0  0  0  0  0  0  0  0  0  0  0  0
    5.7696    2.9108    0.6360 H   0  0  0  0  0  0  0  0  0  0  0  0
    2.0924    1.6046   -0.8730 H   0  0  0  0  0  0  0  0  0  0  0  0
    1.3461   -0.1672   -3.2678 H   0  0  0  0  0  0  0  0  0  0  0  0
   -0.8566   -0.8732   -4.2412 H   0  0  0  0  0  0  0  0  0  0  0  0
   -4.4695   -1.3519    0.7135 H   0  0  0  0  0  0  0  0  0  0  0  0
   -2.7638    2.2378    3.3743 H   0  0  0  0  0  0  0  0  0  0  0  0
   -2.7491    0.5489    3.9449 H   0  0  0  0  0  0  0  0  0  0  0  0
   -5.2908    2.3748    0.1806 H   0  0  0  0  0  0  0  0  0  0  0  0
   -5.9526    0.9506   -1.7463 H   0  0  0  0  0  0  0  0  0  0  0  0
   -5.7756   -0.5986   -0.7692 H   0  0  0  0  0  0  0  0  0  0  0  0
   -3.5693    1.5846   -1.4580 H   0  0  0  0  0  0  0  0  0  0  0  0
   -0.4828    0.5004    0.4502 H   0  0  0  0  0  0  0  0  0  0  0  0
  1  2  1  0
  2  3  2  0
  3  4  1  0
  4  5  1  0
  4  6  2  0
  6  7  1  0
  7  8  2  0
  8  9  1  0
  9 10  2  0
  9 11  1  0
 11 12  1  0
 12 13  2  0
 13 14  1  0
 14 15  2  0
 15 16  1  0
 15 17  1  0
 17 18  1  0
 18 19  1  1
 19 20  1  0
 19 21  1  0
 18 22  1  0
 22 23  2  0
 23 24  1  0
 23 25  1  0
 25 26  1  0
 26 27  1  0
 27 28  1  0
 17 29  2  0
  8  2  1  0
 29 12  1  0
 28 18  1  0
 28 26  1  0
  1 30  1  0
  1 31  1  0
  1 32  1  0
  3 33  1  0
  6 34  1  0
 11 35  1  0
 13 36  1  0
 14 37  1  0
 19 38  1  0
 24 39  1  0
 24 40  1  0
 26 41  1  1
 27 42  1  0
 27 43  1  0
 28 44  1  6
 29 45  1  0
M  END
$$$$
