@<TRIPOS>MOLECULE
*****
 45 48 0 0 0
SMALL
GASTEIGER

@<TRIPOS>ATOM
      1 C           4.5717   -2.1686    0.9964 C.3     1  UNL1       -0.0375
      2 C           4.9089   -0.7402    0.8952 C.ar    1  UNL1       -0.0186
      3 C           6.1383   -0.3037    1.3999 C.ar    1  UNL1       -0.0368
      4 C           6.4523    1.0305    1.3049 C.ar    1  UNL1        0.0593
      5 CL          7.9727    1.6773    1.9093 Cl      1  UNL1       -0.0820
      6 C           5.5391    1.8678    0.7174 C.ar    1  UNL1        0.0467
      7 N           4.3509    1.4255    0.2334 N.ar    1  UNL1       -0.2486
      8 C           4.0246    0.1389    0.3138 C.ar    1  UNL1        0.1286
      9 C           2.7388   -0.2981   -0.2176 C.2     1  UNL1        0.2668
     10 O           2.3777   -1.5118   -0.1673 O.2     1  UNL1       -0.2682
     11 N           1.8213    0.6058   -0.8192 N.am    1  UNL1       -0.2802
     12 C           0.5593    0.2093   -1.3467 C.ar    1  UNL1        0.0342
     13 C           0.4377   -0.1812   -2.6691 C.ar    1  UNL1       -0.0377
     14 C          -0.7722   -0.5700   -3.2075 C.ar    1  UNL1       -0.0243
     15 C          -1.9119   -0.5846   -2.4453 C.ar    1  UNL1        0.1292
     16 F          -3.1230   -0.9407   -2.9160 F       1  UNL1       -0.2051
     17 C          -1.8197   -0.2016   -1.1269 C.ar    1  UNL1        0.0228
     18 C          -2.9827   -0.2050   -0.2451 C.3     1  UNL1        0.1603
     19 C          -3.5923   -1.5497    0.0378 C.3     1  UNL1        0.2686
     20 F          -4.0526   -2.2424   -1.0216 F       1  UNL1       -0.2062
     21 F          -2.7297   -2.3028    0.8467 F       1  UNL1       -0.2062
     22 N          -2.5410    0.2741    1.0754 N.2     1  UNL1       -0.2194
     23 C          -3.3844    0.7746    1.9063 C.2     1  UNL1        0.2764
     24 N          -2.9272    1.2311    3.1810 N.pl3   1  UNL1       -0.3134
     25 O          -4.7067    0.8346    1.4904 O.2     1  UNL1       -0.4622
     26 C          -4.9783    1.2890    0.1898 C.3     1  UNL1        0.1091
     27 C          -5.4115    0.4433   -0.9197 C.3     1  UNL1       -0.0064
     28 C          -3.9794    0.7879   -0.7673 C.3     1  UNL1        0.0344
     29 C          -0.5908    0.1917   -0.5871 C.ar    1  UNL1       -0.0321
     30 H           3.6790   -2.3216    1.6687 H       1  UNL1        0.0278
     31 H           5.3922   -2.7342    1.4831 H       1  UNL1        0.0278
     32 H           4.4136   -2.6471    0.0079 H       1  UNL1        0.0278
     33 H           6.8275   -0.9996    1.8549 H       1  UNL1        0.0636
     34 H           5.7696    2.9108    0.6360 H       1  UNL1        0.0844
     35 H           2.0924    1.6046   -0.8730 H       1  UNL1        0.1552
     36 H           1.3461   -0.1672   -3.2678 H       1  UNL1        0.0637
     37 H          -0.8566   -0.8732   -4.2412 H       1  UNL1        0.0647
     38 H          -4.4695   -1.3519    0.7135 H       1  UNL1        0.1047
     39 H          -2.7638    2.2378    3.3743 H       1  UNL1        0.1466
     40 H          -2.7491    0.5489    3.9449 H       1  UNL1        0.1466
     41 H          -5.2908    2.3748    0.1806 H       1  UNL1        0.0737
     42 H          -5.9526    0.9506   -1.7463 H       1  UNL1        0.0306
     43 H          -5.7756   -0.5986   -0.7692 H       1  UNL1        0.0306
     44 H          -3.5693    1.5846   -1.4580 H       1  UNL1        0.0366
     45 H          -0.4828    0.5004    0.4502 H       1  UNL1        0.0640
@<TRIPOS>BOND
     1     1     2    1
     2     2     3   ar
     3     3     4   ar
     4     4     5    1
     5     4     6   ar
     6     6     7   ar
     7     7     8   ar
     8     8     9    1
     9     9    10    2
    10     9    11   am
    11    11    12    1
    12    12    13   ar
    13    13    14   ar
    14    14    15   ar
    15    15    16    1
    16    15    17   ar
    17    17    18    1
    18    18    19    1
    19    19    20    1
    20    19    21    1
    21    18    22    1
    22    22    23    2
    23    23    24    1
    24    23    25    1
    25    25    26    1
    26    26    27    1
    27    27    28    1
    28    17    29   ar
    29     8     2   ar
    30    29    12   ar
    31    28    18    1
    32    28    26    1
    33     1    30    1
    34     1    31    1
    35     1    32    1
    36     3    33    1
    37     6    34    1
    38    11    35    1
    39    13    36    1
    40    14    37    1
    41    19    38    1
    42    24    39    1
    43    24    40    1
    44    26    41    1
    45    27    42    1
    46    27    43    1
    47    28    44    1
    48    29    45    1
