@<TRIPOS>MOLECULE
*****
 58 62 0 0 0
SMALL
GASTEIGER

@<TRIPOS>ATOM
      1 O          -1.9829   -1.3231   -0.7546 O.2     1  UNL1       -0.2755
      2 C          -2.3321   -0.6827    0.2743 C.2     1  UNL1        0.2175
      3 C          -3.6486   -0.0216    0.3679 C.3     1  UNL1        0.0283
      4 C          -4.4883   -0.2330   -0.8648 C.3     1  UNL1       -0.0166
      5 C          -5.8029    0.4486   -0.7530 C.ar    1  UNL1       -0.0075
      6 CA         -6.1137    1.7761   -0.9314 C.ar    1  UNL1        0.1284
      7 C          -5.2088    2.8358   -1.3118 C.2     1  UNL1        0.3536
      8 O          -5.6245    4.0302   -1.4456 O.2     1  UNL1       -0.2435
      9 OXT        -3.8567    2.6349   -1.5539 O.3     1  UNL1       -0.4761
     10 N          -7.4444    1.9742   -0.7052 N.ar    1  UNL1       -0.3488
     11 C          -7.9888    0.7879   -0.3848 C.ar    1  UNL1        0.0473
     12 C          -9.2910    0.4228   -0.0626 C.ar    1  UNL1       -0.0378
     13 C          -9.5581   -0.8852    0.2258 C.ar    1  UNL1       -0.0598
     14 C          -8.5837   -1.8723    0.2118 C.ar    1  UNL1       -0.0611
     15 C          -7.2967   -1.4835   -0.1117 C.ar    1  UNL1       -0.0523
     16 C          -7.0006   -0.1801   -0.4049 C.ar    1  UNL1        0.0037
     17 N          -1.4386   -0.6002    1.3586 N.am    1  UNL1       -0.2855
     18 C          -0.1484   -1.1881    1.3948 C.ar    1  UNL1        0.0339
     19 C           0.0344   -2.4923    1.8608 C.ar    1  UNL1       -0.0404
     20 C           1.2664   -3.0704    1.9065 C.ar    1  UNL1       -0.0595
     21 C           2.3616   -2.3368    1.4771 C.ar    1  UNL1       -0.0545
     22 C           2.2364   -1.0653    1.0155 C.ar    1  UNL1       -0.0232
     23 C           3.3980   -0.3119    0.5746 C.2     1  UNL1       -0.0525
     24 C           4.6403   -0.7341    0.5673 C.2     1  UNL1       -0.0357
     25 C           5.7916    0.0431    0.1190 C.ar    1  UNL1        0.0646
     26 C           5.7106    1.3352   -0.3626 C.ar    1  UNL1       -0.0357
     27 C           6.9019    1.9480   -0.7493 C.ar    1  UNL1       -0.0506
     28 C           8.1251    1.3291   -0.6715 C.ar    1  UNL1        0.0005
     29 C           9.2996    1.9598   -1.0630 C.ar    1  UNL1       -0.0512
     30 C          10.5197    1.3184   -0.9764 C.ar    1  UNL1       -0.0427
     31 C          10.5523    0.0248   -0.4884 C.ar    1  UNL1        0.0430
     32 CL         12.0784   -0.8613   -0.3482 Cl      1  UNL1       -0.0835
     33 C           9.3832   -0.5922   -0.1028 C.ar    1  UNL1       -0.0174
     34 C           8.1501    0.0369   -0.1830 C.ar    1  UNL1        0.0730
     35 N           7.0126   -0.5473    0.1860 N.ar    1  UNL1       -0.2472
     36 C           0.9644   -0.5014    0.9805 C.ar    1  UNL1       -0.0333
     37 H          -4.2383   -0.4577    1.2115 H       1  UNL1        0.0362
     38 H          -3.5222    1.0443    0.6042 H       1  UNL1        0.0362
     39 H          -3.9224    0.2362   -1.7232 H       1  UNL1        0.0319
     40 H          -4.6121   -1.2847   -1.1300 H       1  UNL1        0.0319
     41 HXT        -3.2359    3.4114   -1.8004 H       1  UNL1        0.2955
     42 H          -7.9350    2.8911   -0.7732 H       1  UNL1        0.1661
     43 H         -10.0371    1.1991   -0.0556 H       1  UNL1        0.0638
     44 H         -10.5752   -1.1720    0.4777 H       1  UNL1        0.0618
     45 H          -8.7955   -2.9048    0.4397 H       1  UNL1        0.0618
     46 H          -6.5511   -2.2619   -0.1180 H       1  UNL1        0.0624
     47 H          -1.7475   -0.0630    2.2077 H       1  UNL1        0.1548
     48 H          -0.8451   -3.0516    2.1945 H       1  UNL1        0.0636
     49 H           1.3791   -4.0988    2.2782 H       1  UNL1        0.0618
     50 H           3.3071   -2.8470    1.5372 H       1  UNL1        0.0623
     51 H           3.2740    0.7247    0.1994 H       1  UNL1        0.0624
     52 H           4.8154   -1.7462    0.9256 H       1  UNL1        0.0639
     53 H           4.7786    1.8428   -0.4356 H       1  UNL1        0.0639
     54 H           6.8919    2.9632   -1.1344 H       1  UNL1        0.0625
     55 H           9.2477    2.9677   -1.4396 H       1  UNL1        0.0625
     56 H          11.4458    1.7899   -1.2752 H       1  UNL1        0.0632
     57 H           9.3609   -1.6127    0.2882 H       1  UNL1        0.0653
     58 H           0.8992    0.5070    0.6093 H       1  UNL1        0.0642
@<TRIPOS>BOND
     1     1     2    2
     2     2     3    1
     3     3     4    1
     4     4     5    1
     5     5     6   ar
     6     6     7    1
     7     7     8    2
     8     7     9    1
     9     6    10   ar
    10    10    11   ar
    11    11    12   ar
    12    12    13   ar
    13    13    14   ar
    14    14    15   ar
    15    15    16   ar
    16     2    17   am
    17    17    18    1
    18    18    19   ar
    19    19    20   ar
    20    20    21   ar
    21    21    22   ar
    22    22    23    1
    23    23    24    2
    24    24    25    1
    25    25    26   ar
    26    26    27   ar
    27    27    28   ar
    28    28    29   ar
    29    29    30   ar
    30    30    31   ar
    31    31    32    1
    32    31    33   ar
    33    33    34   ar
    34    34    35   ar
    35    22    36   ar
    36    16     5   ar
    37    36    18   ar
    38    16    11   ar
    39    35    25   ar
    40    34    28   ar
    41     3    37    1
    42     3    38    1
    43     4    39    1
    44     4    40    1
    45     9    41    1
    46    10    42    1
    47    12    43    1
    48    13    44    1
    49    14    45    1
    50    15    46    1
    51    17    47    1
    52    19    48    1
    53    20    49    1
    54    21    50    1
    55    23    51    1
    56    24    52    1
    57    26    53    1
    58    27    54    1
    59    29    55    1
    60    30    56    1
    61    33    57    1
    62    36    58    1
