@<TRIPOS>MOLECULE
*****
 55 57 0 0 0
SMALL
GASTEIGER

@<TRIPOS>ATOM
      1 C           2.3398   -0.7916    1.6354 C.3     0  UNK0        0.0011
      2 N           1.9128   -1.2219    0.2984 N.pl3   0  UNK0       -0.3271
      3 C           2.9228   -1.8166   -0.5322 C.3     0  UNK0        0.0555
      4 C           4.0541   -0.8827   -0.7944 C.ar    0  UNK0        0.0774
      5 C           4.0972   -0.0228   -1.8503 C.ar    0  UNK0        0.0528
      6 N           5.1440    0.8070   -2.0486 N.ar    0  UNK0       -0.2324
      7 C           6.1920    0.8088   -1.1951 C.ar    0  UNK0        0.1851
      8 N           7.2589    1.5964   -1.3235 N.ar    0  UNK0       -0.1932
      9 C           8.2982    1.5921   -0.4698 C.ar    0  UNK0        0.2163
     10 N           9.3759    2.4645   -0.6965 N.pl3   0  UNK0       -0.3274
     11 N           8.2786    0.7525    0.5794 N.ar    0  UNK0       -0.1978
     12 C           7.2341   -0.0676    0.7674 C.ar    0  UNK0        0.1491
     13 N           7.1526   -0.9744    1.8512 N.pl3   0  UNK0       -0.3413
     14 C           6.1585   -0.0565   -0.1244 C.ar    0  UNK0        0.1477
     15 N           5.1075   -0.8747    0.0556 N.ar    0  UNK0       -0.2419
     16 C           0.5764   -1.0327   -0.0818 C.ar    0  UNK0        0.0298
     17 C          -0.3339   -0.4472    0.7979 C.ar    0  UNK0       -0.0399
     18 C          -1.6396   -0.2674    0.4133 C.ar    0  UNK0       -0.0479
     19 C          -2.1187   -0.6364   -0.8130 C.ar    0  UNK0        0.0368
     20 C          -3.4936   -0.4501   -1.2257 C.2     0  UNK0        0.2447
     21 O          -3.8452   -0.8317   -2.3931 O.2     0  UNK0       -0.2702
     22 N          -4.5015    0.1243   -0.4452 N.am    1  GLU1       -0.2983
     23 CA         -5.8576    0.2988   -0.8745 C.3     1  GLU1        0.1209
     24 CB         -6.8313   -0.5213   -0.1060 C.3     1  GLU1       -0.0140
     25 CG         -6.9009   -0.2887    1.3579 C.3     1  GLU1        0.0470
     26 CD         -7.2622    1.0503    1.7987 C.2     1  GLU1        0.3048
     27 OE1        -6.3902    1.9358    1.9668 O.2     1  GLU1       -0.2510
     28 OE2        -8.5793    1.4090    2.0525 O.3     1  GLU1       -0.4806
     29 C          -6.2746    1.7050   -1.0456 C.2     1  GLU1        0.3253
     30 O          -5.5539    2.7104   -0.8792 O.2     1  GLU1       -0.2489
     31 OXT        -7.5913    1.9254   -1.4271 O.3     1  GLU1       -0.4793
     32 C          -1.2112   -1.2130   -1.6726 C.ar    0  UNK0       -0.0479
     33 C           0.1243   -1.4130   -1.3196 C.ar    0  UNK0       -0.0399
     34 H           2.0834    0.2894    1.7261 H       0  UNK0        0.0428
     35 H           3.4120   -0.9253    1.8048 H       0  UNK0        0.0428
     36 H           1.7891   -1.3901    2.3984 H       0  UNK0        0.0428
     37 H           2.5880   -2.2322   -1.4736 H       0  UNK0        0.0529
     38 H           3.3398   -2.6710    0.0561 H       0  UNK0        0.0529
     39 H           3.2655   -0.0099   -2.5456 H       0  UNK0        0.0849
     40 H          10.1900    2.1402   -1.2360 H       0  UNK0        0.1452
     41 H           9.3450    3.4329   -0.3181 H       0  UNK0        0.1452
     42 H           7.8697   -1.7038    2.0232 H       0  UNK0        0.1438
     43 H           6.3419   -0.9042    2.4975 H       0  UNK0        0.1438
     44 H           0.0195   -0.1381    1.7942 H       0  UNK0        0.0636
     45 H          -2.3549    0.1932    1.1063 H       0  UNK0        0.0626
     46 H          -4.2754    0.4566    0.5203 H       1  GLU1        0.1498
     47 HA         -5.8869   -0.1272   -1.9349 H       1  GLU1        0.0614
     48 HB1        -7.8529   -0.4224   -0.5618 H       1  GLU1        0.0294
     49 HB2        -6.5649   -1.6041   -0.2890 H       1  GLU1        0.0294
     50 HG1        -5.9255   -0.5454    1.8593 H       1  GLU1        0.0378
     51 HG2        -7.6189   -1.0316    1.8008 H       1  GLU1        0.0378
     52 HE2        -8.8308    2.3758    2.1271 H       1  GLU1        0.2951
     53 HXT        -7.9747    2.8407   -1.6025 H       1  GLU1        0.2951
     54 H          -1.5517   -1.5170   -2.6485 H       0  UNK0        0.0626
     55 H           0.7503   -1.8769   -2.0801 H       0  UNK0        0.0636
@<TRIPOS>BOND
     1     1     2    1
     2     2     3    1
     3     3     4    1
     4     4     5   ar
     5     5     6   ar
     6     6     7   ar
     7     7     8   ar
     8     8     9   ar
     9     9    10    1
    10     9    11   ar
    11    11    12   ar
    12    12    13    1
    13    12    14   ar
    14    14    15   ar
    15     2    16    1
    16    16    17   ar
    17    17    18   ar
    18    18    19   ar
    19    19    20    1
    20    20    21    2
    21    20    22   am
    22    22    23    1
    23    23    24    1
    24    24    25    1
    25    25    26    1
    26    26    27    2
    27    26    28    1
    28    23    29    1
    29    29    30    2
    30    29    31    1
    31    19    32   ar
    32    32    33   ar
    33    15     4   ar
    34    33    16   ar
    35    14     7   ar
    36     1    34    1
    37     1    35    1
    38     1    36    1
    39     3    37    1
    40     3    38    1
    41     5    39    1
    42    10    40    1
    43    10    41    1
    44    13    42    1
    45    13    43    1
    46    17    44    1
    47    18    45    1
    48    22    46    1
    49    23    47    1
    50    24    48    1
    51    24    49    1
    52    25    50    1
    53    25    51    1
    54    28    52    1
    55    31    53    1
    56    32    54    1
    57    33    55    1
