
     RDKit          3D

 55 57  0  0  0  0  0  0  0  0999 V2000
    2.3398   -0.7916    1.6354 C   0  0  0  0  0  0  0  0  0  0  0  0
    1.9128   -1.2219    0.2984 N   0  0  0  0  0  0  0  0  0  0  0  0
    2.9228   -1.8166   -0.5322 C   0  0  0  0  0  0  0  0  0  0  0  0
    4.0541   -0.8827   -0.7944 C   0  0  0  0  0  0  0  0  0  0  0  0
    4.0972   -0.0228   -1.8503 C   0  0  0  0  0  0  0  0  0  0  0  0
    5.1440    0.8070   -2.0486 N   0  0  0  0  0  0  0  0  0  0  0  0
    6.1920    0.8088   -1.1951 C   0  0  0  0  0  0  0  0  0  0  0  0
    7.2589    1.5964   -1.3235 N   0  0  0  0  0  0  0  0  0  0  0  0
    8.2982    1.5921   -0.4698 C   0  0  0  0  0  0  0  0  0  0  0  0
    9.3759    2.4645   -0.6965 N   0  0  0  0  0  0  0  0  0  0  0  0
    8.2786    0.7525    0.5794 N   0  0  0  0  0  0  0  0  0  0  0  0
    7.2341   -0.0676    0.7674 C   0  0  0  0  0  0  0  0  0  0  0  0
    7.1526   -0.9744    1.8512 N   0  0  0  0  0  0  0  0  0  0  0  0
    6.1585   -0.0565   -0.1244 C   0  0  0  0  0  0  0  0  0  0  0  0
    5.1075   -0.8747    0.0556 N   0  0  0  0  0  0  0  0  0  0  0  0
    0.5764   -1.0327   -0.0818 C   0  0  0  0  0  0  0  0  0  0  0  0
   -0.3339   -0.4472    0.7979 C   0  0  0  0  0  0  0  0  0  0  0  0
   -1.6396   -0.2674    0.4133 C   0  0  0  0  0  0  0  0  0  0  0  0
   -2.1187   -0.6364   -0.8130 C   0  0  0  0  0  0  0  0  0  0  0  0
   -3.4936   -0.4501   -1.2257 C   0  0  0  0  0  0  0  0  0  0  0  0
   -3.8452   -0.8317   -2.3931 O   0  0  0  0  0  0  0  0  0  0  0  0
   -4.5015    0.1243   -0.4452 N   0  0  0  0  0  0  0  0  0  0  0  0
   -5.8576    0.2988   -0.8745 C   0  0  1  0  0  0  0  0  0  0  0  0
   -6.8313   -0.5213   -0.1060 C   0  0  0  0  0  0  0  0  0  0  0  0
   -6.9009   -0.2887    1.3579 C   0  0  0  0  0  0  0  0  0  0  0  0
   -7.2622    1.0503    1.7987 C   0  0  0  0  0  0  0  0  0  0  0  0
   -6.3902    1.9358    1.9668 O   0  0  0  0  0  0  0  0  0  0  0  0
   -8.5793    1.4090    2.0525 O   0  0  0  0  0  0  0  0  0  0  0  0
   -6.2746    1.7050   -1.0456 C   0  0  0  0  0  0  0  0  0  0  0  0
   -5.5539    2.7104   -0.8792 O   0  0  0  0  0  0  0  0  0  0  0  0
   -7.5913    1.9254   -1.4271 O   0  0  0  0  0  0  0  0  0  0  0  0
   -1.2112   -1.2130   -1.6726 C   0  0  0  0  0  0  0  0  0  0  0  0
    0.1243   -1.4130   -1.3196 C   0  0  0  0  0  0  0  0  0  0  0  0
    2.0834    0.2894    1.7261 H   0  0  0  0  0  0  0  0  0  0  0  0
    3.4120   -0.9253    1.8048 H   0  0  0  0  0  0  0  0  0  0  0  0
    1.7891   -1.3901    2.3984 H   0  0  0  0  0  0  0  0  0  0  0  0
    2.5880   -2.2322   -1.4736 H   0  0  0  0  0  0  0  0  0  0  0  0
    3.3398   -2.6710    0.0561 H   0  0  0  0  0  0  0  0  0  0  0  0
    3.2655   -0.0099   -2.5456 H   0  0  0  0  0  0  0  0  0  0  0  0
   10.1900    2.1402   -1.2360 H   0  0  0  0  0  0  0  0  0  0  0  0
    9.3450    3.4329   -0.3181 H   0  0  0  0  0  0  0  0  0  0  0  0
    7.8697   -1.7038    2.0232 H   0  0  0  0  0  0  0  0  0  0  0  0
    6.3419   -0.9042    2.4975 H   0  0  0  0  0  0  0  0  0  0  0  0
    0.0195   -0.1381    1.7942 H   0  0  0  0  0  0  0  0  0  0  0  0
   -2.3549    0.1932    1.1063 H   0  0  0  0  0  0  0  0  0  0  0  0
   -4.2754    0.4566    0.5203 H   0  0  0  0  0  0  0  0  0  0  0  0
   -5.8869   -0.1272   -1.9349 H   0  0  0  0  0  0  0  0  0  0  0  0
   -7.8529   -0.4224   -0.5618 H   0  0  0  0  0  0  0  0  0  0  0  0
   -6.5649   -1.6041   -0.2890 H   0  0  0  0  0  0  0  0  0  0  0  0
   -5.9255   -0.5454    1.8593 H   0  0  0  0  0  0  0  0  0  0  0  0
   -7.6189   -1.0316    1.8008 H   0  0  0  0  0  0  0  0  0  0  0  0
   -8.8308    2.3758    2.1271 H   0  0  0  0  0  0  0  0  0  0  0  0
   -7.9747    2.8407   -1.6025 H   0  0  0  0  0  0  0  0  0  0  0  0
   -1.5517   -1.5170   -2.6485 H   0  0  0  0  0  0  0  0  0  0  0  0
    0.7503   -1.8769   -2.0801 H   0  0  0  0  0  0  0  0  0  0  0  0
  1  2  1  0
  2  3  1  0
  3  4  1  0
  4  5  2  0
  5  6  1  0
  6  7  2  0
  7  8  1  0
  8  9  2  0
  9 10  1  0
  9 11  1  0
 11 12  2  0
 12 13  1  0
 12 14  1  0
 14 15  2  0
  2 16  1  0
 16 17  2  0
 17 18  1  0
 18 19  2  0
 19 20  1  0
 20 21  2  0
 20 22  1  0
 22 23  1  0
 23 24  1  0
 24 25  1  0
 25 26  1  0
 26 27  2  0
 26 28  1  0
 23 29  1  0
 29 30  2  0
 29 31  1  0
 19 32  1  0
 32 33  2  0
 15  4  1  0
 33 16  1  0
 14  7  1  0
  1 34  1  0
  1 35  1  0
  1 36  1  0
  3 37  1  0
  3 38  1  0
  5 39  1  0
 10 40  1  0
 10 41  1  0
 13 42  1  0
 13 43  1  0
 17 44  1  0
 18 45  1  0
 22 46  1  0
 23 47  1  6
 24 48  1  0
 24 49  1  0
 25 50  1  0
 25 51  1  0
 28 52  1  0
 31 53  1  0
 32 54  1  0
 33 55  1  0
M  END
$$$$
