
     RDKit          3D

 63 66  0  0  0  0  0  0  0  0999 V2000
    1.5913   -0.1073   -2.2958 O   0  0  0  0  0  0  0  0  0  0  0  0
    1.9020    0.9233   -1.6480 C   0  0  0  0  0  0  0  0  0  0  0  0
    3.2828    1.0816   -1.0640 C   0  0  0  0  0  0  0  0  0  0  0  0
    4.0707   -0.1402   -1.4118 C   0  0  0  0  0  0  0  0  0  0  0  0
    5.4825   -0.0994   -0.8792 C   0  0  0  0  0  0  0  0  0  0  0  0
    5.4751    0.0132    0.6301 C   0  0  0  0  0  0  0  0  0  0  0  0
    6.8683    0.0560    1.1988 C   0  0  0  0  0  0  0  0  0  0  0  0
    7.5567   -1.2271    0.7952 C   0  0  0  0  0  0  0  0  0  0  0  0
    8.8930   -1.2873    1.5172 C   0  0  0  0  0  0  0  0  0  0  0  0
    8.4494   -1.2802    3.3071 S   0  0  0  0  0  0  0  0  0  0  0  0
    6.6705   -0.0760    3.0278 S   0  0  0  0  0  0  0  0  0  0  0  0
    0.9790    1.9787   -1.4356 N   0  0  0  0  0  0  0  0  0  0  0  0
   -0.3483    1.9135   -1.9500 C   0  0  0  0  0  0  0  0  0  0  0  0
   -1.1567    0.7301   -1.4125 C   0  0  0  0  0  0  0  0  0  0  0  0
   -1.2584    0.8271    0.0792 C   0  0  0  0  0  0  0  0  0  0  0  0
   -2.0308   -0.2160    0.6905 N   0  0  0  0  0  0  0  0  0  0  0  0
   -3.3954   -0.4539    0.3594 C   0  0  0  0  0  0  0  0  0  0  0  0
   -4.4038    0.2803    0.9964 C   0  0  0  0  0  0  0  0  0  0  0  0
   -5.7180    0.0481    0.6849 C   0  0  0  0  0  0  0  0  0  0  0  0
   -6.0667   -0.8866   -0.2357 N   0  0  0  0  0  0  0  0  0  0  0  0
   -5.0965   -1.5891   -0.8426 C   0  0  0  0  0  0  0  0  0  0  0  0
   -5.4866   -2.5556   -1.7697 C   0  0  0  0  0  0  0  0  0  0  0  0
   -4.5147   -3.3077   -2.3960 C   0  0  0  0  0  0  0  0  0  0  0  0
   -5.0520   -4.5203   -3.5637 Cl  0  0  0  0  0  0  0  0  0  0  0  0
   -3.1916   -3.1213   -2.1233 C   0  0  0  0  0  0  0  0  0  0  0  0
   -2.7869   -2.1624   -1.2028 C   0  0  0  0  0  0  0  0  0  0  0  0
   -3.7398   -1.3947   -0.5636 C   0  0  0  0  0  0  0  0  0  0  0  0
   -6.8336    0.7947    1.3290 C   0  0  0  0  0  0  0  0  0  0  0  0
   -6.2864    2.0039    2.0196 C   0  0  0  0  0  0  0  0  0  0  0  0
   -5.1422    1.5628    2.9122 C   0  0  0  0  0  0  0  0  0  0  0  0
   -3.9685    1.2870    1.9934 C   0  0  0  0  0  0  0  0  0  0  0  0
    3.1770    1.2705    0.0126 H   0  0  0  0  0  0  0  0  0  0  0  0
    3.6938    2.0088   -1.5126 H   0  0  0  0  0  0  0  0  0  0  0  0
    4.0677   -0.2614   -2.5048 H   0  0  0  0  0  0  0  0  0  0  0  0
    3.5472   -1.0206   -0.9620 H   0  0  0  0  0  0  0  0  0  0  0  0
    5.9985    0.7616   -1.3504 H   0  0  0  0  0  0  0  0  0  0  0  0
    5.9888   -1.0060   -1.2329 H   0  0  0  0  0  0  0  0  0  0  0  0
    4.9720   -0.8800    1.0531 H   0  0  0  0  0  0  0  0  0  0  0  0
    4.9692    0.9464    0.9207 H   0  0  0  0  0  0  0  0  0  0  0  0
    7.4309    0.9493    0.9238 H   0  0  0  0  0  0  0  0  0  0  0  0
    7.7794   -1.1578   -0.2721 H   0  0  0  0  0  0  0  0  0  0  0  0
    6.9259   -2.0752    1.0791 H   0  0  0  0  0  0  0  0  0  0  0  0
    9.3549   -2.2353    1.2490 H   0  0  0  0  0  0  0  0  0  0  0  0
    9.4874   -0.3908    1.3195 H   0  0  0  0  0  0  0  0  0  0  0  0
    1.2704    2.8282   -0.8902 H   0  0  0  0  0  0  0  0  0  0  0  0
   -0.9310    2.8122   -1.7077 H   0  0  0  0  0  0  0  0  0  0  0  0
   -0.3836    1.8039   -3.0731 H   0  0  0  0  0  0  0  0  0  0  0  0
   -0.6578   -0.2125   -1.7611 H   0  0  0  0  0  0  0  0  0  0  0  0
   -2.1614    0.7809   -1.8740 H   0  0  0  0  0  0  0  0  0  0  0  0
   -0.2257    0.8368    0.5061 H   0  0  0  0  0  0  0  0  0  0  0  0
   -1.7083    1.8320    0.3203 H   0  0  0  0  0  0  0  0  0  0  0  0
   -1.5632   -0.8317    1.4171 H   0  0  0  0  0  0  0  0  0  0  0  0
   -6.5501   -2.7004   -1.9835 H   0  0  0  0  0  0  0  0  0  0  0  0
   -2.4649   -3.7352   -2.6385 H   0  0  0  0  0  0  0  0  0  0  0  0
   -1.7407   -2.0588   -0.9955 H   0  0  0  0  0  0  0  0  0  0  0  0
   -7.2795    0.1398    2.1319 H   0  0  0  0  0  0  0  0  0  0  0  0
   -7.6107    1.0593    0.5717 H   0  0  0  0  0  0  0  0  0  0  0  0
   -7.0377    2.4711    2.6768 H   0  0  0  0  0  0  0  0  0  0  0  0
   -5.9574    2.7765    1.2910 H   0  0  0  0  0  0  0  0  0  0  0  0
   -5.4070    0.6088    3.3889 H   0  0  0  0  0  0  0  0  0  0  0  0
   -4.8725    2.3670    3.6186 H   0  0  0  0  0  0  0  0  0  0  0  0
   -3.1099    0.9670    2.5990 H   0  0  0  0  0  0  0  0  0  0  0  0
   -3.7464    2.2704    1.4917 H   0  0  0  0  0  0  0  0  0  0  0  0
  1  2  2  0
  2  3  1  0
  3  4  1  0
  4  5  1  0
  5  6  1  0
  6  7  1  0
  7  8  1  0
  8  9  1  0
  9 10  1  0
 10 11  1  0
  2 12  1  0
 12 13  1  0
 13 14  1  0
 14 15  1  0
 15 16  1  0
 16 17  1  0
 17 18  2  0
 18 19  1  0
 19 20  2  0
 20 21  1  0
 21 22  2  0
 22 23  1  0
 23 24  1  0
 23 25  2  0
 25 26  1  0
 26 27  2  0
 19 28  1  0
 28 29  1  0
 29 30  1  0
 30 31  1  0
 11  7  1  0
 27 17  1  0
 31 18  1  0
 27 21  1  0
  3 32  1  0
  3 33  1  0
  4 34  1  0
  4 35  1  0
  5 36  1  0
  5 37  1  0
  6 38  1  0
  6 39  1  0
  7 40  1  0
  8 41  1  0
  8 42  1  0
  9 43  1  0
  9 44  1  0
 12 45  1  0
 13 46  1  0
 13 47  1  0
 14 48  1  0
 14 49  1  0
 15 50  1  0
 15 51  1  0
 16 52  1  0
 22 53  1  0
 25 54  1  0
 26 55  1  0
 28 56  1  0
 28 57  1  0
 29 58  1  0
 29 59  1  0
 30 60  1  0
 30 61  1  0
 31 62  1  0
 31 63  1  0
M  END
$$$$
