@<TRIPOS>MOLECULE
*****
 63 66 0 0 0
SMALL
GASTEIGER

@<TRIPOS>ATOM
      1 O           1.5913   -0.1073   -2.2958 O.2     1  UNL1       -0.2758
      2 C           1.9020    0.9233   -1.6480 C.2     1  UNL1        0.2130
      3 C           3.2828    1.0816   -1.0640 C.3     1  UNL1        0.0240
      4 C           4.0707   -0.1402   -1.4118 C.3     1  UNL1       -0.0448
      5 C           5.4825   -0.0994   -0.8792 C.3     1  UNL1       -0.0516
      6 C           5.4751    0.0132    0.6301 C.3     1  UNL1       -0.0403
      7 C           6.8683    0.0560    1.1988 C.3     1  UNL1        0.0162
      8 C           7.5567   -1.2271    0.7952 C.3     1  UNL1       -0.0305
      9 C           8.8930   -1.2873    1.5172 C.3     1  UNL1        0.0050
     10 S           8.4494   -1.2802    3.3071 S.3     1  UNL1       -0.0928
     11 S           6.6705   -0.0760    3.0278 S.3     1  UNL1       -0.0897
     12 N           0.9790    1.9787   -1.4356 N.am    1  UNL1       -0.3153
     13 C          -0.3483    1.9135   -1.9500 C.3     1  UNL1        0.0130
     14 C          -1.1567    0.7301   -1.4125 C.3     1  UNL1       -0.0218
     15 C          -1.2584    0.8271    0.0792 C.3     1  UNL1        0.0106
     16 N          -2.0308   -0.2160    0.6905 N.pl3   1  UNL1       -0.3430
     17 C          -3.3954   -0.4539    0.3594 C.ar    1  UNL1        0.0413
     18 C          -4.4038    0.2803    0.9964 C.ar    1  UNL1       -0.0047
     19 C          -5.7180    0.0481    0.6849 C.ar    1  UNL1        0.0469
     20 N          -6.0667   -0.8866   -0.2357 N.ar    1  UNL1       -0.2512
     21 C          -5.0965   -1.5891   -0.8426 C.ar    1  UNL1        0.0744
     22 C          -5.4866   -2.5556   -1.7697 C.ar    1  UNL1       -0.0173
     23 C          -4.5147   -3.3077   -2.3960 C.ar    1  UNL1        0.0430
     24 CL         -5.0520   -4.5203   -3.5637 Cl      1  UNL1       -0.0835
     25 C          -3.1916   -3.1213   -2.1233 C.ar    1  UNL1       -0.0426
     26 C          -2.7869   -2.1624   -1.2028 C.ar    1  UNL1       -0.0494
     27 C          -3.7398   -1.3947   -0.5636 C.ar    1  UNL1        0.0216
     28 C          -6.8336    0.7947    1.3290 C.3     1  UNL1       -0.0101
     29 C          -6.2864    2.0039    2.0196 C.3     1  UNL1       -0.0473
     30 C          -5.1422    1.5628    2.9122 C.3     1  UNL1       -0.0486
     31 C          -3.9685    1.2870    1.9934 C.3     1  UNL1       -0.0242
     32 H           3.1770    1.2705    0.0126 H       1  UNL1        0.0358
     33 H           3.6938    2.0088   -1.5126 H       1  UNL1        0.0358
     34 H           4.0677   -0.2614   -2.5048 H       1  UNL1        0.0270
     35 H           3.5472   -1.0206   -0.9620 H       1  UNL1        0.0270
     36 H           5.9985    0.7616   -1.3504 H       1  UNL1        0.0266
     37 H           5.9888   -1.0060   -1.2329 H       1  UNL1        0.0266
     38 H           4.9720   -0.8800    1.0531 H       1  UNL1        0.0276
     39 H           4.9692    0.9464    0.9207 H       1  UNL1        0.0276
     40 H           7.4309    0.9493    0.9238 H       1  UNL1        0.0421
     41 H           7.7794   -1.1578   -0.2721 H       1  UNL1        0.0284
     42 H           6.9259   -2.0752    1.0791 H       1  UNL1        0.0284
     43 H           9.3549   -2.2353    1.2490 H       1  UNL1        0.0385
     44 H           9.4874   -0.3908    1.3195 H       1  UNL1        0.0385
     45 H           1.2704    2.8282   -0.8902 H       1  UNL1        0.1487
     46 H          -0.9310    2.8122   -1.7077 H       1  UNL1        0.0462
     47 H          -0.3836    1.8039   -3.0731 H       1  UNL1        0.0462
     48 H          -0.6578   -0.2125   -1.7611 H       1  UNL1        0.0295
     49 H          -2.1614    0.7809   -1.8740 H       1  UNL1        0.0295
     50 H          -0.2257    0.8368    0.5061 H       1  UNL1        0.0462
     51 H          -1.7083    1.8320    0.3203 H       1  UNL1        0.0462
     52 H          -1.5632   -0.8317    1.4171 H       1  UNL1        0.1461
     53 H          -6.5501   -2.7004   -1.9835 H       1  UNL1        0.0653
     54 H          -2.4649   -3.7352   -2.6385 H       1  UNL1        0.0632
     55 H          -1.7407   -2.0588   -0.9955 H       1  UNL1        0.0625
     56 H          -7.2795    0.1398    2.1319 H       1  UNL1        0.0328
     57 H          -7.6107    1.0593    0.5717 H       1  UNL1        0.0328
     58 H          -7.0377    2.4711    2.6768 H       1  UNL1        0.0269
     59 H          -5.9574    2.7765    1.2910 H       1  UNL1        0.0269
     60 H          -5.4070    0.6088    3.3889 H       1  UNL1        0.0269
     61 H          -4.8725    2.3670    3.6186 H       1  UNL1        0.0269
     62 H          -3.1099    0.9670    2.5990 H       1  UNL1        0.0314
     63 H          -3.7464    2.2704    1.4917 H       1  UNL1        0.0314
@<TRIPOS>BOND
     1     1     2    2
     2     2     3    1
     3     3     4    1
     4     4     5    1
     5     5     6    1
     6     6     7    1
     7     7     8    1
     8     8     9    1
     9     9    10    1
    10    10    11    1
    11     2    12   am
    12    12    13    1
    13    13    14    1
    14    14    15    1
    15    15    16    1
    16    16    17    1
    17    17    18   ar
    18    18    19   ar
    19    19    20   ar
    20    20    21   ar
    21    21    22   ar
    22    22    23   ar
    23    23    24    1
    24    23    25   ar
    25    25    26   ar
    26    26    27   ar
    27    19    28    1
    28    28    29    1
    29    29    30    1
    30    30    31    1
    31    11     7    1
    32    27    17   ar
    33    31    18    1
    34    27    21   ar
    35     3    32    1
    36     3    33    1
    37     4    34    1
    38     4    35    1
    39     5    36    1
    40     5    37    1
    41     6    38    1
    42     6    39    1
    43     7    40    1
    44     8    41    1
    45     8    42    1
    46     9    43    1
    47     9    44    1
    48    12    45    1
    49    13    46    1
    50    13    47    1
    51    14    48    1
    52    14    49    1
    53    15    50    1
    54    15    51    1
    55    16    52    1
    56    22    53    1
    57    25    54    1
    58    26    55    1
    59    28    56    1
    60    28    57    1
    61    29    58    1
    62    29    59    1
    63    30    60    1
    64    30    61    1
    65    31    62    1
    66    31    63    1
