@<TRIPOS>MOLECULE
*****
 54 59 0 0 0
SMALL
GASTEIGER

@<TRIPOS>ATOM
      1 C           3.2021    4.3868   -0.4791 C.3     1  UNL1       -0.0374
      2 C           2.9684    3.0058   -0.0142 C.ar    1  UNL1       -0.0164
      3 C           1.6816    2.4776    0.0688 C.ar    1  UNL1       -0.0161
      4 C           1.4367    1.2072    0.4941 C.ar    1  UNL1        0.1313
      5 N           0.1092    0.6450    0.5853 N.am    1  UNL1       -0.2388
      6 C          -1.0714    1.3150    0.2526 C.2     1  UNL1        0.2548
      7 O          -1.2149    2.5052   -0.2038 O.2     1  UNL1       -0.2695
      8 C          -2.1894    0.3891    0.5253 C.ar    1  UNL1        0.0636
      9 C          -3.5595    0.3063    0.4880 C.ar    1  UNL1       -0.0119
     10 C          -4.5209    1.3134    0.0119 C.3     1  UNL1        0.0113
     11 C          -5.3986    0.8145   -1.1393 C.3     1  UNL1        0.0040
     12 N          -5.3213    2.1991   -1.6457 N.3     1  UNL1       -0.3147
     13 C          -3.9660    2.2793   -1.0329 C.3     1  UNL1        0.0040
     14 C          -3.8587   -0.9695    0.9676 C.ar    1  UNL1        0.0089
     15 N          -2.7176   -1.5955    1.2664 N.ar    1  UNL1       -0.3508
     16 C          -2.5642   -2.9329    1.7917 C.3     1  UNL1        0.0117
     17 C          -1.6630   -0.7823    1.0037 C.ar    1  UNL1        0.0565
     18 C          -0.1963   -0.6698    1.0272 C.3     1  UNL1        0.0985
     19 C           0.3993   -1.7349    0.1878 C.ar    1  UNL1       -0.0207
     20 C           1.0017   -2.7990    0.8212 C.ar    1  UNL1       -0.0550
     21 C           1.5867   -3.8435    0.1440 C.ar    1  UNL1       -0.0431
     22 C           1.5777   -3.8396   -1.2332 C.ar    1  UNL1        0.0410
     23 CL          2.3093   -5.1466   -2.1616 Cl      1  UNL1       -0.0835
     24 C           0.9750   -2.7751   -1.8715 C.ar    1  UNL1       -0.0431
     25 C           0.3892   -1.7289   -1.1742 C.ar    1  UNL1       -0.0550
     26 N           2.5044    0.4314    0.8501 N.ar    1  UNL1       -0.2108
     27 C           3.7631    0.8970    0.7868 C.ar    1  UNL1        0.1803
     28 C           4.0040    2.1839    0.3554 C.ar    1  UNL1        0.1345
     29 N           5.3527    2.3307    0.4108 N.ar    1  UNL1       -0.1276
     30 N           5.8768    1.2032    0.8468 N.ar    1  UNL1       -0.0635
     31 N           4.9471    0.3030    1.0884 N.ar    1  UNL1       -0.2297
     32 C           5.1356   -1.0692    1.5836 C.3     1  UNL1        0.0341
     33 H           2.7513    5.1462    0.1766 H       1  UNL1        0.0278
     34 H           2.7503    4.4591   -1.5009 H       1  UNL1        0.0278
     35 H           4.2955    4.5510   -0.5555 H       1  UNL1        0.0278
     36 H           0.8841    3.1528   -0.2301 H       1  UNL1        0.0655
     37 H          -5.1183    1.8336    0.7853 H       1  UNL1        0.0374
     38 H          -4.9532    0.0577   -1.7788 H       1  UNL1        0.0430
     39 H          -6.4270    0.6512   -0.7596 H       1  UNL1        0.0430
     40 H          -5.2549    2.2378   -2.6772 H       1  UNL1        0.1220
     41 H          -3.7510    3.2990   -0.6720 H       1  UNL1        0.0430
     42 H          -3.2536    1.8606   -1.7481 H       1  UNL1        0.0430
     43 H          -4.8812   -1.3223    1.0540 H       1  UNL1        0.0812
     44 H          -1.7964   -3.5094    1.2211 H       1  UNL1        0.0456
     45 H          -3.5080   -3.5217    1.6834 H       1  UNL1        0.0456
     46 H          -2.3462   -2.9263    2.8901 H       1  UNL1        0.0456
     47 H           0.1189   -0.8359    2.0991 H       1  UNL1        0.0620
     48 H           1.0312   -2.8419    1.9202 H       1  UNL1        0.0621
     49 H           2.0615   -4.6821    0.6459 H       1  UNL1        0.0632
     50 H           0.9826   -2.7981   -2.9541 H       1  UNL1        0.0632
     51 H          -0.0759   -0.9077   -1.6855 H       1  UNL1        0.0621
     52 H           4.1367   -1.5555    1.6028 H       1  UNL1        0.0474
     53 H           5.6073   -1.0838    2.5699 H       1  UNL1        0.0474
     54 H           5.7675   -1.5712    0.7966 H       1  UNL1        0.0474
@<TRIPOS>BOND
     1     1     2    1
     2     2     3   ar
     3     3     4   ar
     4     4     5    1
     5     5     6   am
     6     6     7    2
     7     6     8    1
     8     8     9   ar
     9     9    10    1
    10    10    11    1
    11    11    12    1
    12    12    13    1
    13     9    14   ar
    14    14    15   ar
    15    15    16    1
    16    15    17   ar
    17    17    18    1
    18    18    19    1
    19    19    20   ar
    20    20    21   ar
    21    21    22   ar
    22    22    23    1
    23    22    24   ar
    24    24    25   ar
    25     4    26   ar
    26    26    27   ar
    27    27    28   ar
    28    28    29   ar
    29    29    30   ar
    30    30    31   ar
    31    31    32    1
    32    28     2   ar
    33    18     5    1
    34    25    19   ar
    35    31    27   ar
    36    17     8   ar
    37    13    10    1
    38     1    33    1
    39     1    34    1
    40     1    35    1
    41     3    36    1
    42    10    37    1
    43    11    38    1
    44    11    39    1
    45    12    40    1
    46    13    41    1
    47    13    42    1
    48    14    43    1
    49    16    44    1
    50    16    45    1
    51    16    46    1
    52    18    47    1
    53    20    48    1
    54    21    49    1
    55    24    50    1
    56    25    51    1
    57    32    52    1
    58    32    53    1
    59    32    54    1
