
     RDKit          3D

 20 20  0  0  0  0  0  0  0  0999 V2000
   -0.4965    2.9512    0.2181 N   0  0  0  0  0  0  0  0  0  0  0  0
   -0.2555    1.5589    0.0447 C   0  0  0  0  0  0  0  0  0  0  0  0
   -1.2951    0.6684    0.2364 C   0  0  0  0  0  0  0  0  0  0  0  0
   -3.0387    1.2682    0.7266 Br  0  0  0  0  0  0  0  0  0  0  0  0
   -1.0558   -0.6821    0.0668 C   0  0  0  0  0  0  0  0  0  0  0  0
   -2.1251   -1.6743    0.2578 C   0  0  0  0  0  0  0  0  0  0  0  0
   -3.4211   -1.3251    0.6144 O   0  0  0  0  0  0  0  0  0  0  0  0
   -1.9692   -2.9276    0.1172 O   0  0  0  0  0  0  0  0  0  0  0  0
    0.1823   -1.1756   -0.2867 C   0  0  0  0  0  0  0  0  0  0  0  0
    0.5826   -3.0114   -0.5362 Br  0  0  0  0  0  0  0  0  0  0  0  0
    1.1662   -0.2219   -0.4592 C   0  0  0  0  0  0  0  0  0  0  0  0
    2.5136   -0.6974   -0.8389 C   0  0  0  0  0  0  0  0  0  0  0  0
    3.2540   -0.9473    0.3295 O   0  0  0  0  0  0  0  0  0  0  0  0
    3.1646   -0.9343   -1.9037 O   0  0  0  0  0  0  0  0  0  0  0  0
    1.0178    1.1408   -0.3117 C   0  0  0  0  0  0  0  0  0  0  0  0
    2.4697    2.3467   -0.5824 Br  0  0  0  0  0  0  0  0  0  0  0  0
   -0.0579    3.2052    1.1389 H   0  0  0  0  0  0  0  0  0  0  0  0
   -1.0097    3.4897   -0.4887 H   0  0  0  0  0  0  0  0  0  0  0  0
   -3.8885   -1.8666    1.3566 H   0  0  0  0  0  0  0  0  0  0  0  0
    4.2625   -1.1653    0.3006 H   0  0  0  0  0  0  0  0  0  0  0  0
  1  2  1  0
  2  3  2  0
  3  4  1  0
  3  5  1  0
  5  6  1  0
  6  7  1  0
  6  8  2  0
  5  9  2  0
  9 10  1  0
  9 11  1  0
 11 12  1  0
 12 13  1  0
 12 14  2  0
 11 15  2  0
 15 16  1  0
 15  2  1  0
  1 17  1  0
  1 18  1  0
  7 19  1  0
 13 20  1  0
M  END
$$$$
