@<TRIPOS>MOLECULE
*****
 20 20 0 0 0
SMALL
GASTEIGER

@<TRIPOS>ATOM
      1 N          -0.4965    2.9512    0.2181 N.pl3   1  UNL1       -0.3562
      2 C          -0.2555    1.5589    0.0447 C.ar    1  UNL1        0.0545
      3 C          -1.2951    0.6684    0.2364 C.ar    1  UNL1        0.0546
      4 BR         -3.0387    1.2682    0.7266 Br      1  UNL1       -0.0475
      5 C          -1.0558   -0.6821    0.0668 C.ar    1  UNL1        0.0893
      6 C          -2.1251   -1.6743    0.2578 C.2     1  UNL1        0.3390
      7 O          -3.4211   -1.3251    0.6144 O.3     1  UNL1       -0.4771
      8 O          -1.9692   -2.9276    0.1172 O.2     1  UNL1       -0.2451
      9 C           0.1823   -1.1756   -0.2867 C.ar    1  UNL1        0.0480
     10 BR          0.5826   -3.0114   -0.5362 Br      1  UNL1       -0.0485
     11 C           1.1662   -0.2219   -0.4592 C.ar    1  UNL1        0.0893
     12 C           2.5136   -0.6974   -0.8389 C.2     1  UNL1        0.3390
     13 O           3.2540   -0.9473    0.3295 O.3     1  UNL1       -0.4771
     14 O           3.1646   -0.9343   -1.9037 O.2     1  UNL1       -0.2451
     15 C           1.0178    1.1408   -0.3117 C.ar    1  UNL1        0.0546
     16 BR          2.4697    2.3467   -0.5824 Br      1  UNL1       -0.0475
     17 H          -0.0579    3.2052    1.1389 H       1  UNL1        0.1424
     18 H          -1.0097    3.4897   -0.4887 H       1  UNL1        0.1424
     19 H          -3.8885   -1.8666    1.3566 H       1  UNL1        0.2954
     20 H           4.2625   -1.1653    0.3006 H       1  UNL1        0.2954
@<TRIPOS>BOND
     1     1     2    1
     2     2     3   ar
     3     3     4    1
     4     3     5   ar
     5     5     6    1
     6     6     7    1
     7     6     8    2
     8     5     9   ar
     9     9    10    1
    10     9    11   ar
    11    11    12    1
    12    12    13    1
    13    12    14    2
    14    11    15   ar
    15    15    16    1
    16    15     2   ar
    17     1    17    1
    18     1    18    1
    19     7    19    1
    20    13    20    1
