@<TRIPOS>MOLECULE
*****
 55 57 0 0 0
SMALL
GASTEIGER

@<TRIPOS>ATOM
      1 C          -4.8215   -2.5790    0.8326 C.3     1  UNL1       -0.0131
      2 N          -4.0565   -2.1930   -0.3387 N.3     1  UNL1       -0.3083
      3 C          -4.9563   -1.4724   -1.2229 C.3     1  UNL1       -0.0131
      4 C          -2.9587   -1.3520    0.1051 C.3     1  UNL1       -0.0008
      5 C          -2.1180   -0.9085   -1.0384 C.3     1  UNL1       -0.0291
      6 C          -0.9548   -0.0345   -0.6949 C.3     1  UNL1        0.0127
      7 C          -1.3913    1.2228   -0.0317 C.ar    1  UNL1       -0.0397
      8 C          -1.6616    2.4029   -0.7217 C.ar    1  UNL1       -0.0580
      9 C          -2.0705    3.5615   -0.0868 C.ar    1  UNL1       -0.0615
     10 C          -2.2218    3.5745    1.2624 C.ar    1  UNL1       -0.0617
     11 C          -1.9683    2.4337    2.0012 C.ar    1  UNL1       -0.0615
     12 C          -1.5634    1.2997    1.3359 C.ar    1  UNL1       -0.0580
     13 C          -0.3196    0.3538   -2.0196 C.3     1  UNL1       -0.0405
     14 C           0.2539   -0.8385   -2.7627 C.3     1  UNL1       -0.0362
     15 C           1.0389   -1.7581   -1.8723 C.3     1  UNL1        0.0162
     16 N           1.2889   -1.0314   -0.6442 N.am    1  UNL1       -0.2845
     17 C           2.6097   -0.6954   -0.3086 C.2     1  UNL1        0.3065
     18 O           3.5399   -1.0353   -1.0851 O.2     1  UNL1       -0.2523
     19 N           3.0117    0.0110    0.8552 N.am    1  UNL1       -0.2693
     20 C           4.3562    0.3406    1.1750 C.ar    1  UNL1        0.0349
     21 C           4.9253    1.5252    0.7577 C.ar    1  UNL1       -0.0391
     22 C           6.2197    1.8919    1.0395 C.ar    1  UNL1       -0.0416
     23 C           6.9860    1.0105    1.7874 C.ar    1  UNL1        0.0411
     24 CL          8.6480    1.4067    2.1886 Cl      1  UNL1       -0.0835
     25 C           6.4434   -0.1829    2.2191 C.ar    1  UNL1       -0.0416
     26 C           5.1412   -0.5353    1.9269 C.ar    1  UNL1       -0.0391
     27 C           0.1053   -0.7181    0.1340 C.3     1  UNL1        0.0258
     28 H          -5.3662   -3.5279    0.6903 H       1  UNL1        0.0391
     29 H          -4.0913   -2.6402    1.6793 H       1  UNL1        0.0391
     30 H          -5.4946   -1.7229    1.0788 H       1  UNL1        0.0391
     31 H          -5.2500   -0.4898   -0.8233 H       1  UNL1        0.0391
     32 H          -4.4473   -1.4052   -2.2188 H       1  UNL1        0.0391
     33 H          -5.8717   -2.0850   -1.3540 H       1  UNL1        0.0391
     34 H          -2.4479   -1.8804    0.9018 H       1  UNL1        0.0427
     35 H          -3.4415   -0.4496    0.5753 H       1  UNL1        0.0427
     36 H          -2.7582   -0.3451   -1.7483 H       1  UNL1        0.0287
     37 H          -1.7714   -1.8122   -1.5798 H       1  UNL1        0.0287
     38 H          -1.5532    2.4290   -1.7768 H       1  UNL1        0.0620
     39 H          -2.2640    4.4425   -0.6783 H       1  UNL1        0.0618
     40 H          -2.5398    4.4494    1.8266 H       1  UNL1        0.0618
     41 H          -2.0909    2.4496    3.0800 H       1  UNL1        0.0618
     42 H          -1.3712    0.4169    1.9230 H       1  UNL1        0.0620
     43 H           0.4149    1.1549   -1.8881 H       1  UNL1        0.0275
     44 H          -1.1913    0.6639   -2.6733 H       1  UNL1        0.0275
     45 H           0.9939   -0.4030   -3.4962 H       1  UNL1        0.0281
     46 H          -0.4942   -1.3609   -3.3787 H       1  UNL1        0.0281
     47 H           1.9700   -2.1268   -2.3413 H       1  UNL1        0.0465
     48 H           0.4664   -2.6785   -1.5845 H       1  UNL1        0.0465
     49 H           2.2779    0.3119    1.5257 H       1  UNL1        0.1564
     50 H           4.3158    2.2041    0.1746 H       1  UNL1        0.0636
     51 H           6.6469    2.8315    0.6995 H       1  UNL1        0.0633
     52 H           7.0506   -0.8567    2.7987 H       1  UNL1        0.0633
     53 H           4.6785   -1.4412    2.2359 H       1  UNL1        0.0636
     54 H          -0.2423   -1.7052    0.5265 H       1  UNL1        0.0474
     55 H           0.3663   -0.1236    1.0327 H       1  UNL1        0.0474
@<TRIPOS>BOND
     1     1     2    1
     2     2     3    1
     3     2     4    1
     4     4     5    1
     5     5     6    1
     6     6     7    1
     7     7     8   ar
     8     8     9   ar
     9     9    10   ar
    10    10    11   ar
    11    11    12   ar
    12     6    13    1
    13    13    14    1
    14    14    15    1
    15    15    16    1
    16    16    17   am
    17    17    18    2
    18    17    19   am
    19    19    20    1
    20    20    21   ar
    21    21    22   ar
    22    22    23   ar
    23    23    24    1
    24    23    25   ar
    25    25    26   ar
    26    16    27    1
    27    27     6    1
    28    12     7   ar
    29    26    20   ar
    30     1    28    1
    31     1    29    1
    32     1    30    1
    33     3    31    1
    34     3    32    1
    35     3    33    1
    36     4    34    1
    37     4    35    1
    38     5    36    1
    39     5    37    1
    40     8    38    1
    41     9    39    1
    42    10    40    1
    43    11    41    1
    44    12    42    1
    45    13    43    1
    46    13    44    1
    47    14    45    1
    48    14    46    1
    49    15    47    1
    50    15    48    1
    51    19    49    1
    52    21    50    1
    53    22    51    1
    54    25    52    1
    55    26    53    1
    56    27    54    1
    57    27    55    1
