@<TRIPOS>MOLECULE
*****
 53 54 0 0 0
SMALL
GASTEIGER

@<TRIPOS>ATOM
      1 C           5.8617    0.1039   -1.2621 C.3     1  UNL1       -0.0653
      2 C           5.9070   -0.5405    0.1485 C.3     1  UNL1       -0.0558
      3 C           5.6432    0.5601    1.1726 C.3     1  UNL1       -0.0512
      4 C           4.3119    1.1836    0.9890 C.3     1  UNL1       -0.0278
      5 CA          3.1277    0.3337    1.2075 C.3     1  UNL1        0.0815
      6 C           3.0458   -0.1854    2.6500 C.2     1  UNL1        0.1405
      7 O           4.0029   -0.7807    3.1034 O.2     1  UNL1       -0.2991
      8 N           1.8781    0.9742    0.8893 N.am    1  UNL1       -0.2718
      9 C           0.7414    0.2649    0.4155 C.2     1  UNL1        0.4013
     10 O           0.7774   -0.9669    0.2618 O.2     1  UNL1       -0.2264
     11 O          -0.4072    0.9359    0.1265 O.3     1  UNL1       -0.4435
     12 C          -1.6216    0.3977   -0.3447 C.3     1  UNL1        0.1191
     13 C          -1.4659   -0.3337   -1.6285 C.3     1  UNL1        0.0125
     14 C          -2.7245   -0.9232   -2.1633 C.ar    1  UNL1       -0.0436
     15 C          -3.1409   -2.1686   -1.7337 C.ar    1  UNL1       -0.0584
     16 C          -4.3045   -2.7050   -2.2395 C.ar    1  UNL1       -0.0615
     17 C          -5.0557   -1.9993   -3.1789 C.ar    1  UNL1       -0.0617
     18 C          -4.6597   -0.7566   -3.6265 C.ar    1  UNL1       -0.0615
     19 C          -3.4843   -0.2450   -3.0955 C.ar    1  UNL1       -0.0584
     20 C          -2.6040    1.5524   -0.3771 C.3     1  UNL1       -0.0124
     21 C          -3.7295    1.3645    0.6099 C.3     1  UNL1       -0.0494
     22 C          -3.2051    1.1625    2.0163 C.3     1  UNL1       -0.0528
     23 C          -2.1660    0.0750    2.0753 C.3     1  UNL1       -0.0494
     24 C          -2.0784   -0.6039    0.7332 C.3     1  UNL1       -0.0124
     25 H           4.8117    0.2811   -1.5403 H       1  UNL1        0.0230
     26 H           6.3736    1.1000   -1.1580 H       1  UNL1        0.0230
     27 H           6.3879   -0.5437   -1.9594 H       1  UNL1        0.0230
     28 H           6.9046   -0.9803    0.2876 H       1  UNL1        0.0263
     29 H           5.1684   -1.3376    0.1412 H       1  UNL1        0.0263
     30 H           6.4181    1.3559    0.9595 H       1  UNL1        0.0266
     31 H           5.7999    0.1866    2.1716 H       1  UNL1        0.0266
     32 H           4.2624    1.6476   -0.0301 H       1  UNL1        0.0287
     33 H           4.2574    2.0595    1.6976 H       1  UNL1        0.0287
     34 HA          3.2169   -0.6242    0.6276 H       1  UNL1        0.0575
     35 H           2.1300    0.0171    3.1670 H       1  UNL1        0.1046
     36 H           1.8195    2.0289    1.0189 H       1  UNL1        0.1527
     37 H          -0.8067   -1.2240   -1.4014 H       1  UNL1        0.0352
     38 H          -1.0048    0.2996   -2.4326 H       1  UNL1        0.0352
     39 H          -2.5618   -2.7539   -0.9962 H       1  UNL1        0.0620
     40 H          -4.6087   -3.6980   -1.8734 H       1  UNL1        0.0618
     41 H          -5.9715   -2.4881   -3.5480 H       1  UNL1        0.0618
     42 H          -5.2442   -0.1972   -4.3616 H       1  UNL1        0.0618
     43 H          -3.2083    0.7370   -3.4912 H       1  UNL1        0.0620
     44 H          -2.0938    2.4860   -0.0668 H       1  UNL1        0.0304
     45 H          -3.0126    1.7024   -1.3681 H       1  UNL1        0.0304
     46 H          -4.4315    0.5678    0.3047 H       1  UNL1        0.0267
     47 H          -4.3133    2.3022    0.6183 H       1  UNL1        0.0267
     48 H          -4.0613    0.9329    2.6714 H       1  UNL1        0.0265
     49 H          -2.7224    2.0973    2.4032 H       1  UNL1        0.0265
     50 H          -1.1877    0.4799    2.4214 H       1  UNL1        0.0267
     51 H          -2.4903   -0.6750    2.8141 H       1  UNL1        0.0267
     52 H          -1.3959   -1.4657    0.8218 H       1  UNL1        0.0304
     53 H          -3.0855   -0.9936    0.4921 H       1  UNL1        0.0304
@<TRIPOS>BOND
     1     1     2    1
     2     2     3    1
     3     3     4    1
     4     4     5    1
     5     5     6    1
     6     6     7    2
     7     5     8    1
     8     8     9   am
     9     9    10    2
    10     9    11    1
    11    11    12    1
    12    12    13    1
    13    13    14    1
    14    14    15   ar
    15    15    16   ar
    16    16    17   ar
    17    17    18   ar
    18    18    19   ar
    19    12    20    1
    20    20    21    1
    21    21    22    1
    22    22    23    1
    23    23    24    1
    24    24    12    1
    25    19    14   ar
    26     1    25    1
    27     1    26    1
    28     1    27    1
    29     2    28    1
    30     2    29    1
    31     3    30    1
    32     3    31    1
    33     4    32    1
    34     4    33    1
    35     5    34    1
    36     6    35    1
    37     8    36    1
    38    13    37    1
    39    13    38    1
    40    15    39    1
    41    16    40    1
    42    17    41    1
    43    18    42    1
    44    19    43    1
    45    20    44    1
    46    20    45    1
    47    21    46    1
    48    21    47    1
    49    22    48    1
    50    22    49    1
    51    23    50    1
    52    23    51    1
    53    24    52    1
    54    24    53    1
