
     RDKit          3D

 53 54  0  0  0  0  0  0  0  0999 V2000
    5.8617    0.1039   -1.2621 C   0  0  0  0  0  0  0  0  0  0  0  0
    5.9070   -0.5405    0.1485 C   0  0  0  0  0  0  0  0  0  0  0  0
    5.6432    0.5601    1.1726 C   0  0  0  0  0  0  0  0  0  0  0  0
    4.3119    1.1836    0.9890 C   0  0  0  0  0  0  0  0  0  0  0  0
    3.1277    0.3337    1.2075 C   0  0  1  0  0  0  0  0  0  0  0  0
    3.0458   -0.1854    2.6500 C   0  0  0  0  0  0  0  0  0  0  0  0
    4.0029   -0.7807    3.1034 O   0  0  0  0  0  0  0  0  0  0  0  0
    1.8781    0.9742    0.8893 N   0  0  0  0  0  0  0  0  0  0  0  0
    0.7414    0.2649    0.4155 C   0  0  0  0  0  0  0  0  0  0  0  0
    0.7774   -0.9669    0.2618 O   0  0  0  0  0  0  0  0  0  0  0  0
   -0.4072    0.9359    0.1265 O   0  0  0  0  0  0  0  0  0  0  0  0
   -1.6216    0.3977   -0.3447 C   0  0  0  0  0  0  0  0  0  0  0  0
   -1.4659   -0.3337   -1.6285 C   0  0  0  0  0  0  0  0  0  0  0  0
   -2.7245   -0.9232   -2.1633 C   0  0  0  0  0  0  0  0  0  0  0  0
   -3.1409   -2.1686   -1.7337 C   0  0  0  0  0  0  0  0  0  0  0  0
   -4.3045   -2.7050   -2.2395 C   0  0  0  0  0  0  0  0  0  0  0  0
   -5.0557   -1.9993   -3.1789 C   0  0  0  0  0  0  0  0  0  0  0  0
   -4.6597   -0.7566   -3.6265 C   0  0  0  0  0  0  0  0  0  0  0  0
   -3.4843   -0.2450   -3.0955 C   0  0  0  0  0  0  0  0  0  0  0  0
   -2.6040    1.5524   -0.3771 C   0  0  0  0  0  0  0  0  0  0  0  0
   -3.7295    1.3645    0.6099 C   0  0  0  0  0  0  0  0  0  0  0  0
   -3.2051    1.1625    2.0163 C   0  0  0  0  0  0  0  0  0  0  0  0
   -2.1660    0.0750    2.0753 C   0  0  0  0  0  0  0  0  0  0  0  0
   -2.0784   -0.6039    0.7332 C   0  0  0  0  0  0  0  0  0  0  0  0
    4.8117    0.2811   -1.5403 H   0  0  0  0  0  0  0  0  0  0  0  0
    6.3736    1.1000   -1.1580 H   0  0  0  0  0  0  0  0  0  0  0  0
    6.3879   -0.5437   -1.9594 H   0  0  0  0  0  0  0  0  0  0  0  0
    6.9046   -0.9803    0.2876 H   0  0  0  0  0  0  0  0  0  0  0  0
    5.1684   -1.3376    0.1412 H   0  0  0  0  0  0  0  0  0  0  0  0
    6.4181    1.3559    0.9595 H   0  0  0  0  0  0  0  0  0  0  0  0
    5.7999    0.1866    2.1716 H   0  0  0  0  0  0  0  0  0  0  0  0
    4.2624    1.6476   -0.0301 H   0  0  0  0  0  0  0  0  0  0  0  0
    4.2574    2.0595    1.6976 H   0  0  0  0  0  0  0  0  0  0  0  0
    3.2169   -0.6242    0.6276 H   0  0  0  0  0  0  0  0  0  0  0  0
    2.1300    0.0171    3.1670 H   0  0  0  0  0  0  0  0  0  0  0  0
    1.8195    2.0289    1.0189 H   0  0  0  0  0  0  0  0  0  0  0  0
   -0.8067   -1.2240   -1.4014 H   0  0  0  0  0  0  0  0  0  0  0  0
   -1.0048    0.2996   -2.4326 H   0  0  0  0  0  0  0  0  0  0  0  0
   -2.5618   -2.7539   -0.9962 H   0  0  0  0  0  0  0  0  0  0  0  0
   -4.6087   -3.6980   -1.8734 H   0  0  0  0  0  0  0  0  0  0  0  0
   -5.9715   -2.4881   -3.5480 H   0  0  0  0  0  0  0  0  0  0  0  0
   -5.2442   -0.1972   -4.3616 H   0  0  0  0  0  0  0  0  0  0  0  0
   -3.2083    0.7370   -3.4912 H   0  0  0  0  0  0  0  0  0  0  0  0
   -2.0938    2.4860   -0.0668 H   0  0  0  0  0  0  0  0  0  0  0  0
   -3.0126    1.7024   -1.3681 H   0  0  0  0  0  0  0  0  0  0  0  0
   -4.4315    0.5678    0.3047 H   0  0  0  0  0  0  0  0  0  0  0  0
   -4.3133    2.3022    0.6183 H   0  0  0  0  0  0  0  0  0  0  0  0
   -4.0613    0.9329    2.6714 H   0  0  0  0  0  0  0  0  0  0  0  0
   -2.7224    2.0973    2.4032 H   0  0  0  0  0  0  0  0  0  0  0  0
   -1.1877    0.4799    2.4214 H   0  0  0  0  0  0  0  0  0  0  0  0
   -2.4903   -0.6750    2.8141 H   0  0  0  0  0  0  0  0  0  0  0  0
   -1.3959   -1.4657    0.8218 H   0  0  0  0  0  0  0  0  0  0  0  0
   -3.0855   -0.9936    0.4921 H   0  0  0  0  0  0  0  0  0  0  0  0
  1  2  1  0
  2  3  1  0
  3  4  1  0
  4  5  1  0
  5  6  1  0
  6  7  2  0
  5  8  1  0
  8  9  1  0
  9 10  2  0
  9 11  1  0
 11 12  1  0
 12 13  1  0
 13 14  1  0
 14 15  2  0
 15 16  1  0
 16 17  2  0
 17 18  1  0
 18 19  2  0
 12 20  1  0
 20 21  1  0
 21 22  1  0
 22 23  1  0
 23 24  1  0
 24 12  1  0
 19 14  1  0
  1 25  1  0
  1 26  1  0
  1 27  1  0
  2 28  1  0
  2 29  1  0
  3 30  1  0
  3 31  1  0
  4 32  1  0
  4 33  1  0
  5 34  1  6
  6 35  1  0
  8 36  1  0
 13 37  1  0
 13 38  1  0
 15 39  1  0
 16 40  1  0
 17 41  1  0
 18 42  1  0
 19 43  1  0
 20 44  1  0
 20 45  1  0
 21 46  1  0
 21 47  1  0
 22 48  1  0
 22 49  1  0
 23 50  1  0
 23 51  1  0
 24 52  1  0
 24 53  1  0
M  END
$$$$
