@<TRIPOS>MOLECULE
*****
 41 41 0 0 0
SMALL
GASTEIGER

@<TRIPOS>ATOM
      1 C          -5.0764   -0.6793   -0.1126 C.3     1  UNL1       -0.0499
      2 C          -3.5868   -0.2655   -0.1208 C.3     1  UNL1        0.0021
      3 C          -3.2686    0.1201   -1.5353 C.3     1  UNL1       -0.0499
      4 N          -2.8747   -1.3837    0.3635 N.3     1  UNL1       -0.3112
      5 C          -1.4723   -1.3419    0.4633 C.3     1  UNL1        0.0254
      6 C          -1.0241   -0.3841    1.5360 C.3     1  UNL1        0.1015
      7 O          -1.4105    0.9031    1.3042 O.3     1  UNL1       -0.3872
      8 C           0.4491   -0.4681    1.7934 C.3     1  UNL1        0.1166
      9 O           1.3171   -0.0584    0.8422 O.3     1  UNL1       -0.4891
     10 C           1.6866    1.0154    0.1754 C.ar    1  UNL1        0.1241
     11 C           1.3415    2.3451    0.1399 C.ar    1  UNL1       -0.0197
     12 C           1.8430    3.3543   -0.6359 C.ar    1  UNL1       -0.0583
     13 C           2.8392    2.9509   -1.4988 C.ar    1  UNL1       -0.0613
     14 C           3.2943    1.6548   -1.5798 C.ar    1  UNL1       -0.0548
     15 C           2.7063    0.7034   -0.7355 C.ar    1  UNL1       -0.0020
     16 C           3.2739   -0.6776   -0.8979 C.3     1  UNL1       -0.0063
     17 C           4.1977   -1.0273    0.1907 C.2     1  UNL1       -0.0867
     18 C           3.9315   -2.0850    0.9695 C.2     1  UNL1       -0.1023
     19 H          -5.6250   -0.1727   -0.9170 H       1  UNL1        0.0245
     20 H          -5.1431   -1.7732   -0.2843 H       1  UNL1        0.0245
     21 H          -5.5539   -0.3736    0.8467 H       1  UNL1        0.0245
     22 H          -3.5648    0.6507    0.5009 H       1  UNL1        0.0455
     23 H          -4.2014    0.4835   -2.0131 H       1  UNL1        0.0245
     24 H          -2.9746   -0.7897   -2.1014 H       1  UNL1        0.0245
     25 H          -2.5312    0.9362   -1.6429 H       1  UNL1        0.0245
     26 H          -3.3794   -1.8725    1.1031 H       1  UNL1        0.1223
     27 H          -1.1096   -2.3595    0.7742 H       1  UNL1        0.0450
     28 H          -0.9434   -1.0475   -0.4640 H       1  UNL1        0.0450
     29 H          -1.5129   -0.7238    2.4993 H       1  UNL1        0.0640
     30 H          -1.2486    1.1315    0.3564 H       1  UNL1        0.2100
     31 H           0.6936   -1.4976    2.2103 H       1  UNL1        0.0723
     32 H           0.6141    0.1762    2.7232 H       1  UNL1        0.0723
     33 H           0.5675    2.6085    0.8448 H       1  UNL1        0.0654
     34 H           1.4538    4.3561   -0.5368 H       1  UNL1        0.0619
     35 H           3.2857    3.6944   -2.1457 H       1  UNL1        0.0618
     36 H           4.0792    1.4326   -2.2861 H       1  UNL1        0.0622
     37 H           2.4292   -1.4000   -0.9479 H       1  UNL1        0.0357
     38 H           3.8008   -0.7766   -1.8624 H       1  UNL1        0.0357
     39 H           5.0716   -0.3941    0.3103 H       1  UNL1        0.0570
     40 H           3.0071   -2.4858    0.5885 H       1  UNL1        0.0532
     41 H           4.6185   -2.3489    1.7823 H       1  UNL1        0.0532
@<TRIPOS>BOND
     1     1     2    1
     2     2     3    1
     3     2     4    1
     4     4     5    1
     5     5     6    1
     6     6     7    1
     7     6     8    1
     8     8     9    1
     9     9    10    1
    10    10    11   ar
    11    11    12   ar
    12    12    13   ar
    13    13    14   ar
    14    14    15   ar
    15    15    16    1
    16    16    17    1
    17    17    18    2
    18    15    10   ar
    19     1    19    1
    20     1    20    1
    21     1    21    1
    22     2    22    1
    23     3    23    1
    24     3    24    1
    25     3    25    1
    26     4    26    1
    27     5    27    1
    28     5    28    1
    29     6    29    1
    30     7    30    1
    31     8    31    1
    32     8    32    1
    33    11    33    1
    34    12    34    1
    35    13    35    1
    36    14    36    1
    37    16    37    1
    38    16    38    1
    39    17    39    1
    40    18    40    1
    41    18    41    1
