
     RDKit          3D

 37 40  0  0  0  0  0  0  0  0999 V2000
   -0.0616    0.2936   -0.5676 O   0  0  0  0  0  0  0  0  0  0  0  0
   -0.0848    0.2980    0.6859 C   0  0  0  0  0  0  0  0  0  0  0  0
    0.8543   -0.5783    1.4602 C   0  0  0  0  0  0  0  0  0  0  0  0
    1.7229   -1.3667    0.5985 C   0  0  0  0  0  0  0  0  0  0  0  0
    1.5008   -2.7128    0.4089 C   0  0  0  0  0  0  0  0  0  0  0  0
    2.3512   -3.4405   -0.4165 C   0  0  0  0  0  0  0  0  0  0  0  0
    3.4108   -2.8529   -1.0511 C   0  0  0  0  0  0  0  0  0  0  0  0
    3.6359   -1.5153   -0.8665 C   0  0  0  0  0  0  0  0  0  0  0  0
    4.6865   -0.9656   -1.5063 N   0  0  0  0  0  0  0  0  0  0  0  0
    4.9690    0.3421   -1.3743 C   0  0  0  0  0  0  0  0  0  0  0  0
    4.1482    1.0917   -0.5653 C   0  0  0  0  0  0  0  0  0  0  0  0
    3.0649    0.5720    0.1068 C   0  0  0  0  0  0  0  0  0  0  0  0
    2.7889   -0.7692   -0.0386 C   0  0  0  0  0  0  0  0  0  0  0  0
   -1.0145    1.1457    1.3513 N   0  0  0  0  0  0  0  0  0  0  0  0
   -1.9261    1.9953    0.6617 C   0  0  0  0  0  0  0  0  0  0  0  0
   -1.5262    3.6454    0.1038 S   0  0  0  0  0  0  0  0  0  0  0  0
   -3.0456    4.0271   -0.6102 C   0  0  0  0  0  0  0  0  0  0  0  0
   -3.8071    2.8763   -0.3955 C   0  0  0  0  0  0  0  0  0  0  0  0
   -5.6493    2.8513   -1.0545 Br  0  0  0  0  0  0  0  0  0  0  0  0
   -3.2021    1.8671    0.2548 C   0  0  0  0  0  0  0  0  0  0  0  0
   -3.9500    0.5900    0.5685 C   0  0  0  0  0  0  0  0  0  0  0  0
   -5.2104    0.2913    0.2354 N   0  0  0  0  0  0  0  0  0  0  0  0
   -5.5301   -0.8918    0.6873 N   0  0  0  0  0  0  0  0  0  0  0  0
   -4.4652   -1.3814    1.3282 C   0  0  0  0  0  0  0  0  0  0  0  0
   -3.4840   -0.4572    1.2527 N   0  0  0  0  0  0  0  0  0  0  0  0
    0.2330   -1.2773    2.0635 H   0  0  0  0  0  0  0  0  0  0  0  0
    1.4388    0.1125    2.1041 H   0  0  0  0  0  0  0  0  0  0  0  0
    0.6653   -3.2214    0.8970 H   0  0  0  0  0  0  0  0  0  0  0  0
    2.1288   -4.4925   -0.5281 H   0  0  0  0  0  0  0  0  0  0  0  0
    4.0638   -3.4241   -1.6881 H   0  0  0  0  0  0  0  0  0  0  0  0
    5.8176    0.8077   -1.8850 H   0  0  0  0  0  0  0  0  0  0  0  0
    4.3331    2.1696   -0.4208 H   0  0  0  0  0  0  0  0  0  0  0  0
    2.4359    1.2165    0.7431 H   0  0  0  0  0  0  0  0  0  0  0  0
   -0.9968    1.1154    2.3932 H   0  0  0  0  0  0  0  0  0  0  0  0
   -3.3407    4.9656   -1.1174 H   0  0  0  0  0  0  0  0  0  0  0  0
   -4.3961   -2.3341    1.8156 H   0  0  0  0  0  0  0  0  0  0  0  0
   -2.5588   -0.5931    1.6771 H   0  0  0  0  0  0  0  0  0  0  0  0
  1  2  2  0
  2  3  1  0
  3  4  1  0
  4  5  2  0
  5  6  1  0
  6  7  2  0
  7  8  1  0
  8  9  2  0
  9 10  1  0
 10 11  2  0
 11 12  1  0
 12 13  2  0
  2 14  1  0
 14 15  1  0
 15 16  1  0
 16 17  1  0
 17 18  2  0
 18 19  1  0
 18 20  1  0
 20 21  1  0
 21 22  2  0
 22 23  1  0
 23 24  2  0
 24 25  1  0
 13  4  1  0
 20 15  2  0
 25 21  1  0
 13  8  1  0
  3 26  1  0
  3 27  1  0
  5 28  1  0
  6 29  1  0
  7 30  1  0
 10 31  1  0
 11 32  1  0
 12 33  1  0
 14 34  1  0
 17 35  1  0
 24 36  1  0
 25 37  1  0
M  END
$$$$
