@<TRIPOS>MOLECULE
*****
 37 40 0 0 0
SMALL
GASTEIGER

@<TRIPOS>ATOM
      1 O          -0.0616    0.2936   -0.5676 O.2     1  UNL1       -0.2751
      2 C          -0.0848    0.2980    0.6859 C.2     1  UNL1        0.2219
      3 C           0.8543   -0.5783    1.4602 C.3     1  UNL1        0.0500
      4 C           1.7229   -1.3667    0.5985 C.ar    1  UNL1       -0.0295
      5 C           1.5008   -2.7128    0.4089 C.ar    1  UNL1       -0.0574
      6 C           2.3512   -3.4405   -0.4165 C.ar    1  UNL1       -0.0594
      7 C           3.4108   -2.8529   -1.0511 C.ar    1  UNL1       -0.0357
      8 C           3.6359   -1.5153   -0.8665 C.ar    1  UNL1        0.0712
      9 N           4.6865   -0.9656   -1.5063 N.ar    1  UNL1       -0.2550
     10 C           4.9690    0.3421   -1.3743 C.ar    1  UNL1        0.0283
     11 C           4.1482    1.0917   -0.5653 C.ar    1  UNL1       -0.0430
     12 C           3.0649    0.5720    0.1068 C.ar    1  UNL1       -0.0509
     13 C           2.7889   -0.7692   -0.0386 C.ar    1  UNL1        0.0040
     14 N          -1.0145    1.1457    1.3513 N.am    1  UNL1       -0.2791
     15 C          -1.9261    1.9953    0.6617 C.ar    1  UNL1        0.0836
     16 S          -1.5262    3.6454    0.1038 S.2     1  UNL1       -0.0801
     17 C          -3.0456    4.0271   -0.6102 C.ar    1  UNL1       -0.0078
     18 C          -3.8071    2.8763   -0.3955 C.ar    1  UNL1        0.0374
     19 BR         -5.6493    2.8513   -1.0545 Br      1  UNL1       -0.0490
     20 C          -3.2021    1.8671    0.2548 C.ar    1  UNL1        0.0614
     21 C          -3.9500    0.5900    0.5685 C.ar    1  UNL1        0.1648
     22 N          -5.2104    0.2913    0.2354 N.ar    1  UNL1       -0.1295
     23 N          -5.5301   -0.8918    0.6873 N.ar    1  UNL1       -0.1377
     24 C          -4.4652   -1.3814    1.3282 C.ar    1  UNL1        0.1175
     25 N          -3.4840   -0.4572    1.2527 N.ar    1  UNL1       -0.3276
     26 H           0.2330   -1.2773    2.0635 H       1  UNL1        0.0407
     27 H           1.4388    0.1125    2.1041 H       1  UNL1        0.0407
     28 H           0.6653   -3.2214    0.8970 H       1  UNL1        0.0621
     29 H           2.1288   -4.4925   -0.5281 H       1  UNL1        0.0618
     30 H           4.0638   -3.4241   -1.6881 H       1  UNL1        0.0639
     31 H           5.8176    0.8077   -1.8850 H       1  UNL1        0.0830
     32 H           4.3331    2.1696   -0.4208 H       1  UNL1        0.0633
     33 H           2.4359    1.2165    0.7431 H       1  UNL1        0.0625
     34 H          -0.9968    1.1154    2.3932 H       1  UNL1        0.1553
     35 H          -3.3407    4.9656   -1.1174 H       1  UNL1        0.0705
     36 H          -4.3961   -2.3341    1.8156 H       1  UNL1        0.1046
     37 H          -2.5588   -0.5931    1.6771 H       1  UNL1        0.1683
@<TRIPOS>BOND
     1     1     2    2
     2     2     3    1
     3     3     4    1
     4     4     5   ar
     5     5     6   ar
     6     6     7   ar
     7     7     8   ar
     8     8     9   ar
     9     9    10   ar
    10    10    11   ar
    11    11    12   ar
    12    12    13   ar
    13     2    14   am
    14    14    15    1
    15    15    16   ar
    16    16    17   ar
    17    17    18   ar
    18    18    19    1
    19    18    20   ar
    20    20    21    1
    21    21    22   ar
    22    22    23   ar
    23    23    24   ar
    24    24    25   ar
    25    13     4   ar
    26    20    15   ar
    27    25    21   ar
    28    13     8   ar
    29     3    26    1
    30     3    27    1
    31     5    28    1
    32     6    29    1
    33     7    30    1
    34    10    31    1
    35    11    32    1
    36    12    33    1
    37    14    34    1
    38    17    35    1
    39    24    36    1
    40    25    37    1
