@<TRIPOS>MOLECULE
*****
 34 35 0 0 0
SMALL
GASTEIGER

@<TRIPOS>ATOM
      1 C          -3.6448    1.4120   -1.0742 C.3     1  UNL1       -0.0127
      2 N          -3.3702    0.7625    0.1749 N.3     1  UNL1       -0.3036
      3 C          -3.7079   -0.6353    0.1908 C.3     1  UNL1       -0.0013
      4 C          -2.6397   -1.4714   -0.4534 C.3     1  UNL1       -0.0385
      5 C          -1.2733   -1.2424    0.1608 C.3     1  UNL1       -0.0322
      6 C          -0.9635    0.2281    0.1210 C.3     1  UNL1        0.0335
      7 N           0.2403    0.5840    0.8373 N.pl3   1  UNL1       -0.3373
      8 C           1.5650    0.2981    0.4128 C.ar    1  UNL1        0.0713
      9 C           1.8793   -0.3097   -0.7891 C.ar    1  UNL1        0.0704
     10 N           3.1742   -0.5634   -1.1072 N.ar    1  UNL1       -0.1750
     11 N           4.2006   -0.2752   -0.3532 N.ar    1  UNL1       -0.2313
     12 C           5.5791   -0.5771   -0.7574 C.3     1  UNL1        0.0340
     13 C           3.9619    0.3171    0.8272 C.ar    1  UNL1        0.2872
     14 O           4.9216    0.6197    1.5997 O.2     1  UNL1       -0.2646
     15 C           2.6649    0.5990    1.2038 C.ar    1  UNL1        0.1289
     16 CL          2.3423    1.3793    2.7586 Cl      1  UNL1       -0.0759
     17 C          -2.1025    1.0360    0.7341 C.3     1  UNL1        0.0170
     18 H          -4.7413    1.3841   -1.2478 H       1  UNL1        0.0391
     19 H          -3.3760    2.4820   -0.9587 H       1  UNL1        0.0391
     20 H          -3.1136    0.9894   -1.9325 H       1  UNL1        0.0391
     21 H          -3.7713   -0.9379    1.2669 H       1  UNL1        0.0426
     22 H          -4.6531   -0.7961   -0.3245 H       1  UNL1        0.0426
     23 H          -2.5693   -1.1714   -1.5111 H       1  UNL1        0.0278
     24 H          -2.9185   -2.5315   -0.3789 H       1  UNL1        0.0278
     25 H          -1.2249   -1.6532    1.1982 H       1  UNL1        0.0284
     26 H          -0.5615   -1.7955   -0.4643 H       1  UNL1        0.0284
     27 H          -0.8657    0.4963   -0.9717 H       1  UNL1        0.0510
     28 H           0.1787    1.1079    1.7700 H       1  UNL1        0.1465
     29 H           1.1025   -0.5657   -1.4701 H       1  UNL1        0.0867
     30 H           5.6673   -0.2450   -1.8119 H       1  UNL1        0.0474
     31 H           5.6949   -1.6676   -0.7094 H       1  UNL1        0.0474
     32 H           6.2859   -0.0702   -0.0880 H       1  UNL1        0.0474
     33 H          -1.8355    2.0870    0.6635 H       1  UNL1        0.0445
     34 H          -2.1263    0.7261    1.8170 H       1  UNL1        0.0445
@<TRIPOS>BOND
     1     1     2    1
     2     2     3    1
     3     3     4    1
     4     4     5    1
     5     5     6    1
     6     6     7    1
     7     7     8    1
     8     8     9   ar
     9     9    10   ar
    10    10    11   ar
    11    11    12    1
    12    11    13   ar
    13    13    14    2
    14    13    15   ar
    15    15    16    1
    16     6    17    1
    17    17     2    1
    18    15     8   ar
    19     1    18    1
    20     1    19    1
    21     1    20    1
    22     3    21    1
    23     3    22    1
    24     4    23    1
    25     4    24    1
    26     5    25    1
    27     5    26    1
    28     6    27    1
    29     7    28    1
    30     9    29    1
    31    12    30    1
    32    12    31    1
    33    12    32    1
    34    17    33    1
    35    17    34    1
