@<TRIPOS>MOLECULE
*****
 68 73 0 0 0
SMALL
GASTEIGER

@<TRIPOS>ATOM
      1 C          -6.1600    2.3834    1.8526 C.3     1  UNL1        0.0032
      2 N          -6.8381    2.3805    0.5548 N.am    1  UNL1       -0.3024
      3 C          -8.2051    2.8714    0.4443 C.3     1  UNL1        0.0032
      4 C          -6.1795    1.9052   -0.5880 C.2     1  UNL1        0.2627
      5 O          -6.7496    1.8995   -1.6993 O.2     1  UNL1       -0.2684
      6 C          -4.8108    1.4082   -0.4925 C.ar    1  UNL1        0.1070
      7 C          -3.7216    2.1964   -0.8775 C.ar    1  UNL1       -0.0209
      8 C          -2.6079    1.4297   -0.6601 C.ar    1  UNL1        0.0378
      9 C          -1.2451    1.6208   -0.8332 C.ar    1  UNL1        0.0419
     10 N          -0.4043    0.6450   -0.5154 N.ar    1  UNL1       -0.2219
     11 C          -0.7897   -0.5486   -0.0243 C.ar    1  UNL1        0.2224
     12 N           0.1612   -1.5548    0.2976 N.pl3   1  UNL1       -0.2684
     13 C           1.5354   -1.3054    0.0891 C.ar    1  UNL1        0.1251
     14 C           2.4503   -2.2740    0.4056 C.ar    1  UNL1       -0.0197
     15 C           3.7890   -2.0375    0.2024 C.ar    1  UNL1       -0.0355
     16 C           4.2749   -0.8567   -0.3122 C.ar    1  UNL1        0.0545
     17 N           5.6656   -0.5826   -0.4916 N.am    1  UNL1       -0.2685
     18 C           6.6556   -1.3868    0.1590 C.3     1  UNL1        0.0352
     19 C           7.5492   -0.5668    1.0804 C.3     1  UNL1        0.0241
     20 C           8.9833   -0.5483    0.6574 C.3     1  UNL1       -0.0347
     21 C           9.0155    0.5144   -0.4104 C.3     1  UNL1       -0.0356
     22 C           7.8916    1.4432   -0.0158 C.3     1  UNL1        0.0162
     23 C           7.0117    1.6096   -1.2257 C.3     1  UNL1        0.0399
     24 C           5.9850    0.5490   -1.3218 C.2     1  UNL1        0.2213
     25 O           5.2554    0.7024   -2.3655 O.2     1  UNL1       -0.2752
     26 N           7.1641    0.8086    1.0661 N.3     1  UNL1       -0.3086
     27 C           3.3072    0.0892   -0.6144 C.ar    1  UNL1        0.0511
     28 N           1.9769   -0.1480   -0.4120 N.ar    1  UNL1       -0.2383
     29 N          -2.1157   -0.7401    0.1461 N.ar    1  UNL1       -0.1962
     30 C          -3.0134    0.2053   -0.1552 C.ar    1  UNL1        0.1466
     31 N          -4.3655    0.2205   -0.0636 N.ar    1  UNL1       -0.3180
     32 C          -5.1872   -0.8529    0.4087 C.3     1  UNL1        0.0366
     33 C          -4.5003   -2.1823    0.1796 C.3     1  UNL1       -0.0320
     34 C          -5.6437   -3.1690    0.2005 C.3     1  UNL1       -0.0511
     35 C          -6.8949   -2.4032   -0.1365 C.3     1  UNL1       -0.0511
     36 C          -6.4404   -0.9846   -0.4192 C.3     1  UNL1       -0.0320
     37 H          -5.4019    1.6012    1.9273 H       1  UNL1        0.0428
     38 H          -6.9711    2.1254    2.5937 H       1  UNL1        0.0428
     39 H          -5.7291    3.3701    2.0924 H       1  UNL1        0.0428
     40 H          -8.9441    2.0609    0.6680 H       1  UNL1        0.0428
     41 H          -8.3721    3.1859   -0.5991 H       1  UNL1        0.0428
     42 H          -8.3939    3.7328    1.0980 H       1  UNL1        0.0428
     43 H          -3.7453    3.2072   -1.2713 H       1  UNL1        0.0647
     44 H          -0.9112    2.5674   -1.2261 H       1  UNL1        0.0838
     45 H          -0.1722   -2.4479    0.6778 H       1  UNL1        0.1564
     46 H           2.1598   -3.2418    0.8206 H       1  UNL1        0.0652
     47 H           4.4969   -2.8239    0.4530 H       1  UNL1        0.0638
     48 H           6.2816   -2.2070    0.7643 H       1  UNL1        0.0484
     49 H           7.3650   -1.8530   -0.5756 H       1  UNL1        0.0484
     50 H           7.5269   -0.9459    2.1322 H       1  UNL1        0.0476
     51 H           9.5978   -0.1867    1.5069 H       1  UNL1        0.0281
     52 H           9.3835   -1.5196    0.3368 H       1  UNL1        0.0281
     53 H           8.8087   -0.0167   -1.3769 H       1  UNL1        0.0281
     54 H           9.9802    1.0227   -0.4478 H       1  UNL1        0.0281
     55 H           8.2601    2.4177    0.3654 H       1  UNL1        0.0465
     56 H           7.5884    1.6907   -2.1709 H       1  UNL1        0.0374
     57 H           6.4727    2.5825   -1.0944 H       1  UNL1        0.0374
     58 H           7.3780    1.2348    1.9792 H       1  UNL1        0.1225
     59 H           3.5582    1.0668   -1.0081 H       1  UNL1        0.0849
     60 H          -5.5043   -0.7495    1.4632 H       1  UNL1        0.0528
     61 H          -3.8134   -2.4465    1.0111 H       1  UNL1        0.0285
     62 H          -4.0220   -2.1893   -0.8001 H       1  UNL1        0.0285
     63 H          -5.7337   -3.6694    1.1852 H       1  UNL1        0.0266
     64 H          -5.4787   -3.9770   -0.5616 H       1  UNL1        0.0266
     65 H          -7.6036   -2.4014    0.7305 H       1  UNL1        0.0266
     66 H          -7.3869   -2.8205   -1.0426 H       1  UNL1        0.0266
     67 H          -6.2236   -0.8067   -1.4916 H       1  UNL1        0.0285
     68 H          -7.2498   -0.3039   -0.0896 H       1  UNL1        0.0285
@<TRIPOS>BOND
     1     1     2    1
     2     2     3    1
     3     2     4   am
     4     4     5    2
     5     4     6    1
     6     6     7   ar
     7     7     8   ar
     8     8     9   ar
     9     9    10   ar
    10    10    11   ar
    11    11    12    1
    12    12    13    1
    13    13    14   ar
    14    14    15   ar
    15    15    16   ar
    16    16    17    1
    17    17    18    1
    18    18    19    1
    19    19    20    1
    20    20    21    1
    21    21    22    1
    22    22    23    1
    23    23    24    1
    24    24    25    2
    25    22    26    1
    26    16    27   ar
    27    27    28   ar
    28    11    29   ar
    29    29    30   ar
    30    30    31   ar
    31    31    32    1
    32    32    33    1
    33    33    34    1
    34    34    35    1
    35    35    36    1
    36    31     6   ar
    37    36    32    1
    38    30     8   ar
    39    28    13   ar
    40    24    17   am
    41    26    19    1
    42     1    37    1
    43     1    38    1
    44     1    39    1
    45     3    40    1
    46     3    41    1
    47     3    42    1
    48     7    43    1
    49     9    44    1
    50    12    45    1
    51    14    46    1
    52    15    47    1
    53    18    48    1
    54    18    49    1
    55    19    50    1
    56    20    51    1
    57    20    52    1
    58    21    53    1
    59    21    54    1
    60    22    55    1
    61    23    56    1
    62    23    57    1
    63    26    58    1
    64    27    59    1
    65    32    60    1
    66    33    61    1
    67    33    62    1
    68    34    63    1
    69    34    64    1
    70    35    65    1
    71    35    66    1
    72    36    67    1
    73    36    68    1
