
     RDKit          3D

 27 26  0  0  0  0  0  0  0  0999 V2000
   -1.4333    0.1241    0.9537 N   0  0  0  0  0  0  0  0  0  0  0  0
   -2.0659    0.2453   -0.3136 C   0  0  1  0  0  0  0  0  0  0  0  0
   -1.1535    0.0530   -1.4641 C   0  0  0  0  0  0  0  0  0  0  0  0
   -0.0508    1.0633   -1.4805 C   0  0  0  0  0  0  0  0  0  0  0  0
    0.8528    1.0771   -0.2996 C   0  0  0  0  0  0  0  0  0  0  0  0
    1.5060   -0.2163   -0.1161 N   0  0  0  0  0  0  0  0  0  0  0  0
    2.4081   -0.4314    0.9450 C   0  0  0  0  0  0  0  0  0  0  0  0
    2.3059    0.2508    2.0154 N   0  0  0  0  0  0  0  0  0  0  0  0
    3.4463   -1.4009    0.8590 N   0  0  0  0  0  0  0  0  0  0  0  0
    4.5832   -1.2999    1.6085 O   0  0  0  0  0  0  0  0  0  0  0  0
   -3.2349   -0.7045   -0.3476 C   0  0  0  0  0  0  0  0  0  0  0  0
   -3.7741   -1.6125    0.5612 O   0  0  0  0  0  0  0  0  0  0  0  0
   -3.9356   -0.7526   -1.3934 O   0  0  0  0  0  0  0  0  0  0  0  0
   -1.6397   -0.8178    1.3651 H   0  0  0  0  0  0  0  0  0  0  0  0
   -1.7501    0.9076    1.5665 H   0  0  0  0  0  0  0  0  0  0  0  0
   -2.5446    1.2534   -0.4317 H   0  0  0  0  0  0  0  0  0  0  0  0
   -0.6718   -0.9681   -1.4327 H   0  0  0  0  0  0  0  0  0  0  0  0
   -1.6968    0.0955   -2.4560 H   0  0  0  0  0  0  0  0  0  0  0  0
   -0.4692    2.1065   -1.6219 H   0  0  0  0  0  0  0  0  0  0  0  0
    0.5929    0.9429   -2.4064 H   0  0  0  0  0  0  0  0  0  0  0  0
    0.3902    1.4746    0.6179 H   0  0  0  0  0  0  0  0  0  0  0  0
    1.7189    1.8009   -0.4848 H   0  0  0  0  0  0  0  0  0  0  0  0
    1.2993   -0.9941   -0.7843 H   0  0  0  0  0  0  0  0  0  0  0  0
    1.6040    0.9848    2.2157 H   0  0  0  0  0  0  0  0  0  0  0  0
    3.3056   -2.2105    0.1879 H   0  0  0  0  0  0  0  0  0  0  0  0
    5.1498   -0.5722    1.2680 H   0  0  0  0  0  0  0  0  0  0  0  0
   -4.7429   -1.6096    0.8686 H   0  0  0  0  0  0  0  0  0  0  0  0
  1  2  1  0
  2  3  1  0
  3  4  1  0
  4  5  1  0
  5  6  1  0
  6  7  1  0
  7  8  2  3
  7  9  1  0
  9 10  1  0
  2 11  1  0
 11 12  1  0
 11 13  2  0
  1 14  1  0
  1 15  1  0
  2 16  1  6
  3 17  1  0
  3 18  1  0
  4 19  1  0
  4 20  1  0
  5 21  1  0
  5 22  1  0
  6 23  1  0
  8 24  1  0
  9 25  1  0
 10 26  1  0
 12 27  1  0
M  END
$$$$
