@<TRIPOS>MOLECULE
*****
 27 26 0 0 0
SMALL
GASTEIGER

@<TRIPOS>ATOM
      1 N          -1.4333    0.1241    0.9537 N.3     1  UNL1       -0.3184
      2 CA         -2.0659    0.2453   -0.3136 C.3     1  UNL1        0.1033
      3 C          -1.1535    0.0530   -1.4641 C.3     1  UNL1       -0.0245
      4 C          -0.0508    1.0633   -1.4805 C.3     1  UNL1       -0.0203
      5 C           0.8528    1.0771   -0.2996 C.3     1  UNL1        0.0648
      6 N           1.5060   -0.2163   -0.1161 N.pl3   1  UNL1       -0.2740
      7 C           2.4081   -0.4314    0.9450 C.2     1  UNL1        0.4063
      8 N           2.3059    0.2508    2.0154 N.pl3   1  UNL1       -0.1275
      9 N           3.4463   -1.4009    0.8590 N.3     1  UNL1       -0.1421
     10 O           4.5832   -1.2999    1.6085 O.3     1  UNL1       -0.2333
     11 C          -3.2349   -0.7045   -0.3476 C.2     1  UNL1        0.3217
     12 O          -3.7741   -1.6125    0.5612 O.3     1  UNL1       -0.4795
     13 OXT        -3.9356   -0.7526   -1.3934 O.2     1  UNL1       -0.2493
     14 H1         -1.6397   -0.8178    1.3651 H       1  UNL1        0.1190
     15 H2         -1.7501    0.9076    1.5665 H       1  UNL1        0.1190
     16 HA         -2.5446    1.2534   -0.4317 H       1  UNL1        0.0574
     17 H          -0.6718   -0.9681   -1.4327 H       1  UNL1        0.0286
     18 H          -1.6968    0.0955   -2.4560 H       1  UNL1        0.0286
     19 H          -0.4692    2.1065   -1.6219 H       1  UNL1        0.0296
     20 H           0.5929    0.9429   -2.4064 H       1  UNL1        0.0296
     21 H           0.3902    1.4746    0.6179 H       1  UNL1        0.0655
     22 H           1.7189    1.8009   -0.4848 H       1  UNL1        0.0655
     23 H           1.2993   -0.9941   -0.7843 H       1  UNL1        0.2579
     24 H           1.6040    0.9848    2.2157 H       1  UNL1        0.3063
     25 H           3.3056   -2.2105    0.1879 H       1  UNL1        0.2985
     26 H           5.1498   -0.5722    1.2680 H       1  UNL1        0.2622
     27 H          -4.7429   -1.6096    0.8686 H       1  UNL1        0.2951
@<TRIPOS>BOND
     1     1     2    1
     2     2     3    1
     3     3     4    1
     4     4     5    1
     5     5     6    1
     6     6     7    1
     7     7     8    2
     8     7     9    1
     9     9    10    1
    10     2    11    1
    11    11    12    1
    12    11    13    2
    13     1    14    1
    14     1    15    1
    15     2    16    1
    16     3    17    1
    17     3    18    1
    18     4    19    1
    19     4    20    1
    20     5    21    1
    21     5    22    1
    22     6    23    1
    23     8    24    1
    24     9    25    1
    25    10    26    1
    26    12    27    1
