
     RDKit          3D

 36 37  0  0  0  0  0  0  0  0999 V2000
   -4.5983    1.6373   -0.9723 C   0  0  0  0  0  0  0  0  0  0  0  0
   -3.7594    0.4497   -0.6190 C   0  0  0  0  0  0  0  0  0  0  0  0
   -2.5631    0.5555    0.0763 C   0  0  0  0  0  0  0  0  0  0  0  0
   -1.8351   -0.5344    0.3766 N   0  0  0  0  0  0  0  0  0  0  0  0
   -0.6346   -0.2562    1.0927 C   0  0  1  0  0  0  0  0  0  0  0  0
    0.2505   -1.4327    1.3577 C   0  0  0  0  0  0  0  0  0  0  0  0
    1.4622   -0.6938    1.9442 C   0  0  2  0  0  0  0  0  0  0  0  0
    1.1466   -0.3921    3.2720 O   0  0  0  0  0  0  0  0  0  0  0  0
    1.3807    0.6079    1.1866 C   0  0  1  0  0  0  0  0  0  0  0  0
    2.6635    0.8718    0.4223 C   0  0  0  0  0  0  0  0  0  0  0  0
    2.9534   -0.0706   -0.5335 O   0  0  0  0  0  0  0  0  0  0  0  0
    4.3869    0.2503   -1.3675 P   0  0  0  0  0  0  0  0  0  0  0  0
    5.7497   -0.3621   -0.5606 O   0  0  0  0  0  0  0  0  0  0  0  0
    4.6034    1.8923   -1.6443 O   0  0  0  0  0  0  0  0  0  0  0  0
    4.3058   -0.4432   -2.7062 O   0  0  0  0  0  0  0  0  0  0  0  0
    0.2591    0.5670    0.3763 O   0  0  0  0  0  0  0  0  0  0  0  0
   -2.3070   -1.7301   -0.0207 C   0  0  0  0  0  0  0  0  0  0  0  0
   -1.5946   -2.7181    0.2814 O   0  0  0  0  0  0  0  0  0  0  0  0
   -3.4529   -1.8960   -0.6937 N   0  0  0  0  0  0  0  0  0  0  0  0
   -4.1842   -0.8068   -0.9958 C   0  0  0  0  0  0  0  0  0  0  0  0
   -5.2734   -0.9693   -1.6360 O   0  0  0  0  0  0  0  0  0  0  0  0
   -4.6470    1.8462   -2.0400 H   0  0  0  0  0  0  0  0  0  0  0  0
   -5.6070    1.5504   -0.4801 H   0  0  0  0  0  0  0  0  0  0  0  0
   -4.1158    2.5108   -0.4461 H   0  0  0  0  0  0  0  0  0  0  0  0
   -2.2837    1.5834    0.3457 H   0  0  0  0  0  0  0  0  0  0  0  0
   -0.8026    0.2507    2.0725 H   0  0  0  0  0  0  0  0  0  0  0  0
    0.5996   -1.9246    0.4212 H   0  0  0  0  0  0  0  0  0  0  0  0
   -0.1117   -2.1325    2.1216 H   0  0  0  0  0  0  0  0  0  0  0  0
    2.3928   -1.2448    1.8271 H   0  0  0  0  0  0  0  0  0  0  0  0
    1.3335    0.5693    3.4786 H   0  0  0  0  0  0  0  0  0  0  0  0
    1.2451    1.4961    1.8479 H   0  0  0  0  0  0  0  0  0  0  0  0
    3.4733    0.9136    1.1660 H   0  0  0  0  0  0  0  0  0  0  0  0
    2.5643    1.8874   -0.0410 H   0  0  0  0  0  0  0  0  0  0  0  0
    5.6414   -1.3250   -0.3623 H   0  0  0  0  0  0  0  0  0  0  0  0
    5.1249    2.3456   -0.9409 H   0  0  0  0  0  0  0  0  0  0  0  0
   -3.7663   -2.8528   -0.9748 H   0  0  0  0  0  0  0  0  0  0  0  0
  1  2  1  0
  2  3  2  0
  3  4  1  0
  4  5  1  0
  5  6  1  0
  6  7  1  0
  7  8  1  0
  7  9  1  0
  9 10  1  0
 10 11  1  0
 11 12  1  0
 12 13  1  0
 12 14  1  0
 12 15  2  0
  9 16  1  0
  4 17  1  0
 17 18  2  0
 17 19  1  0
 19 20  1  0
 20 21  2  0
 20  2  1  0
 16  5  1  0
  1 22  1  0
  1 23  1  0
  1 24  1  0
  3 25  1  0
  5 26  1  1
  6 27  1  0
  6 28  1  0
  7 29  1  1
  8 30  1  0
  9 31  1  1
 10 32  1  0
 10 33  1  0
 13 34  1  0
 14 35  1  0
 19 36  1  0
M  END
$$$$
