@<TRIPOS>MOLECULE
*****
 36 37 0 0 0
SMALL
GASTEIGER

@<TRIPOS>ATOM
      1 C          -4.5983    1.6373   -0.9723 C.3     1  UNL1       -0.0332
      2 C          -3.7594    0.4497   -0.6190 C.ar    1  UNL1        0.0302
      3 C          -2.5631    0.5555    0.0763 C.ar    1  UNL1        0.0199
      4 N          -1.8351   -0.5344    0.3766 N.ar    1  UNL1       -0.2737
      5 C          -0.6346   -0.2562    1.0927 C.3     1  UNL1        0.1422
      6 C           0.2505   -1.4327    1.3577 C.3     1  UNL1        0.0214
      7 C           1.4622   -0.6938    1.9442 C.3     1  UNL1        0.0877
      8 O           1.1466   -0.3921    3.2720 O.3     1  UNL1       -0.3890
      9 C           1.3807    0.6079    1.1866 C.3     1  UNL1        0.1108
     10 C           2.6635    0.8718    0.4223 C.3     1  UNL1        0.0878
     11 O           2.9534   -0.0706   -0.5335 O.3     1  UNL1       -0.2841
     12 P           4.3869    0.2503   -1.3675 P.3     1  UNL1        0.4724
     13 O           5.7497   -0.3621   -0.5606 O.3     1  UNL1       -0.3026
     14 O           4.6034    1.8923   -1.6443 O.3     1  UNL1       -0.3026
     15 O           4.3058   -0.4432   -2.7062 O.2     1  UNL1       -0.2275
     16 O           0.2591    0.5670    0.3763 O.3     1  UNL1       -0.3483
     17 C          -2.3070   -1.7301   -0.0207 C.ar    1  UNL1        0.3313
     18 O          -1.5946   -2.7181    0.2814 O.2     1  UNL1       -0.2464
     19 N          -3.4529   -1.8960   -0.6937 N.ar    1  UNL1       -0.2747
     20 C          -4.1842   -0.8068   -0.9958 C.ar    1  UNL1        0.2568
     21 O          -5.2734   -0.9693   -1.6360 O.2     1  UNL1       -0.2674
     22 H          -4.6470    1.8462   -2.0400 H       1  UNL1        0.0280
     23 H          -5.6070    1.5504   -0.4801 H       1  UNL1        0.0280
     24 H          -4.1158    2.5108   -0.4461 H       1  UNL1        0.0280
     25 H          -2.2837    1.5834    0.3457 H       1  UNL1        0.0816
     26 H          -0.8026    0.2507    2.0725 H       1  UNL1        0.0840
     27 H           0.5996   -1.9246    0.4212 H       1  UNL1        0.0335
     28 H          -0.1117   -2.1325    2.1216 H       1  UNL1        0.0335
     29 H           2.3928   -1.2448    1.8271 H       1  UNL1        0.0621
     30 H           1.3335    0.5693    3.4786 H       1  UNL1        0.2099
     31 H           1.2451    1.4961    1.8479 H       1  UNL1        0.0646
     32 H           3.4733    0.9136    1.1660 H       1  UNL1        0.0592
     33 H           2.5643    1.8874   -0.0410 H       1  UNL1        0.0592
     34 H           5.6414   -1.3250   -0.3623 H       1  UNL1        0.2220
     35 H           5.1249    2.3456   -0.9409 H       1  UNL1        0.2220
     36 H          -3.7663   -2.8528   -0.9748 H       1  UNL1        0.1734
@<TRIPOS>BOND
     1     1     2    1
     2     2     3   ar
     3     3     4   ar
     4     4     5    1
     5     5     6    1
     6     6     7    1
     7     7     8    1
     8     7     9    1
     9     9    10    1
    10    10    11    1
    11    11    12    1
    12    12    13    1
    13    12    14    1
    14    12    15    2
    15     9    16    1
    16     4    17   ar
    17    17    18    2
    18    17    19   ar
    19    19    20   ar
    20    20    21    2
    21    20     2   ar
    22    16     5    1
    23     1    22    1
    24     1    23    1
    25     1    24    1
    26     3    25    1
    27     5    26    1
    28     6    27    1
    29     6    28    1
    30     7    29    1
    31     8    30    1
    32     9    31    1
    33    10    32    1
    34    10    33    1
    35    13    34    1
    36    14    35    1
    37    19    36    1
