
     RDKit          3D

 33 34  0  0  0  0  0  0  0  0999 V2000
   -3.9013   -0.8533    1.1153 C   0  0  0  0  0  0  0  0  0  0  0  0
   -3.6326    0.0624   -0.0291 C   0  0  0  0  0  0  0  0  0  0  0  0
   -3.7870    1.4763    0.4663 C   0  0  0  0  0  0  0  0  0  0  0  0
   -4.7117    2.1875    0.0352 O   0  0  0  0  0  0  0  0  0  0  0  0
   -2.9121    1.9895    1.3959 O   0  0  0  0  0  0  0  0  0  0  0  0
   -2.2860   -0.0523   -0.6263 C   0  0  0  0  0  0  0  0  0  0  0  0
   -2.1222    0.1374   -1.9807 C   0  0  0  0  0  0  0  0  0  0  0  0
   -0.8578    0.0291   -2.5022 C   0  0  0  0  0  0  0  0  0  0  0  0
    0.2432   -0.2657   -1.6947 C   0  0  0  0  0  0  0  0  0  0  0  0
    0.1078   -0.4616   -0.3390 C   0  0  0  0  0  0  0  0  0  0  0  0
    1.2113   -0.7557    0.5476 C   0  0  0  0  0  0  0  0  0  0  0  0
    0.8717   -1.4405    1.5919 O   0  0  0  0  0  0  0  0  0  0  0  0
    2.5793   -0.3917    0.4233 C   0  0  0  0  0  0  0  0  0  0  0  0
    3.0844    0.6807   -0.2816 C   0  0  0  0  0  0  0  0  0  0  0  0
    4.4365    0.9433   -0.3328 C   0  0  0  0  0  0  0  0  0  0  0  0
    5.3415    0.1208    0.3345 C   0  0  0  0  0  0  0  0  0  0  0  0
    4.8728   -0.9608    1.0487 C   0  0  0  0  0  0  0  0  0  0  0  0
    3.5355   -1.1764    1.0686 C   0  0  0  0  0  0  0  0  0  0  0  0
   -1.2020   -0.3415    0.1565 C   0  0  0  0  0  0  0  0  0  0  0  0
   -4.0939   -1.8918    0.8089 H   0  0  0  0  0  0  0  0  0  0  0  0
   -4.8364   -0.4669    1.6179 H   0  0  0  0  0  0  0  0  0  0  0  0
   -3.1435   -0.8441    1.9167 H   0  0  0  0  0  0  0  0  0  0  0  0
   -4.4419   -0.0967   -0.7988 H   0  0  0  0  0  0  0  0  0  0  0  0
   -2.9554    2.9857    1.5678 H   0  0  0  0  0  0  0  0  0  0  0  0
   -2.9574    0.3630   -2.6416 H   0  0  0  0  0  0  0  0  0  0  0  0
   -0.7579    0.1825   -3.5625 H   0  0  0  0  0  0  0  0  0  0  0  0
    1.2178   -0.3376   -2.1577 H   0  0  0  0  0  0  0  0  0  0  0  0
    2.3893    1.3174   -0.7960 H   0  0  0  0  0  0  0  0  0  0  0  0
    4.8660    1.7774   -0.8682 H   0  0  0  0  0  0  0  0  0  0  0  0
    6.4044    0.2746    0.3326 H   0  0  0  0  0  0  0  0  0  0  0  0
    5.5366   -1.6449    1.5936 H   0  0  0  0  0  0  0  0  0  0  0  0
    3.1776   -2.0469    1.6404 H   0  0  0  0  0  0  0  0  0  0  0  0
   -1.2762   -0.4993    1.2361 H   0  0  0  0  0  0  0  0  0  0  0  0
  1  2  1  0
  2  3  1  0
  3  4  2  0
  3  5  1  0
  2  6  1  0
  6  7  2  0
  7  8  1  0
  8  9  2  0
  9 10  1  0
 10 11  1  0
 11 12  2  0
 11 13  1  0
 13 14  2  0
 14 15  1  0
 15 16  2  0
 16 17  1  0
 17 18  2  0
 10 19  2  0
 19  6  1  0
 18 13  1  0
  1 20  1  0
  1 21  1  0
  1 22  1  0
  2 23  1  0
  5 24  1  0
  7 25  1  0
  8 26  1  0
  9 27  1  0
 14 28  1  0
 15 29  1  0
 16 30  1  0
 17 31  1  0
 18 32  1  0
 19 33  1  0
M  END
$$$$
