@<TRIPOS>MOLECULE
*****
 33 34 0 0 0
SMALL
GASTEIGER

@<TRIPOS>ATOM
      1 C          -3.9013   -0.8533    1.1153 C.3     1  UNL1       -0.0482
      2 C          -3.6326    0.0624   -0.0291 C.3     1  UNL1        0.0784
      3 C          -3.7870    1.4763    0.4663 C.2     1  UNL1        0.3119
      4 O          -4.7117    2.1875    0.0352 O.2     1  UNL1       -0.2503
      5 O          -2.9121    1.9895    1.3959 O.3     1  UNL1       -0.4802
      6 C          -2.2860   -0.0523   -0.6263 C.ar    1  UNL1       -0.0333
      7 C          -2.1222    0.1374   -1.9807 C.ar    1  UNL1       -0.0578
      8 C          -0.8578    0.0291   -2.5022 C.ar    1  UNL1       -0.0608
      9 C           0.2432   -0.2657   -1.6947 C.ar    1  UNL1       -0.0509
     10 C           0.1078   -0.4616   -0.3390 C.ar    1  UNL1        0.0225
     11 C           1.2113   -0.7557    0.5476 C.2     1  UNL1        0.1931
     12 O           0.8717   -1.4405    1.5919 O.2     1  UNL1       -0.2867
     13 C           2.5793   -0.3917    0.4233 C.ar    1  UNL1        0.0223
     14 C           3.0844    0.6807   -0.2816 C.ar    1  UNL1       -0.0509
     15 C           4.4365    0.9433   -0.3328 C.ar    1  UNL1       -0.0611
     16 C           5.3415    0.1208    0.3345 C.ar    1  UNL1       -0.0617
     17 C           4.8728   -0.9608    1.0487 C.ar    1  UNL1       -0.0611
     18 C           3.5355   -1.1764    1.0686 C.ar    1  UNL1       -0.0509
     19 C          -1.2020   -0.3415    0.1565 C.ar    1  UNL1       -0.0470
     20 H          -4.0939   -1.8918    0.8089 H       1  UNL1        0.0241
     21 H          -4.8364   -0.4669    1.6179 H       1  UNL1        0.0241
     22 H          -3.1435   -0.8441    1.9167 H       1  UNL1        0.0241
     23 H          -4.4419   -0.0967   -0.7988 H       1  UNL1        0.0459
     24 H          -2.9554    2.9857    1.5678 H       1  UNL1        0.2951
     25 H          -2.9574    0.3630   -2.6416 H       1  UNL1        0.0621
     26 H          -0.7579    0.1825   -3.5625 H       1  UNL1        0.0618
     27 H           1.2178   -0.3376   -2.1577 H       1  UNL1        0.0625
     28 H           2.3893    1.3174   -0.7960 H       1  UNL1        0.0625
     29 H           4.8660    1.7774   -0.8682 H       1  UNL1        0.0618
     30 H           6.4044    0.2746    0.3326 H       1  UNL1        0.0618
     31 H           5.5366   -1.6449    1.5936 H       1  UNL1        0.0618
     32 H           3.1776   -2.0469    1.6404 H       1  UNL1        0.0625
     33 H          -1.2762   -0.4993    1.2361 H       1  UNL1        0.0628
@<TRIPOS>BOND
     1     1     2    1
     2     2     3    1
     3     3     4    2
     4     3     5    1
     5     2     6    1
     6     6     7   ar
     7     7     8   ar
     8     8     9   ar
     9     9    10   ar
    10    10    11    1
    11    11    12    2
    12    11    13    1
    13    13    14   ar
    14    14    15   ar
    15    15    16   ar
    16    16    17   ar
    17    17    18   ar
    18    10    19   ar
    19    19     6   ar
    20    18    13   ar
    21     1    20    1
    22     1    21    1
    23     1    22    1
    24     2    23    1
    25     5    24    1
    26     7    25    1
    27     8    26    1
    28     9    27    1
    29    14    28    1
    30    15    29    1
    31    16    30    1
    32    17    31    1
    33    18    32    1
    34    19    33    1
