@<TRIPOS>MOLECULE
*****
 43 46 0 0 0
SMALL
GASTEIGER

@<TRIPOS>ATOM
      1 C           4.0058   -0.2339   -0.5595 C.3     1  UNL1        0.0083
      2 N           2.5522   -0.2376   -0.6532 N.am    1  UNL1       -0.2727
      3 C           1.8286   -0.1532    0.5610 C.ar    1  UNL1        0.0450
      4 C           0.5033    0.0467    0.8695 C.ar    1  UNL1        0.0421
      5 C          -0.0049    0.0959    2.1508 C.ar    1  UNL1       -0.0326
      6 C           0.8899   -0.0688    3.2036 C.ar    1  UNL1        0.0415
      7 CL          0.2696   -0.0105    4.8452 Cl      1  UNL1       -0.0835
      8 C           2.2456   -0.2745    2.9380 C.ar    1  UNL1       -0.0416
      9 C           2.6776   -0.3112    1.6325 C.ar    1  UNL1       -0.0384
     10 C          -0.5659    0.2383   -0.1728 C.3     1  UNL1        0.2350
     11 O          -1.4395    1.2059    0.3824 O.2     1  UNL1       -0.4642
     12 C          -1.5308    2.5179    0.0119 C.2     1  UNL1        0.1032
     13 C          -2.3541    3.4522    0.8514 C.3     1  UNL1       -0.0067
     14 C          -0.9346    3.0209   -1.0488 C.2     1  UNL1        0.0378
     15 C          -0.1552    2.0599   -1.8143 C.2     1  UNL1        0.2464
     16 O           0.4526    2.4453   -2.8468 O.2     1  UNL1       -0.2704
     17 N          -0.0535    0.6728   -1.4297 N.am    1  UNL1       -0.2434
     18 C           0.6097   -0.0585   -2.4972 C.3     1  UNL1        0.0960
     19 C           1.9875   -0.3270   -1.9770 C.2     1  UNL1        0.2371
     20 O           2.8098   -0.7001   -2.8513 O.2     1  UNL1       -0.2735
     21 C          -1.3354   -1.0360   -0.2302 C.ar    1  UNL1        0.0195
     22 C          -0.7924   -2.2598   -0.5611 C.ar    1  UNL1       -0.0528
     23 C          -1.5295   -3.4244   -0.6081 C.ar    1  UNL1       -0.0613
     24 C          -2.8742   -3.4046   -0.3172 C.ar    1  UNL1       -0.0617
     25 C          -3.4721   -2.2207    0.0185 C.ar    1  UNL1       -0.0613
     26 C          -2.7043   -1.0971    0.0517 C.ar    1  UNL1       -0.0528
     27 H           4.4177   -1.2087   -0.2360 H       1  UNL1        0.0433
     28 H           4.4099    0.6430   -0.0242 H       1  UNL1        0.0433
     29 H           4.4005   -0.1136   -1.6060 H       1  UNL1        0.0433
     30 H          -1.0494    0.2549    2.3334 H       1  UNL1        0.0637
     31 H           2.8928   -0.3959    3.7989 H       1  UNL1        0.0633
     32 H           3.7309   -0.4738    1.5420 H       1  UNL1        0.0637
     33 H          -2.9094    4.1594    0.2118 H       1  UNL1        0.0308
     34 H          -3.1246    2.8496    1.4022 H       1  UNL1        0.0308
     35 H          -1.7484    3.9501    1.6157 H       1  UNL1        0.0308
     36 H          -0.9829    4.0593   -1.3772 H       1  UNL1        0.0703
     37 H           0.1093   -0.9894   -2.7804 H       1  UNL1        0.0562
     38 H           0.7474    0.5759   -3.3962 H       1  UNL1        0.0562
     39 H           0.2492   -2.3168   -0.7923 H       1  UNL1        0.0622
     40 H          -1.0296   -4.3476   -0.8772 H       1  UNL1        0.0618
     41 H          -3.4657   -4.2932   -0.3469 H       1  UNL1        0.0618
     42 H          -4.5401   -2.1417    0.2607 H       1  UNL1        0.0618
     43 H          -3.1935   -0.1497    0.3227 H       1  UNL1        0.0622
@<TRIPOS>BOND
     1     1     2    1
     2     2     3    1
     3     3     4   ar
     4     4     5   ar
     5     5     6   ar
     6     6     7    1
     7     6     8   ar
     8     8     9   ar
     9     4    10    1
    10    10    11    1
    11    11    12    1
    12    12    13    1
    13    12    14    2
    14    14    15    1
    15    15    16    2
    16    15    17   am
    17    17    18    1
    18    18    19    1
    19    19    20    2
    20    10    21    1
    21    21    22   ar
    22    22    23   ar
    23    23    24   ar
    24    24    25   ar
    25    25    26   ar
    26    19     2   am
    27    26    21   ar
    28     9     3   ar
    29    17    10    1
    30     1    27    1
    31     1    28    1
    32     1    29    1
    33     5    30    1
    34     8    31    1
    35     9    32    1
    36    13    33    1
    37    13    34    1
    38    13    35    1
    39    14    36    1
    40    18    37    1
    41    18    38    1
    42    22    39    1
    43    23    40    1
    44    24    41    1
    45    25    42    1
    46    26    43    1
