
     RDKit          3D

 43 46  0  0  0  0  0  0  0  0999 V2000
    4.0058   -0.2339   -0.5595 C   0  0  0  0  0  0  0  0  0  0  0  0
    2.5522   -0.2376   -0.6532 N   0  0  0  0  0  0  0  0  0  0  0  0
    1.8286   -0.1532    0.5610 C   0  0  0  0  0  0  0  0  0  0  0  0
    0.5033    0.0467    0.8695 C   0  0  0  0  0  0  0  0  0  0  0  0
   -0.0049    0.0959    2.1508 C   0  0  0  0  0  0  0  0  0  0  0  0
    0.8899   -0.0688    3.2036 C   0  0  0  0  0  0  0  0  0  0  0  0
    0.2696   -0.0105    4.8452 Cl  0  0  0  0  0  0  0  0  0  0  0  0
    2.2456   -0.2745    2.9380 C   0  0  0  0  0  0  0  0  0  0  0  0
    2.6776   -0.3112    1.6325 C   0  0  0  0  0  0  0  0  0  0  0  0
   -0.5659    0.2383   -0.1728 C   0  0  0  0  0  0  0  0  0  0  0  0
   -1.4395    1.2059    0.3824 O   0  0  0  0  0  0  0  0  0  0  0  0
   -1.5308    2.5179    0.0119 C   0  0  0  0  0  0  0  0  0  0  0  0
   -2.3541    3.4522    0.8514 C   0  0  0  0  0  0  0  0  0  0  0  0
   -0.9346    3.0209   -1.0488 C   0  0  0  0  0  0  0  0  0  0  0  0
   -0.1552    2.0599   -1.8143 C   0  0  0  0  0  0  0  0  0  0  0  0
    0.4526    2.4453   -2.8468 O   0  0  0  0  0  0  0  0  0  0  0  0
   -0.0535    0.6728   -1.4297 N   0  0  0  0  0  0  0  0  0  0  0  0
    0.6097   -0.0585   -2.4972 C   0  0  0  0  0  0  0  0  0  0  0  0
    1.9875   -0.3270   -1.9770 C   0  0  0  0  0  0  0  0  0  0  0  0
    2.8098   -0.7001   -2.8513 O   0  0  0  0  0  0  0  0  0  0  0  0
   -1.3354   -1.0360   -0.2302 C   0  0  0  0  0  0  0  0  0  0  0  0
   -0.7924   -2.2598   -0.5611 C   0  0  0  0  0  0  0  0  0  0  0  0
   -1.5295   -3.4244   -0.6081 C   0  0  0  0  0  0  0  0  0  0  0  0
   -2.8742   -3.4046   -0.3172 C   0  0  0  0  0  0  0  0  0  0  0  0
   -3.4721   -2.2207    0.0185 C   0  0  0  0  0  0  0  0  0  0  0  0
   -2.7043   -1.0971    0.0517 C   0  0  0  0  0  0  0  0  0  0  0  0
    4.4177   -1.2087   -0.2360 H   0  0  0  0  0  0  0  0  0  0  0  0
    4.4099    0.6430   -0.0242 H   0  0  0  0  0  0  0  0  0  0  0  0
    4.4005   -0.1136   -1.6060 H   0  0  0  0  0  0  0  0  0  0  0  0
   -1.0494    0.2549    2.3334 H   0  0  0  0  0  0  0  0  0  0  0  0
    2.8928   -0.3959    3.7989 H   0  0  0  0  0  0  0  0  0  0  0  0
    3.7309   -0.4738    1.5420 H   0  0  0  0  0  0  0  0  0  0  0  0
   -2.9094    4.1594    0.2118 H   0  0  0  0  0  0  0  0  0  0  0  0
   -3.1246    2.8496    1.4022 H   0  0  0  0  0  0  0  0  0  0  0  0
   -1.7484    3.9501    1.6157 H   0  0  0  0  0  0  0  0  0  0  0  0
   -0.9829    4.0593   -1.3772 H   0  0  0  0  0  0  0  0  0  0  0  0
    0.1093   -0.9894   -2.7804 H   0  0  0  0  0  0  0  0  0  0  0  0
    0.7474    0.5759   -3.3962 H   0  0  0  0  0  0  0  0  0  0  0  0
    0.2492   -2.3168   -0.7923 H   0  0  0  0  0  0  0  0  0  0  0  0
   -1.0296   -4.3476   -0.8772 H   0  0  0  0  0  0  0  0  0  0  0  0
   -3.4657   -4.2932   -0.3469 H   0  0  0  0  0  0  0  0  0  0  0  0
   -4.5401   -2.1417    0.2607 H   0  0  0  0  0  0  0  0  0  0  0  0
   -3.1935   -0.1497    0.3227 H   0  0  0  0  0  0  0  0  0  0  0  0
  1  2  1  0
  2  3  1  0
  3  4  2  0
  4  5  1  0
  5  6  2  0
  6  7  1  0
  6  8  1  0
  8  9  2  0
  4 10  1  0
 10 11  1  0
 11 12  1  0
 12 13  1  0
 12 14  2  0
 14 15  1  0
 15 16  2  0
 15 17  1  0
 17 18  1  0
 18 19  1  0
 19 20  2  0
 10 21  1  0
 21 22  2  0
 22 23  1  0
 23 24  2  0
 24 25  1  0
 25 26  2  0
 19  2  1  0
 26 21  1  0
  9  3  1  0
 17 10  1  0
  1 27  1  0
  1 28  1  0
  1 29  1  0
  5 30  1  0
  8 31  1  0
  9 32  1  0
 13 33  1  0
 13 34  1  0
 13 35  1  0
 14 36  1  0
 18 37  1  0
 18 38  1  0
 22 39  1  0
 23 40  1  0
 24 41  1  0
 25 42  1  0
 26 43  1  0
M  END
$$$$
