@<TRIPOS>MOLECULE
*****
 24 24 0 0 0
SMALL
GASTEIGER

@<TRIPOS>ATOM
      1 C          -3.7577    0.1302    0.1719 C.3     1  UNL1       -0.0613
      2 C          -2.7974    0.2347   -1.0106 C.3     1  UNL1       -0.0305
      3 C          -1.4201    0.1766   -0.5081 C.ar    1  UNL1       -0.0475
      4 C          -0.7542    1.3441   -0.1554 C.ar    1  UNL1       -0.0568
      5 C           0.5553    1.3331    0.3263 C.ar    1  UNL1       -0.0390
      6 C           1.2433    0.1513    0.4715 C.ar    1  UNL1        0.0499
      7 N           2.5633    0.0970    0.9532 N.pl3   1  UNL1       -0.1971
      8 S           3.7239   -0.9074    0.1466 S.O2    1  UNL1        0.1639
      9 O           3.8462   -0.2989   -1.4318 O.3     1  UNL1       -0.2378
     10 O           5.0594   -0.8252    0.8314 O.2     1  UNL1       -0.1267
     11 O           3.3317   -2.3453    0.1314 O.2     1  UNL1       -0.1267
     12 C           0.5739   -1.0129    0.1179 C.ar    1  UNL1       -0.0390
     13 C          -0.7359   -1.0086   -0.3646 C.ar    1  UNL1       -0.0568
     14 H          -4.7901    0.0065   -0.2150 H       1  UNL1        0.0233
     15 H          -3.4566   -0.6735    0.8505 H       1  UNL1        0.0233
     16 H          -3.7213    1.1164    0.6668 H       1  UNL1        0.0233
     17 H          -3.0234    1.1470   -1.5713 H       1  UNL1        0.0311
     18 H          -3.0178   -0.6192   -1.6700 H       1  UNL1        0.0311
     19 H          -1.2472    2.3042   -0.2491 H       1  UNL1        0.0621
     20 H           1.0489    2.2534    0.5928 H       1  UNL1        0.0637
     21 H           2.8436    0.6538    1.7864 H       1  UNL1        0.1756
     22 H           4.1683    0.6477   -1.2982 H       1  UNL1        0.2463
     23 H           1.0215   -1.9948    0.1928 H       1  UNL1        0.0637
     24 H          -1.2574   -1.9100   -0.6396 H       1  UNL1        0.0621
@<TRIPOS>BOND
     1     1     2    1
     2     2     3    1
     3     3     4   ar
     4     4     5   ar
     5     5     6   ar
     6     6     7    1
     7     7     8    1
     8     8     9    1
     9     8    10    2
    10     8    11    2
    11     6    12   ar
    12    12    13   ar
    13    13     3   ar
    14     1    14    1
    15     1    15    1
    16     1    16    1
    17     2    17    1
    18     2    18    1
    19     4    19    1
    20     5    20    1
    21     7    21    1
    22     9    22    1
    23    12    23    1
    24    13    24    1
