
     RDKit          3D

 54 56  0  0  0  0  0  0  0  0999 V2000
    9.8695   -0.5256    0.8157 C   0  0  0  0  0  0  0  0  0  0  0  0
    8.7159   -1.1566    0.7913 C   0  0  0  0  0  0  0  0  0  0  0  0
    7.4818   -0.3883    0.5333 C   0  0  0  0  0  0  0  0  0  0  0  0
    7.5316    0.8511    0.3397 O   0  0  0  0  0  0  0  0  0  0  0  0
    6.2067   -1.0107    0.4943 N   0  0  0  0  0  0  0  0  0  0  0  0
    5.0057   -0.2958    0.2485 C   0  0  0  0  0  0  0  0  0  0  0  0
    4.2896    0.2421    1.2947 C   0  0  0  0  0  0  0  0  0  0  0  0
    3.1121    0.9451    1.0756 C   0  0  0  0  0  0  0  0  0  0  0  0
    2.6881    1.0837   -0.2266 C   0  0  0  0  0  0  0  0  0  0  0  0
    1.2162    1.9600   -0.5278 S   0  0  0  0  0  6  0  0  0  0  0  0
    0.9618    2.9962    0.5451 O   0  0  0  0  0  0  0  0  0  0  0  0
    1.2796    2.6752   -1.8472 O   0  0  0  0  0  0  0  0  0  0  0  0
   -0.0927    0.8348   -0.4899 N   0  0  0  0  0  0  0  0  0  0  0  0
    0.0560   -0.1522   -1.5085 C   0  0  0  0  0  0  0  0  0  0  0  0
   -1.0196   -1.1930   -1.5563 C   0  0  0  0  0  0  0  0  0  0  0  0
   -2.2759   -0.4700   -1.1707 N   0  0  0  0  0  0  0  0  0  0  0  0
   -3.2987   -1.1581   -0.5290 C   0  0  0  0  0  0  0  0  0  0  0  0
   -3.0129   -2.4406   -0.3727 O   0  0  0  0  0  0  0  0  0  0  0  0
   -4.5494   -0.7361   -0.0319 N   0  0  0  0  0  0  0  0  0  0  0  0
   -5.3773   -1.8013    0.5563 C   0  0  0  0  0  0  0  0  0  0  0  0
   -6.3565   -1.3115    1.5580 C   0  0  0  0  0  0  0  0  0  0  0  0
   -7.1344   -0.1249    0.9765 C   0  0  0  0  0  0  0  0  0  0  0  0
   -7.7386   -0.4401   -0.2069 F   0  0  0  0  0  0  0  0  0  0  0  0
   -8.0431    0.2459    1.9287 F   0  0  0  0  0  0  0  0  0  0  0  0
   -6.1195    0.9763    0.8496 C   0  0  0  0  0  0  0  0  0  0  0  0
   -4.9734    0.6169   -0.0880 C   0  0  0  0  0  0  0  0  0  0  0  0
   -2.2374    0.9109   -1.5572 C   0  0  0  0  0  0  0  0  0  0  0  0
   -1.3193    1.5949   -0.5376 C   0  0  0  0  0  0  0  0  0  0  0  0
    3.3675    0.5652   -1.3078 C   0  0  0  0  0  0  0  0  0  0  0  0
    4.5366   -0.1276   -1.0354 C   0  0  0  0  0  0  0  0  0  0  0  0
   10.7657   -1.0939    1.0046 H   0  0  0  0  0  0  0  0  0  0  0  0
    9.9227    0.5288    0.6521 H   0  0  0  0  0  0  0  0  0  0  0  0
    8.6831   -2.2037    0.9558 H   0  0  0  0  0  0  0  0  0  0  0  0
    6.1386   -2.0302    0.6506 H   0  0  0  0  0  0  0  0  0  0  0  0
    4.6362    0.1235    2.3035 H   0  0  0  0  0  0  0  0  0  0  0  0
    2.5466    1.3709    1.9135 H   0  0  0  0  0  0  0  0  0  0  0  0
    1.0095   -0.7139   -1.2712 H   0  0  0  0  0  0  0  0  0  0  0  0
    0.2330    0.2661   -2.5328 H   0  0  0  0  0  0  0  0  0  0  0  0
   -1.1016   -1.5751   -2.5830 H   0  0  0  0  0  0  0  0  0  0  0  0
   -0.8098   -2.0031   -0.8612 H   0  0  0  0  0  0  0  0  0  0  0  0
   -5.9126   -2.2546   -0.3085 H   0  0  0  0  0  0  0  0  0  0  0  0
   -4.6853   -2.5108    1.0410 H   0  0  0  0  0  0  0  0  0  0  0  0
   -5.7976   -0.8824    2.4383 H   0  0  0  0  0  0  0  0  0  0  0  0
   -7.0310   -2.1072    1.8889 H   0  0  0  0  0  0  0  0  0  0  0  0
   -5.7309    1.1667    1.8904 H   0  0  0  0  0  0  0  0  0  0  0  0
   -6.5657    1.9372    0.5299 H   0  0  0  0  0  0  0  0  0  0  0  0
   -5.3037    0.8997   -1.0958 H   0  0  0  0  0  0  0  0  0  0  0  0
   -4.1169    1.2365    0.3098 H   0  0  0  0  0  0  0  0  0  0  0  0
   -1.6705    0.9586   -2.5497 H   0  0  0  0  0  0  0  0  0  0  0  0
   -3.1698    1.4177   -1.7287 H   0  0  0  0  0  0  0  0  0  0  0  0
   -1.7833    1.5204    0.4608 H   0  0  0  0  0  0  0  0  0  0  0  0
   -1.1448    2.6489   -0.8475 H   0  0  0  0  0  0  0  0  0  0  0  0
    3.0309    0.6763   -2.3304 H   0  0  0  0  0  0  0  0  0  0  0  0
    5.0872   -0.5423   -1.8515 H   0  0  0  0  0  0  0  0  0  0  0  0
  1  2  2  3
  2  3  1  0
  3  4  2  0
  3  5  1  0
  5  6  1  0
  6  7  2  0
  7  8  1  0
  8  9  2  0
  9 10  1  0
 10 11  2  0
 10 12  2  0
 10 13  1  0
 13 14  1  0
 14 15  1  0
 15 16  1  0
 16 17  1  0
 17 18  2  0
 17 19  1  0
 19 20  1  0
 20 21  1  0
 21 22  1  0
 22 23  1  0
 22 24  1  0
 22 25  1  0
 25 26  1  0
 16 27  1  0
 27 28  1  0
  9 29  1  0
 29 30  2  0
 30  6  1  0
 28 13  1  0
 26 19  1  0
  1 31  1  0
  1 32  1  0
  2 33  1  0
  5 34  1  0
  7 35  1  0
  8 36  1  0
 14 37  1  0
 14 38  1  0
 15 39  1  0
 15 40  1  0
 20 41  1  0
 20 42  1  0
 21 43  1  0
 21 44  1  0
 25 45  1  0
 25 46  1  0
 26 47  1  0
 26 48  1  0
 27 49  1  0
 27 50  1  0
 28 51  1  0
 28 52  1  0
 29 53  1  0
 30 54  1  0
M  END
$$$$
