@<TRIPOS>MOLECULE
*****
 54 56 0 0 0
SMALL
GASTEIGER

@<TRIPOS>ATOM
      1 C           9.8695   -0.5256    0.8157 C.2     1  UNL1       -0.0938
      2 C           8.7159   -1.1566    0.7913 C.2     1  UNL1       -0.0066
      3 C           7.4818   -0.3883    0.5333 C.2     1  UNL1        0.2405
      4 O           7.5316    0.8511    0.3397 O.2     1  UNL1       -0.2705
      5 N           6.2067   -1.0107    0.4943 N.am    1  UNL1       -0.2820
      6 C           5.0057   -0.2958    0.2485 C.ar    1  UNL1        0.0338
      7 C           4.2896    0.2421    1.2947 C.ar    1  UNL1       -0.0386
      8 C           3.1121    0.9451    1.0756 C.ar    1  UNL1       -0.0336
      9 C           2.6881    1.0837   -0.2266 C.ar    1  UNL1        0.1056
     10 S           1.2162    1.9600   -0.5278 S.O2    1  UNL1        0.0609
     11 O           0.9618    2.9962    0.5451 O.2     1  UNL1       -0.1528
     12 O           1.2796    2.6752   -1.8472 O.2     1  UNL1       -0.1528
     13 N          -0.0927    0.8348   -0.4899 N.3     1  UNL1       -0.1736
     14 C           0.0560   -0.1522   -1.5085 C.3     1  UNL1        0.0364
     15 C          -1.0196   -1.1930   -1.5563 C.3     1  UNL1        0.0306
     16 N          -2.2759   -0.4700   -1.1707 N.am    1  UNL1       -0.2829
     17 C          -3.2987   -1.1581   -0.5290 C.2     1  UNL1        0.3049
     18 O          -3.0129   -2.4406   -0.3727 O.2     1  UNL1       -0.2524
     19 N          -4.5494   -0.7361   -0.0319 N.am    1  UNL1       -0.2851
     20 C          -5.3773   -1.8013    0.5563 C.3     1  UNL1        0.0215
     21 C          -6.3565   -1.3115    1.5580 C.3     1  UNL1        0.0266
     22 C          -7.1344   -0.1249    0.9765 C.3     1  UNL1        0.2518
     23 F          -7.7386   -0.4401   -0.2069 F       1  UNL1       -0.2056
     24 F          -8.0431    0.2459    1.9287 F       1  UNL1       -0.2056
     25 C          -6.1195    0.9763    0.8496 C.3     1  UNL1        0.0266
     26 C          -4.9734    0.6169   -0.0880 C.3     1  UNL1        0.0215
     27 C          -2.2374    0.9109   -1.5572 C.3     1  UNL1        0.0306
     28 C          -1.3193    1.5949   -0.5376 C.3     1  UNL1        0.0364
     29 C           3.3675    0.5652   -1.3078 C.ar    1  UNL1       -0.0336
     30 C           4.5366   -0.1276   -1.0354 C.ar    1  UNL1       -0.0386
     31 H          10.7657   -1.0939    1.0046 H       1  UNL1        0.0536
     32 H           9.9227    0.5288    0.6521 H       1  UNL1        0.0536
     33 H           8.6831   -2.2037    0.9558 H       1  UNL1        0.0663
     34 H           6.1386   -2.0302    0.6506 H       1  UNL1        0.1551
     35 H           4.6362    0.1235    2.3035 H       1  UNL1        0.0637
     36 H           2.5466    1.3709    1.9135 H       1  UNL1        0.0638
     37 H           1.0095   -0.7139   -1.2712 H       1  UNL1        0.0459
     38 H           0.2330    0.2661   -2.5328 H       1  UNL1        0.0459
     39 H          -1.1016   -1.5751   -2.5830 H       1  UNL1        0.0478
     40 H          -0.8098   -2.0031   -0.8612 H       1  UNL1        0.0478
     41 H          -5.9126   -2.2546   -0.3085 H       1  UNL1        0.0467
     42 H          -4.6853   -2.5108    1.0410 H       1  UNL1        0.0467
     43 H          -5.7976   -0.8824    2.4383 H       1  UNL1        0.0338
     44 H          -7.0310   -2.1072    1.8889 H       1  UNL1        0.0338
     45 H          -5.7309    1.1667    1.8904 H       1  UNL1        0.0338
     46 H          -6.5657    1.9372    0.5299 H       1  UNL1        0.0338
     47 H          -5.3037    0.8997   -1.0958 H       1  UNL1        0.0467
     48 H          -4.1169    1.2365    0.3098 H       1  UNL1        0.0467
     49 H          -1.6705    0.9586   -2.5497 H       1  UNL1        0.0478
     50 H          -3.1698    1.4177   -1.7287 H       1  UNL1        0.0478
     51 H          -1.7833    1.5204    0.4608 H       1  UNL1        0.0459
     52 H          -1.1448    2.6489   -0.8475 H       1  UNL1        0.0459
     53 H           3.0309    0.6763   -2.3304 H       1  UNL1        0.0638
     54 H           5.0872   -0.5423   -1.8515 H       1  UNL1        0.0637
@<TRIPOS>BOND
     1     1     2    2
     2     2     3    1
     3     3     4    2
     4     3     5   am
     5     5     6    1
     6     6     7   ar
     7     7     8   ar
     8     8     9   ar
     9     9    10    1
    10    10    11    2
    11    10    12    2
    12    10    13    1
    13    13    14    1
    14    14    15    1
    15    15    16    1
    16    16    17   am
    17    17    18    2
    18    17    19   am
    19    19    20    1
    20    20    21    1
    21    21    22    1
    22    22    23    1
    23    22    24    1
    24    22    25    1
    25    25    26    1
    26    16    27    1
    27    27    28    1
    28     9    29   ar
    29    29    30   ar
    30    30     6   ar
    31    28    13    1
    32    26    19    1
    33     1    31    1
    34     1    32    1
    35     2    33    1
    36     5    34    1
    37     7    35    1
    38     8    36    1
    39    14    37    1
    40    14    38    1
    41    15    39    1
    42    15    40    1
    43    20    41    1
    44    20    42    1
    45    21    43    1
    46    21    44    1
    47    25    45    1
    48    25    46    1
    49    26    47    1
    50    26    48    1
    51    27    49    1
    52    27    50    1
    53    28    51    1
    54    28    52    1
    55    29    53    1
    56    30    54    1
