@<TRIPOS>MOLECULE
*****
 62 66 0 0 0
SMALL
GASTEIGER

@<TRIPOS>ATOM
      1 C           1.7680    4.6378    0.3876 C.3     1  UNL1       -0.0653
      2 C           0.6172    3.6851    0.2295 C.3     1  UNL1       -0.0556
      3 C           1.0360    2.2318    0.2845 C.3     1  UNL1       -0.0478
      4 C           2.0108    1.9822   -0.8273 C.3     1  UNL1       -0.0084
      5 C           2.3981    0.5265   -0.8102 C.ar    1  UNL1        0.0677
      6 N           3.4207    0.0320   -0.0742 N.ar    1  UNL1       -0.1703
      7 N           3.5045   -1.2662   -0.1740 N.ar    1  UNL1       -0.2238
      8 C           4.4608   -2.1026    0.4769 C.ar    1  UNL1        0.0846
      9 C           5.4434   -2.7111   -0.2572 C.ar    1  UNL1       -0.0334
     10 C           6.3529   -3.5130    0.3959 C.ar    1  UNL1       -0.0413
     11 C           6.2626   -3.6900    1.7642 C.ar    1  UNL1        0.0425
     12 CL          7.4616   -4.7284    2.5292 Cl      1  UNL1       -0.0835
     13 C           5.2786   -3.0870    2.5370 C.ar    1  UNL1       -0.0230
     14 C           4.3925   -2.2961    1.8488 C.ar    1  UNL1        0.0677
     15 CL          3.1372   -1.4985    2.7759 Cl      1  UNL1       -0.0813
     16 C           2.4987   -1.6580   -1.0118 C.ar    1  UNL1        0.1548
     17 C           2.2748   -3.0266   -1.3599 C.2     1  UNL1        0.3557
     18 O           3.0358   -3.9350   -0.8789 O.2     1  UNL1       -0.2434
     19 O           1.2498   -3.4031   -2.2101 O.3     1  UNL1       -0.4761
     20 C           1.7920   -0.5478   -1.4251 C.ar    1  UNL1        0.0123
     21 C           0.6718   -0.4987   -2.3780 C.3     1  UNL1        0.0016
     22 C          -0.6690   -0.2645   -1.8370 C.ar    1  UNL1       -0.0429
     23 C          -1.3101    0.9687   -2.0038 C.ar    1  UNL1       -0.0577
     24 C          -2.5700    1.2234   -1.5092 C.ar    1  UNL1       -0.0537
     25 C          -3.2584    0.2262   -0.8084 C.ar    1  UNL1       -0.0172
     26 C          -4.6058    0.4384   -0.3073 C.ar    1  UNL1       -0.0072
     27 C          -5.6468    0.5138   -1.2568 C.ar    1  UNL1       -0.0534
     28 C          -6.9668    0.6452   -0.8967 C.ar    1  UNL1       -0.0611
     29 C          -7.3141    0.7084    0.4376 C.ar    1  UNL1       -0.0611
     30 C          -6.3150    0.6381    1.3611 C.ar    1  UNL1       -0.0504
     31 C          -4.9464    0.5035    1.0010 C.ar    1  UNL1        0.0282
     32 C          -3.9678    0.5153    2.0622 C.ar    1  UNL1        0.1799
     33 N          -4.2665    0.2896    3.3814 N.ar    1  UNL1       -0.1084
     34 N          -3.1281    0.3346    4.0494 N.ar    1  UNL1       -0.0229
     35 N          -2.1356    0.5733    3.2431 N.ar    1  UNL1       -0.0464
     36 N          -2.6587    0.6862    2.0081 N.ar    1  UNL1       -0.2388
     37 C          -2.6039   -0.9823   -0.6579 C.ar    1  UNL1       -0.0537
     38 C          -1.3435   -1.2462   -1.1488 C.ar    1  UNL1       -0.0577
     39 H           1.3747    5.5831    0.8347 H       1  UNL1        0.0230
     40 H           2.5548    4.1846    1.0002 H       1  UNL1        0.0230
     41 H           2.1788    4.8781   -0.6333 H       1  UNL1        0.0230
     42 H           0.1459    3.8239   -0.7755 H       1  UNL1        0.0263
     43 H          -0.2033    3.8918    0.9583 H       1  UNL1        0.0263
     44 H           1.5937    2.0392    1.2556 H       1  UNL1        0.0269
     45 H           0.1829    1.5857    0.2063 H       1  UNL1        0.0269
     46 H           1.4925    2.2298   -1.7805 H       1  UNL1        0.0329
     47 H           2.9252    2.5923   -0.7868 H       1  UNL1        0.0329
     48 H           5.4799   -2.5427   -1.3287 H       1  UNL1        0.0640
     49 H           7.1277   -3.9924   -0.1849 H       1  UNL1        0.0633
     50 H           5.2743   -3.2720    3.5903 H       1  UNL1        0.0647
     51 H           0.8389   -4.3289   -2.1632 H       1  UNL1        0.2955
     52 H           0.7173   -1.4139   -3.0217 H       1  UNL1        0.0363
     53 H           0.9053    0.3188   -3.1654 H       1  UNL1        0.0363
     54 H          -0.8046    1.7722   -2.5465 H       1  UNL1        0.0621
     55 H          -3.0511    2.1808   -1.6458 H       1  UNL1        0.0624
     56 H          -5.3606    0.4638   -2.3064 H       1  UNL1        0.0624
     57 H          -7.7754    0.7040   -1.6191 H       1  UNL1        0.0618
     58 H          -8.3641    0.8112    0.7250 H       1  UNL1        0.0618
     59 H          -6.5605    0.6859    2.4154 H       1  UNL1        0.0625
     60 H          -2.0313    0.9020    1.2113 H       1  UNL1        0.1923
     61 H          -3.1294   -1.7695   -0.1129 H       1  UNL1        0.0624
     62 H          -0.8731   -2.2328   -0.9957 H       1  UNL1        0.0621
@<TRIPOS>BOND
     1     1     2    1
     2     2     3    1
     3     3     4    1
     4     4     5    1
     5     5     6   ar
     6     6     7   ar
     7     7     8    1
     8     8     9   ar
     9     9    10   ar
    10    10    11   ar
    11    11    12    1
    12    11    13   ar
    13    13    14   ar
    14    14    15    1
    15     7    16   ar
    16    16    17    1
    17    17    18    2
    18    17    19    1
    19    16    20   ar
    20    20    21    1
    21    21    22    1
    22    22    23   ar
    23    23    24   ar
    24    24    25   ar
    25    25    26    1
    26    26    27   ar
    27    27    28   ar
    28    28    29   ar
    29    29    30   ar
    30    30    31   ar
    31    31    32    1
    32    32    33   ar
    33    33    34   ar
    34    34    35   ar
    35    35    36   ar
    36    25    37   ar
    37    37    38   ar
    38    20     5   ar
    39    38    22   ar
    40    14     8   ar
    41    31    26   ar
    42    36    32   ar
    43     1    39    1
    44     1    40    1
    45     1    41    1
    46     2    42    1
    47     2    43    1
    48     3    44    1
    49     3    45    1
    50     4    46    1
    51     4    47    1
    52     9    48    1
    53    10    49    1
    54    13    50    1
    55    19    51    1
    56    21    52    1
    57    21    53    1
    58    23    54    1
    59    24    55    1
    60    27    56    1
    61    28    57    1
    62    29    58    1
    63    30    59    1
    64    36    60    1
    65    37    61    1
    66    38    62    1
