@<TRIPOS>MOLECULE
*****
 47 50 0 0 0
SMALL
GASTEIGER

@<TRIPOS>ATOM
      1 C           1.9266    0.5619   -2.0179 C.3     1  UNL1       -0.0352
      2 C           1.9117   -0.5464   -0.9667 C.3     1  UNL1        0.0966
      3 C           0.6106   -1.2557   -1.1261 C.ar    1  UNL1        0.0359
      4 C          -0.3727   -1.2328   -0.1665 C.ar    1  UNL1       -0.0293
      5 C          -1.5888   -1.8990   -0.3073 C.ar    1  UNL1        0.0513
      6 N          -2.6126   -1.8753    0.6529 N.pl3   1  UNL1       -0.2965
      7 C          -3.2190   -0.7771    1.2561 C.ar    1  UNL1        0.1493
      8 N          -4.0374   -0.9530    2.3305 N.ar    1  UNL1       -0.2351
      9 C          -4.6549    0.0847    2.9214 C.ar    1  UNL1        0.0656
     10 C          -4.4871    1.3658    2.4693 C.ar    1  UNL1        0.1507
     11 F          -5.0928    2.4476    3.0378 F       1  UNL1       -0.2032
     12 C          -3.6647    1.6076    1.3771 C.ar    1  UNL1        0.0417
     13 C          -3.4903    2.8851    0.8945 C.ar    1  UNL1       -0.0308
     14 C          -2.6782    3.1397   -0.2114 C.ar    1  UNL1        0.0705
     15 C          -2.4827    4.4620   -0.7328 C.1     1  UNL1        0.1007
     16 N          -2.3415    5.5427   -1.1605 N.1     1  UNL1       -0.1908
     17 C          -2.0887    2.0205   -0.7531 C.ar    1  UNL1        0.0458
     18 N          -2.2664    0.7833   -0.2746 N.ar    1  UNL1       -0.2502
     19 C          -3.0491    0.5172    0.7974 C.ar    1  UNL1        0.1137
     20 C          -1.7987   -2.6109   -1.4720 C.ar    1  UNL1        0.0518
     21 N          -0.8457   -2.6406   -2.4158 N.ar    1  UNL1       -0.2255
     22 C           0.3331   -1.9872   -2.2649 C.ar    1  UNL1        0.2188
     23 F           1.2374   -2.0695   -3.2682 F       1  UNL1       -0.1835
     24 C           3.0466   -1.5001   -1.1482 C.3     1  UNL1        0.0224
     25 C           4.1119   -1.4355   -0.1065 C.3     1  UNL1        0.1997
     26 C           5.2059   -0.4380   -0.4612 C.3     1  UNL1        0.4266
     27 F           5.7974   -0.8025   -1.6592 F       1  UNL1       -0.1669
     28 F           4.7584    0.8511   -0.4318 F       1  UNL1       -0.1669
     29 F           6.2286   -0.5247    0.4914 F       1  UNL1       -0.1669
     30 O           3.6005   -1.1090    1.1770 O.2     1  UNL1       -0.4534
     31 C           2.6305   -0.1395    1.3007 C.2     1  UNL1        0.2765
     32 N           2.5292    0.5516    2.5487 N.pl3   1  UNL1       -0.3134
     33 N           1.8671    0.1059    0.3126 N.2     1  UNL1       -0.2256
     34 H           2.9583    0.5536   -2.4513 H       1  UNL1        0.0256
     35 H           1.6494    1.5447   -1.6198 H       1  UNL1        0.0256
     36 H           1.2638    0.2513   -2.8399 H       1  UNL1        0.0256
     37 H          -0.1844   -0.6783    0.7461 H       1  UNL1        0.0641
     38 H          -2.9665   -2.8401    0.9566 H       1  UNL1        0.1537
     39 H          -5.3134   -0.0408    3.7853 H       1  UNL1        0.0860
     40 H          -3.9808    3.7418    1.3616 H       1  UNL1        0.0638
     41 H          -1.4527    2.2171   -1.6286 H       1  UNL1        0.0843
     42 H          -2.7562   -3.1371   -1.5885 H       1  UNL1        0.0849
     43 H           3.5540   -1.3487   -2.1394 H       1  UNL1        0.0330
     44 H           2.6178   -2.5445   -1.1303 H       1  UNL1        0.0330
     45 H           4.5942   -2.4268   -0.0211 H       1  UNL1        0.0826
     46 H           1.7771    0.2575    3.1885 H       1  UNL1        0.1466
     47 H           3.2153    1.3200    2.7583 H       1  UNL1        0.1466
@<TRIPOS>BOND
     1     2     1    1
     2     2     3    1
     3     3     4   ar
     4     4     5   ar
     5     5     6    1
     6     6     7    1
     7     7     8   ar
     8     8     9   ar
     9     9    10   ar
    10    10    11    1
    11    10    12   ar
    12    12    13   ar
    13    13    14   ar
    14    14    15    1
    15    15    16    3
    16    14    17   ar
    17    17    18   ar
    18    18    19   ar
    19     5    20   ar
    20    20    21   ar
    21    21    22   ar
    22    22    23    1
    23     2    24    1
    24    24    25    1
    25    25    26    1
    26    26    27    1
    27    26    28    1
    28    26    29    1
    29    25    30    1
    30    30    31    1
    31    31    32    1
    32    31    33    2
    33    33     2    1
    34    22     3   ar
    35    19     7   ar
    36    19    12   ar
    37     1    34    1
    38     1    35    1
    39     1    36    1
    40     4    37    1
    41     6    38    1
    42     9    39    1
    43    13    40    1
    44    17    41    1
    45    20    42    1
    46    24    43    1
    47    24    44    1
    48    25    45    1
    49    32    46    1
    50    32    47    1
