@<TRIPOS>MOLECULE
*****
 96 100 0 0 0
SMALL
GASTEIGER

@<TRIPOS>ATOM
      1 C          -8.8944   -2.2478   -3.2374 C.3     1  UNL1        0.0364
      2 O          -7.7059   -1.8724   -3.8429 O.3     1  UNL1       -0.3830
      3 C          -7.2159   -0.7423   -3.1615 C.3     1  UNL1        0.0476
      4 C          -5.9194   -0.2677   -3.7521 C.3     1  UNL1       -0.0255
      5 C          -5.4235    0.9351   -3.0102 C.3     1  UNL1       -0.0255
      6 C          -5.2219    0.5596   -1.5757 C.ar    1  UNL1       -0.0435
      7 C          -3.9862    0.0429   -1.1820 C.ar    1  UNL1       -0.0537
      8 C          -3.7051   -0.3289    0.1150 C.ar    1  UNL1       -0.0264
      9 C          -2.4324   -0.8943    0.5803 C.3     1  UNL1        0.0401
     10 N          -1.5313    0.2691    0.9385 N.am    1  UNL1       -0.2938
     11 C          -0.7071    0.6645   -0.1110 C.2     1  UNL1        0.2210
     12 O          -0.7588   -0.2229   -1.1260 O.2     1  UNL1       -0.2752
     13 C           0.1726    1.7865   -0.3770 C.3     1  UNL1        0.0550
     14 C          -0.5833    3.1002   -0.3270 C.3     1  UNL1        0.0076
     15 N           0.0804    4.0996   -1.1610 N.3     1  UNL1       -0.3152
     16 C           1.5132    3.9881   -1.1217 C.3     1  UNL1       -0.0035
     17 C           2.0463    3.3116    0.1130 C.3     1  UNL1       -0.0329
     18 C           1.5185    1.8595    0.1884 C.3     1  UNL1       -0.0024
     19 C           2.5501    0.9630   -0.4249 C.ar    1  UNL1       -0.0432
     20 C           3.6986    0.6606    0.3193 C.ar    1  UNL1       -0.0548
     21 C           4.6515   -0.1464   -0.1960 C.ar    1  UNL1       -0.0197
     22 C           4.5802   -0.7259   -1.4568 C.ar    1  UNL1        0.1207
     23 O           5.5025   -1.5396   -2.0210 O.3     1  UNL1       -0.4886
     24 C           6.7174   -2.0353   -1.5606 C.3     1  UNL1        0.1235
     25 C           6.6626   -2.9249   -0.3766 C.3     1  UNL1        0.1236
     26 O           7.9048   -3.4014    0.0995 O.3     1  UNL1       -0.4857
     27 C           8.9293   -2.6248    0.5617 C.ar    1  UNL1        0.1571
     28 C           9.9529   -2.2050   -0.2298 C.ar    1  UNL1        0.0842
     29 CL         10.0581   -2.6791   -1.9253 Cl      1  UNL1       -0.0797
     30 C          10.9923   -1.4000    0.2726 C.ar    1  UNL1       -0.0368
     31 C          11.0089   -1.0092    1.5898 C.ar    1  UNL1       -0.0475
     32 C          12.1121   -0.1449    2.1350 C.3     1  UNL1       -0.0396
     33 C           9.9793   -1.4281    2.4055 C.ar    1  UNL1       -0.0368
     34 C           8.9631   -2.2175    1.9014 C.ar    1  UNL1        0.0842
     35 CL          7.6490   -2.7577    2.9214 Cl      1  UNL1       -0.0797
     36 C           3.4300   -0.4221   -2.1963 C.ar    1  UNL1       -0.0197
     37 C           2.4565    0.4085   -1.6606 C.ar    1  UNL1       -0.0548
     38 C          -1.5729    0.7038    2.2827 C.3     1  UNL1        0.0265
     39 C          -0.3089    0.3639    3.0716 C.3     1  UNL1       -0.0326
     40 C          -0.8247    1.7563    2.9236 C.3     1  UNL1       -0.0326
     41 C          -4.7303   -0.1657    1.0476 C.ar    1  UNL1       -0.0152
     42 C          -5.9681    0.3379    0.7140 C.ar    1  UNL1        0.1212
     43 O          -7.0059    0.5135    1.5791 O.3     1  UNL1       -0.4897
     44 C          -7.1142    0.2347    2.8936 C.3     1  UNL1        0.1128
     45 C          -7.0617   -1.2213    3.2370 C.3     1  UNL1        0.0813
     46 O          -8.0816   -1.9263    2.6659 O.3     1  UNL1       -0.3796
     47 C          -8.0945   -1.9038    1.3074 C.3     1  UNL1        0.0366
     48 C          -6.1905    0.7006   -0.6341 C.ar    1  UNL1       -0.0167
     49 H          -8.7411   -2.5047   -2.1546 H       1  UNL1        0.0523
     50 H          -9.6640   -1.4547   -3.2723 H       1  UNL1        0.0523
     51 H          -9.3002   -3.1570   -3.7272 H       1  UNL1        0.0523
     52 H          -8.0034    0.0373   -3.2696 H       1  UNL1        0.0560
     53 H          -7.0957   -1.0755   -2.1100 H       1  UNL1        0.0560
     54 H          -5.1581   -1.0695   -3.6575 H       1  UNL1        0.0290
     55 H          -6.0749   -0.0640   -4.8397 H       1  UNL1        0.0290
     56 H          -4.4801    1.3291   -3.4544 H       1  UNL1        0.0314
     57 H          -6.1584    1.7686   -3.0753 H       1  UNL1        0.0314
     58 H          -3.2389   -0.0726   -1.9322 H       1  UNL1        0.0624
     59 H          -2.5726   -1.4384    1.5194 H       1  UNL1        0.0514
     60 H          -1.9201   -1.5148   -0.1774 H       1  UNL1        0.0514
     61 H           0.3950    1.7620   -1.5528 H       1  UNL1        0.0413
     62 H          -1.5608    2.8861   -0.8426 H       1  UNL1        0.0432
     63 H          -0.7482    3.4872    0.6509 H       1  UNL1        0.0432
     64 H          -0.3085    4.0584   -2.1371 H       1  UNL1        0.1220
     65 H           1.9196    3.5666   -2.0738 H       1  UNL1        0.0424
     66 H           1.8955    5.0520   -1.0743 H       1  UNL1        0.0424
     67 H           3.1271    3.2858    0.0934 H       1  UNL1        0.0283
     68 H           1.6507    3.8440    0.9814 H       1  UNL1        0.0283
     69 H           1.5473    1.6381    1.2649 H       1  UNL1        0.0357
     70 H           3.8189    1.0799    1.3133 H       1  UNL1        0.0622
     71 H           5.5301   -0.3356    0.4084 H       1  UNL1        0.0654
     72 H           7.2356   -2.5757   -2.4335 H       1  UNL1        0.0731
     73 H           7.4051   -1.1518   -1.4033 H       1  UNL1        0.0731
     74 H           6.0143   -2.5482    0.4031 H       1  UNL1        0.0731
     75 H           6.1367   -3.8814   -0.7307 H       1  UNL1        0.0731
     76 H          11.7942   -1.0773   -0.3764 H       1  UNL1        0.0636
     77 H          12.5012   -0.6575    3.0386 H       1  UNL1        0.0278
     78 H          11.6491    0.8161    2.4510 H       1  UNL1        0.0278
     79 H          12.8779   -0.0005    1.3751 H       1  UNL1        0.0278
     80 H          10.0047   -1.1162    3.4409 H       1  UNL1        0.0636
     81 H           3.3213   -0.8504   -3.1943 H       1  UNL1        0.0654
     82 H           1.5926    0.5929   -2.3032 H       1  UNL1        0.0622
     83 H          -2.4661    0.2504    2.8816 H       1  UNL1        0.0500
     84 H           0.5504   -0.0208    2.5076 H       1  UNL1        0.0284
     85 H          -0.4494   -0.1797    4.0292 H       1  UNL1        0.0284
     86 H          -1.2952    2.2015    3.8807 H       1  UNL1        0.0284
     87 H          -0.1364    2.4677    2.4749 H       1  UNL1        0.0284
     88 H          -4.4980   -0.4495    2.0636 H       1  UNL1        0.0657
     89 H          -6.2923    0.7940    3.4396 H       1  UNL1        0.0720
     90 H          -8.0517    0.6830    3.3414 H       1  UNL1        0.0720
     91 H          -6.1128   -1.7319    2.9126 H       1  UNL1        0.0593
     92 H          -7.0689   -1.3510    4.3674 H       1  UNL1        0.0593
     93 H          -7.1393   -2.2767    0.8456 H       1  UNL1        0.0524
     94 H          -8.9037   -2.6916    1.0152 H       1  UNL1        0.0524
     95 H          -8.4617   -1.0103    0.8273 H       1  UNL1        0.0524
     96 H          -7.1587    1.1037   -0.9311 H       1  UNL1        0.0657
@<TRIPOS>BOND
     1     1     2    1
     2     2     3    1
     3     3     4    1
     4     4     5    1
     5     5     6    1
     6     6     7   ar
     7     7     8   ar
     8     8     9    1
     9     9    10    1
    10    10    11   am
    11    11    12    2
    12    11    13    1
    13    13    14    1
    14    14    15    1
    15    15    16    1
    16    16    17    1
    17    17    18    1
    18    18    19    1
    19    19    20   ar
    20    20    21   ar
    21    21    22   ar
    22    22    23    1
    23    23    24    1
    24    24    25    1
    25    25    26    1
    26    26    27    1
    27    27    28   ar
    28    28    29    1
    29    28    30   ar
    30    30    31   ar
    31    31    32    1
    32    31    33   ar
    33    33    34   ar
    34    34    35    1
    35    22    36   ar
    36    36    37   ar
    37    10    38    1
    38    38    39    1
    39    39    40    1
    40     8    41   ar
    41    41    42   ar
    42    42    43    1
    43    43    44    1
    44    44    45    1
    45    45    46    1
    46    46    47    1
    47    42    48   ar
    48    48     6   ar
    49    18    13    1
    50    37    19   ar
    51    40    38    1
    52    34    27   ar
    53     1    49    1
    54     1    50    1
    55     1    51    1
    56     3    52    1
    57     3    53    1
    58     4    54    1
    59     4    55    1
    60     5    56    1
    61     5    57    1
    62     7    58    1
    63     9    59    1
    64     9    60    1
    65    13    61    1
    66    14    62    1
    67    14    63    1
    68    15    64    1
    69    16    65    1
    70    16    66    1
    71    17    67    1
    72    17    68    1
    73    18    69    1
    74    20    70    1
    75    21    71    1
    76    24    72    1
    77    24    73    1
    78    25    74    1
    79    25    75    1
    80    30    76    1
    81    32    77    1
    82    32    78    1
    83    32    79    1
    84    33    80    1
    85    36    81    1
    86    37    82    1
    87    38    83    1
    88    39    84    1
    89    39    85    1
    90    40    86    1
    91    40    87    1
    92    41    88    1
    93    44    89    1
    94    44    90    1
    95    45    91    1
    96    45    92    1
    97    47    93    1
    98    47    94    1
    99    47    95    1
   100    48    96    1
