
     RDKit          3D

 96100  0  0  0  0  0  0  0  0999 V2000
   -8.8944   -2.2478   -3.2374 C   0  0  0  0  0  0  0  0  0  0  0  0
   -7.7059   -1.8724   -3.8429 O   0  0  0  0  0  0  0  0  0  0  0  0
   -7.2159   -0.7423   -3.1615 C   0  0  0  0  0  0  0  0  0  0  0  0
   -5.9194   -0.2677   -3.7521 C   0  0  0  0  0  0  0  0  0  0  0  0
   -5.4235    0.9351   -3.0102 C   0  0  0  0  0  0  0  0  0  0  0  0
   -5.2219    0.5596   -1.5757 C   0  0  0  0  0  0  0  0  0  0  0  0
   -3.9862    0.0429   -1.1820 C   0  0  0  0  0  0  0  0  0  0  0  0
   -3.7051   -0.3289    0.1150 C   0  0  0  0  0  0  0  0  0  0  0  0
   -2.4324   -0.8943    0.5803 C   0  0  0  0  0  0  0  0  0  0  0  0
   -1.5313    0.2691    0.9385 N   0  0  0  0  0  0  0  0  0  0  0  0
   -0.7071    0.6645   -0.1110 C   0  0  0  0  0  0  0  0  0  0  0  0
   -0.7588   -0.2229   -1.1260 O   0  0  0  0  0  0  0  0  0  0  0  0
    0.1726    1.7865   -0.3770 C   0  0  1  0  0  0  0  0  0  0  0  0
   -0.5833    3.1002   -0.3270 C   0  0  0  0  0  0  0  0  0  0  0  0
    0.0804    4.0996   -1.1610 N   0  0  0  0  0  0  0  0  0  0  0  0
    1.5132    3.9881   -1.1217 C   0  0  0  0  0  0  0  0  0  0  0  0
    2.0463    3.3116    0.1130 C   0  0  0  0  0  0  0  0  0  0  0  0
    1.5185    1.8595    0.1884 C   0  0  2  0  0  0  0  0  0  0  0  0
    2.5501    0.9630   -0.4249 C   0  0  0  0  0  0  0  0  0  0  0  0
    3.6986    0.6606    0.3193 C   0  0  0  0  0  0  0  0  0  0  0  0
    4.6515   -0.1464   -0.1960 C   0  0  0  0  0  0  0  0  0  0  0  0
    4.5802   -0.7259   -1.4568 C   0  0  0  0  0  0  0  0  0  0  0  0
    5.5025   -1.5396   -2.0210 O   0  0  0  0  0  0  0  0  0  0  0  0
    6.7174   -2.0353   -1.5606 C   0  0  0  0  0  0  0  0  0  0  0  0
    6.6626   -2.9249   -0.3766 C   0  0  0  0  0  0  0  0  0  0  0  0
    7.9048   -3.4014    0.0995 O   0  0  0  0  0  0  0  0  0  0  0  0
    8.9293   -2.6248    0.5617 C   0  0  0  0  0  0  0  0  0  0  0  0
    9.9529   -2.2050   -0.2298 C   0  0  0  0  0  0  0  0  0  0  0  0
   10.0581   -2.6791   -1.9253 Cl  0  0  0  0  0  0  0  0  0  0  0  0
   10.9923   -1.4000    0.2726 C   0  0  0  0  0  0  0  0  0  0  0  0
   11.0089   -1.0092    1.5898 C   0  0  0  0  0  0  0  0  0  0  0  0
   12.1121   -0.1449    2.1350 C   0  0  0  0  0  0  0  0  0  0  0  0
    9.9793   -1.4281    2.4055 C   0  0  0  0  0  0  0  0  0  0  0  0
    8.9631   -2.2175    1.9014 C   0  0  0  0  0  0  0  0  0  0  0  0
    7.6490   -2.7577    2.9214 Cl  0  0  0  0  0  0  0  0  0  0  0  0
    3.4300   -0.4221   -2.1963 C   0  0  0  0  0  0  0  0  0  0  0  0
    2.4565    0.4085   -1.6606 C   0  0  0  0  0  0  0  0  0  0  0  0
   -1.5729    0.7038    2.2827 C   0  0  0  0  0  0  0  0  0  0  0  0
   -0.3089    0.3639    3.0716 C   0  0  0  0  0  0  0  0  0  0  0  0
   -0.8247    1.7563    2.9236 C   0  0  0  0  0  0  0  0  0  0  0  0
   -4.7303   -0.1657    1.0476 C   0  0  0  0  0  0  0  0  0  0  0  0
   -5.9681    0.3379    0.7140 C   0  0  0  0  0  0  0  0  0  0  0  0
   -7.0059    0.5135    1.5791 O   0  0  0  0  0  0  0  0  0  0  0  0
   -7.1142    0.2347    2.8936 C   0  0  0  0  0  0  0  0  0  0  0  0
   -7.0617   -1.2213    3.2370 C   0  0  0  0  0  0  0  0  0  0  0  0
   -8.0816   -1.9263    2.6659 O   0  0  0  0  0  0  0  0  0  0  0  0
   -8.0945   -1.9038    1.3074 C   0  0  0  0  0  0  0  0  0  0  0  0
   -6.1905    0.7006   -0.6341 C   0  0  0  0  0  0  0  0  0  0  0  0
   -8.7411   -2.5047   -2.1546 H   0  0  0  0  0  0  0  0  0  0  0  0
   -9.6640   -1.4547   -3.2723 H   0  0  0  0  0  0  0  0  0  0  0  0
   -9.3002   -3.1570   -3.7272 H   0  0  0  0  0  0  0  0  0  0  0  0
   -8.0034    0.0373   -3.2696 H   0  0  0  0  0  0  0  0  0  0  0  0
   -7.0957   -1.0755   -2.1100 H   0  0  0  0  0  0  0  0  0  0  0  0
   -5.1581   -1.0695   -3.6575 H   0  0  0  0  0  0  0  0  0  0  0  0
   -6.0749   -0.0640   -4.8397 H   0  0  0  0  0  0  0  0  0  0  0  0
   -4.4801    1.3291   -3.4544 H   0  0  0  0  0  0  0  0  0  0  0  0
   -6.1584    1.7686   -3.0753 H   0  0  0  0  0  0  0  0  0  0  0  0
   -3.2389   -0.0726   -1.9322 H   0  0  0  0  0  0  0  0  0  0  0  0
   -2.5726   -1.4384    1.5194 H   0  0  0  0  0  0  0  0  0  0  0  0
   -1.9201   -1.5148   -0.1774 H   0  0  0  0  0  0  0  0  0  0  0  0
    0.3950    1.7620   -1.5528 H   0  0  0  0  0  0  0  0  0  0  0  0
   -1.5608    2.8861   -0.8426 H   0  0  0  0  0  0  0  0  0  0  0  0
   -0.7482    3.4872    0.6509 H   0  0  0  0  0  0  0  0  0  0  0  0
   -0.3085    4.0584   -2.1371 H   0  0  0  0  0  0  0  0  0  0  0  0
    1.9196    3.5666   -2.0738 H   0  0  0  0  0  0  0  0  0  0  0  0
    1.8955    5.0520   -1.0743 H   0  0  0  0  0  0  0  0  0  0  0  0
    3.1271    3.2858    0.0934 H   0  0  0  0  0  0  0  0  0  0  0  0
    1.6507    3.8440    0.9814 H   0  0  0  0  0  0  0  0  0  0  0  0
    1.5473    1.6381    1.2649 H   0  0  0  0  0  0  0  0  0  0  0  0
    3.8189    1.0799    1.3133 H   0  0  0  0  0  0  0  0  0  0  0  0
    5.5301   -0.3356    0.4084 H   0  0  0  0  0  0  0  0  0  0  0  0
    7.2356   -2.5757   -2.4335 H   0  0  0  0  0  0  0  0  0  0  0  0
    7.4051   -1.1518   -1.4033 H   0  0  0  0  0  0  0  0  0  0  0  0
    6.0143   -2.5482    0.4031 H   0  0  0  0  0  0  0  0  0  0  0  0
    6.1367   -3.8814   -0.7307 H   0  0  0  0  0  0  0  0  0  0  0  0
   11.7942   -1.0773   -0.3764 H   0  0  0  0  0  0  0  0  0  0  0  0
   12.5012   -0.6575    3.0386 H   0  0  0  0  0  0  0  0  0  0  0  0
   11.6491    0.8161    2.4510 H   0  0  0  0  0  0  0  0  0  0  0  0
   12.8779   -0.0005    1.3751 H   0  0  0  0  0  0  0  0  0  0  0  0
   10.0047   -1.1162    3.4409 H   0  0  0  0  0  0  0  0  0  0  0  0
    3.3213   -0.8504   -3.1943 H   0  0  0  0  0  0  0  0  0  0  0  0
    1.5926    0.5929   -2.3032 H   0  0  0  0  0  0  0  0  0  0  0  0
   -2.4661    0.2504    2.8816 H   0  0  0  0  0  0  0  0  0  0  0  0
    0.5504   -0.0208    2.5076 H   0  0  0  0  0  0  0  0  0  0  0  0
   -0.4494   -0.1797    4.0292 H   0  0  0  0  0  0  0  0  0  0  0  0
   -1.2952    2.2015    3.8807 H   0  0  0  0  0  0  0  0  0  0  0  0
   -0.1364    2.4677    2.4749 H   0  0  0  0  0  0  0  0  0  0  0  0
   -4.4980   -0.4495    2.0636 H   0  0  0  0  0  0  0  0  0  0  0  0
   -6.2923    0.7940    3.4396 H   0  0  0  0  0  0  0  0  0  0  0  0
   -8.0517    0.6830    3.3414 H   0  0  0  0  0  0  0  0  0  0  0  0
   -6.1128   -1.7319    2.9126 H   0  0  0  0  0  0  0  0  0  0  0  0
   -7.0689   -1.3510    4.3674 H   0  0  0  0  0  0  0  0  0  0  0  0
   -7.1393   -2.2767    0.8456 H   0  0  0  0  0  0  0  0  0  0  0  0
   -8.9037   -2.6916    1.0152 H   0  0  0  0  0  0  0  0  0  0  0  0
   -8.4617   -1.0103    0.8273 H   0  0  0  0  0  0  0  0  0  0  0  0
   -7.1587    1.1037   -0.9311 H   0  0  0  0  0  0  0  0  0  0  0  0
  1  2  1  0
  2  3  1  0
  3  4  1  0
  4  5  1  0
  5  6  1  0
  6  7  2  0
  7  8  1  0
  8  9  1  0
  9 10  1  0
 10 11  1  0
 11 12  2  0
 11 13  1  0
 13 14  1  0
 14 15  1  0
 15 16  1  0
 16 17  1  0
 17 18  1  0
 18 19  1  0
 19 20  2  0
 20 21  1  0
 21 22  2  0
 22 23  1  0
 23 24  1  0
 24 25  1  0
 25 26  1  0
 26 27  1  0
 27 28  2  0
 28 29  1  0
 28 30  1  0
 30 31  2  0
 31 32  1  0
 31 33  1  0
 33 34  2  0
 34 35  1  0
 22 36  1  0
 36 37  2  0
 10 38  1  0
 38 39  1  0
 39 40  1  0
  8 41  2  0
 41 42  1  0
 42 43  1  0
 43 44  1  0
 44 45  1  0
 45 46  1  0
 46 47  1  0
 42 48  2  0
 48  6  1  0
 18 13  1  0
 37 19  1  0
 40 38  1  0
 34 27  1  0
  1 49  1  0
  1 50  1  0
  1 51  1  0
  3 52  1  0
  3 53  1  0
  4 54  1  0
  4 55  1  0
  5 56  1  0
  5 57  1  0
  7 58  1  0
  9 59  1  0
  9 60  1  0
 13 61  1  6
 14 62  1  0
 14 63  1  0
 15 64  1  0
 16 65  1  0
 16 66  1  0
 17 67  1  0
 17 68  1  0
 18 69  1  1
 20 70  1  0
 21 71  1  0
 24 72  1  0
 24 73  1  0
 25 74  1  0
 25 75  1  0
 30 76  1  0
 32 77  1  0
 32 78  1  0
 32 79  1  0
 33 80  1  0
 36 81  1  0
 37 82  1  0
 38 83  1  0
 39 84  1  0
 39 85  1  0
 40 86  1  0
 40 87  1  0
 41 88  1  0
 44 89  1  0
 44 90  1  0
 45 91  1  0
 45 92  1  0
 47 93  1  0
 47 94  1  0
 47 95  1  0
 48 96  1  0
M  END
$$$$
