@<TRIPOS>MOLECULE
*****
 63 67 0 0 0
SMALL
GASTEIGER

@<TRIPOS>ATOM
      1 C           1.5424   -2.9030    3.3290 C.3     1  UNL1       -0.0001
      2 C           0.9170   -2.4863    2.0534 C.2     1  UNL1        0.1765
      3 O           0.0111   -3.2129    1.5768 O.2     1  UNL1       -0.2910
      4 C           1.3514   -1.2727    1.3899 C.2     1  UNL1        0.1137
      5 N           2.2748   -0.4964    1.8407 N.2     1  UNL1       -0.1794
      6 N           2.5039    0.5999    1.0208 N.pl3   1  UNL1       -0.2129
      7 C           3.5534    1.5753    0.9284 C.ar    1  UNL1        0.0962
      8 C           4.2444    1.9171    2.0750 C.ar    1  UNL1       -0.0000
      9 C           5.2497    2.8721    1.9320 C.ar    1  UNL1        0.1254
     10 F           5.9325    3.2187    3.0431 F       1  UNL1       -0.2054
     11 C           5.5321    3.4437    0.6901 C.ar    1  UNL1       -0.0229
     12 C           4.8177    3.0723   -0.4268 C.ar    1  UNL1       -0.0153
     13 C           3.8087    2.1197   -0.3066 C.ar    1  UNL1        0.1434
     14 O           3.0583    1.7035   -1.3807 O.3     1  UNL1       -0.4881
     15 C           1.7489    1.2495   -1.2200 C.3     1  UNL1        0.1112
     16 C           1.3958    0.6918    0.1094 C.3     1  UNL1        0.0955
     17 C           0.8240   -0.7023    0.0921 C.3     1  UNL1        0.0662
     18 C          -0.6412   -0.7504    0.0277 C.3     1  UNL1       -0.0347
     19 C          -1.2358   -0.1044   -1.2015 C.3     1  UNL1       -0.0390
     20 C          -2.7385   -0.2816   -1.1660 C.3     1  UNL1       -0.0010
     21 N          -3.3046    0.2974   -0.0293 N.3     1  UNL1       -0.3004
     22 C          -3.3469    1.6730    0.1582 C.3     1  UNL1        0.0145
     23 C          -4.6098    2.3617   -0.3106 C.3     1  UNL1        0.0243
     24 N          -5.7637    1.8518    0.4004 N.am    1  UNL1       -0.3141
     25 C          -6.2556    0.5336    0.4933 C.2     1  UNL1        0.2143
     26 O          -7.5186    0.4430    0.6870 O.2     1  UNL1       -0.2758
     27 C          -5.4964   -0.7295    0.3945 C.3     1  UNL1        0.0367
     28 C          -4.0751   -0.5288    0.8259 C.3     1  UNL1        0.0072
     29 C           1.4133   -1.5390   -1.0149 C.ar    1  UNL1       -0.0333
     30 C           0.6370   -2.2982   -1.8334 C.ar    1  UNL1       -0.0576
     31 C           1.2116   -3.0078   -2.8597 C.ar    1  UNL1       -0.0615
     32 C           2.5706   -2.9444   -3.0481 C.ar    1  UNL1       -0.0617
     33 C           3.3951   -2.1893   -2.2412 C.ar    1  UNL1       -0.0615
     34 C           2.7773   -1.4931   -1.2258 C.ar    1  UNL1       -0.0576
     35 H           2.6359   -2.7055    3.3425 H       1  UNL1        0.0310
     36 H           1.0769   -2.2595    4.1336 H       1  UNL1        0.0310
     37 H           1.2868   -3.9376    3.5612 H       1  UNL1        0.0310
     38 H           3.9931    1.4478    3.0159 H       1  UNL1        0.0666
     39 H           6.3293    4.1759    0.6798 H       1  UNL1        0.0647
     40 H           5.0651    3.5350   -1.3668 H       1  UNL1        0.0655
     41 H           1.5113    0.5753   -2.0706 H       1  UNL1        0.0716
     42 H           1.0885    2.1515   -1.3983 H       1  UNL1        0.0716
     43 H           0.6272    1.3301    0.6411 H       1  UNL1        0.0567
     44 H          -1.0471   -1.7752    0.0880 H       1  UNL1        0.0278
     45 H          -1.0769   -0.1982    0.8930 H       1  UNL1        0.0278
     46 H          -0.7561   -0.3060   -2.1454 H       1  UNL1        0.0278
     47 H          -1.0323    1.0228   -1.0476 H       1  UNL1        0.0278
     48 H          -2.9743   -1.3714   -1.2674 H       1  UNL1        0.0426
     49 H          -3.1092    0.1971   -2.1129 H       1  UNL1        0.0426
     50 H          -3.1956    1.9603    1.2402 H       1  UNL1        0.0442
     51 H          -2.5191    2.1785   -0.3742 H       1  UNL1        0.0442
     52 H          -4.4850    3.4403   -0.0146 H       1  UNL1        0.0474
     53 H          -4.7292    2.2613   -1.3906 H       1  UNL1        0.0474
     54 H          -6.3470    2.5534    0.9418 H       1  UNL1        0.1487
     55 H          -5.9576   -1.4418    1.1258 H       1  UNL1        0.0371
     56 H          -5.5839   -1.2041   -0.6025 H       1  UNL1        0.0371
     57 H          -3.5966   -1.5434    0.8638 H       1  UNL1        0.0431
     58 H          -4.0654   -0.1495    1.8465 H       1  UNL1        0.0431
     59 H          -0.4408   -2.4324   -1.7325 H       1  UNL1        0.0621
     60 H           0.5797   -3.6254   -3.5265 H       1  UNL1        0.0618
     61 H           3.0284   -3.5178   -3.8753 H       1  UNL1        0.0618
     62 H           4.4808   -2.1487   -2.4039 H       1  UNL1        0.0618
     63 H           3.4284   -0.8969   -0.5878 H       1  UNL1        0.0621
@<TRIPOS>BOND
     1     1     2    1
     2     2     3    2
     3     2     4    1
     4     4     5    2
     5     5     6    1
     6     6     7    1
     7     7     8   ar
     8     8     9   ar
     9     9    10    1
    10     9    11   ar
    11    11    12   ar
    12    12    13   ar
    13    13    14    1
    14    14    15    1
    15    15    16    1
    16    16    17    1
    17    17    18    1
    18    18    19    1
    19    19    20    1
    20    20    21    1
    21    21    22    1
    22    22    23    1
    23    23    24    1
    24    24    25   am
    25    25    26    2
    26    25    27    1
    27    27    28    1
    28    17    29    1
    29    29    30   ar
    30    30    31   ar
    31    31    32   ar
    32    32    33   ar
    33    33    34   ar
    34    17     4    1
    35    28    21    1
    36    34    29   ar
    37    16     6    1
    38    13     7   ar
    39     1    35    1
    40     1    36    1
    41     1    37    1
    42     8    38    1
    43    11    39    1
    44    12    40    1
    45    15    41    1
    46    15    42    1
    47    16    43    1
    48    18    44    1
    49    18    45    1
    50    19    46    1
    51    19    47    1
    52    20    48    1
    53    20    49    1
    54    22    50    1
    55    22    51    1
    56    23    52    1
    57    23    53    1
    58    24    54    1
    59    27    55    1
    60    27    56    1
    61    28    57    1
    62    28    58    1
    63    30    59    1
    64    31    60    1
    65    32    61    1
    66    33    62    1
    67    34    63    1
