@<TRIPOS>MOLECULE
*****
 46 49 0 0 0
SMALL
GASTEIGER

@<TRIPOS>ATOM
      1 C          -2.3510   -2.5654   -1.0453 C.3     1  UNL1       -0.0594
      2 C          -3.0115   -1.5897   -0.1108 C.3     1  UNL1       -0.0080
      3 C          -4.4973   -1.5621   -0.4895 C.3     1  UNL1       -0.0594
      4 C          -2.5060   -0.1827   -0.2833 C.3     1  UNL1        0.1342
      5 O          -2.7938    0.1704   -1.6170 O.3     1  UNL1       -0.3775
      6 C          -1.0339   -0.0761   -0.1348 C.ar    1  UNL1       -0.0095
      7 C          -0.3008   -0.9421    0.6273 C.ar    1  UNL1       -0.0549
      8 C           1.0498   -0.7809    0.7042 C.ar    1  UNL1       -0.0533
      9 C           1.6669    0.2325    0.0294 C.ar    1  UNL1       -0.0125
     10 C           3.0546    0.3734    0.1192 C.ar    1  UNL1       -0.0103
     11 C           3.6799    1.3982   -0.5700 C.ar    1  UNL1        0.0422
     12 C           2.9311    2.2735   -1.3391 C.ar    1  UNL1       -0.0487
     13 C           1.5766    2.1523   -1.4389 C.ar    1  UNL1       -0.0533
     14 C           0.9566    1.1287   -0.7513 C.ar    1  UNL1       -0.0172
     15 C          -0.4151    0.9496   -0.8179 C.ar    1  UNL1       -0.0477
     16 C           5.1085    1.2721   -0.2980 C.2     1  UNL1        0.2470
     17 O           6.0136    2.0160   -0.7406 O.2     1  UNL1       -0.2700
     18 N           5.2849    0.1481    0.5624 N.am    1  UNL1       -0.2962
     19 C           6.5630   -0.3527    1.0548 C.3     1  UNL1        0.0038
     20 C           4.0089   -0.4410    0.8834 C.3     1  UNL1        0.0410
     21 C          -3.2505    0.7521    0.5866 C.ar    1  UNL1        0.0721
     22 C          -3.3207    2.1254    0.4904 C.ar    1  UNL1        0.0516
     23 N          -4.1157    2.5906    1.4950 N.ar    1  UNL1       -0.2439
     24 C          -4.5157    1.5107    2.1830 C.ar    1  UNL1        0.0936
     25 N          -4.0064    0.3791    1.6549 N.ar    1  UNL1       -0.3457
     26 H          -1.4525   -2.1288   -1.5241 H       1  UNL1        0.0233
     27 H          -3.0189   -2.8832   -1.8840 H       1  UNL1        0.0233
     28 H          -2.1199   -3.5215   -0.4986 H       1  UNL1        0.0233
     29 H          -2.9564   -1.9648    0.9177 H       1  UNL1        0.0330
     30 H          -4.9880   -2.4112   -0.0163 H       1  UNL1        0.0233
     31 H          -4.5375   -1.7266   -1.6008 H       1  UNL1        0.0233
     32 H          -4.9661   -0.5845   -0.2909 H       1  UNL1        0.0233
     33 H          -2.1765   -0.3312   -2.2115 H       1  UNL1        0.2112
     34 H          -0.8468   -1.7247    1.1388 H       1  UNL1        0.0621
     35 H           1.6278   -1.4684    1.3095 H       1  UNL1        0.0624
     36 H           3.4134    3.0909   -1.8900 H       1  UNL1        0.0625
     37 H           0.9476    2.8064   -2.0251 H       1  UNL1        0.0624
     38 H          -0.9618    1.6587   -1.4352 H       1  UNL1        0.0627
     39 H           6.4010   -0.8580    2.0164 H       1  UNL1        0.0429
     40 H           7.2865    0.4638    1.1516 H       1  UNL1        0.0429
     41 H           6.8870   -1.1234    0.3195 H       1  UNL1        0.0429
     42 H           3.8018   -0.4510    1.9720 H       1  UNL1        0.0514
     43 H           4.0059   -1.4744    0.4473 H       1  UNL1        0.0514
     44 H          -2.8159    2.7218   -0.2727 H       1  UNL1        0.0849
     45 H          -5.1723    1.5380    3.0620 H       1  UNL1        0.1027
     46 H          -4.1347   -0.6079    1.9661 H       1  UNL1        0.1666
@<TRIPOS>BOND
     1     1     2    1
     2     2     3    1
     3     2     4    1
     4     4     5    1
     5     4     6    1
     6     6     7   ar
     7     7     8   ar
     8     8     9   ar
     9     9    10   ar
    10    10    11   ar
    11    11    12   ar
    12    12    13   ar
    13    13    14   ar
    14    14    15   ar
    15    11    16    1
    16    16    17    2
    17    16    18   am
    18    18    19    1
    19    18    20    1
    20     4    21    1
    21    21    22   ar
    22    22    23   ar
    23    23    24   ar
    24    24    25   ar
    25    15     6   ar
    26    25    21   ar
    27    14     9   ar
    28    20    10    1
    29     1    26    1
    30     1    27    1
    31     1    28    1
    32     2    29    1
    33     3    30    1
    34     3    31    1
    35     3    32    1
    36     5    33    1
    37     7    34    1
    38     8    35    1
    39    12    36    1
    40    13    37    1
    41    15    38    1
    42    19    39    1
    43    19    40    1
    44    19    41    1
    45    20    42    1
    46    20    43    1
    47    22    44    1
    48    24    45    1
    49    25    46    1
