
     RDKit          3D

 46 49  0  0  0  0  0  0  0  0999 V2000
   -2.3510   -2.5654   -1.0453 C   0  0  0  0  0  0  0  0  0  0  0  0
   -3.0115   -1.5897   -0.1108 C   0  0  0  0  0  0  0  0  0  0  0  0
   -4.4973   -1.5621   -0.4895 C   0  0  0  0  0  0  0  0  0  0  0  0
   -2.5060   -0.1827   -0.2833 C   0  0  2  0  0  0  0  0  0  0  0  0
   -2.7938    0.1704   -1.6170 O   0  0  0  0  0  0  0  0  0  0  0  0
   -1.0339   -0.0761   -0.1348 C   0  0  0  0  0  0  0  0  0  0  0  0
   -0.3008   -0.9421    0.6273 C   0  0  0  0  0  0  0  0  0  0  0  0
    1.0498   -0.7809    0.7042 C   0  0  0  0  0  0  0  0  0  0  0  0
    1.6669    0.2325    0.0294 C   0  0  0  0  0  0  0  0  0  0  0  0
    3.0546    0.3734    0.1192 C   0  0  0  0  0  0  0  0  0  0  0  0
    3.6799    1.3982   -0.5700 C   0  0  0  0  0  0  0  0  0  0  0  0
    2.9311    2.2735   -1.3391 C   0  0  0  0  0  0  0  0  0  0  0  0
    1.5766    2.1523   -1.4389 C   0  0  0  0  0  0  0  0  0  0  0  0
    0.9566    1.1287   -0.7513 C   0  0  0  0  0  0  0  0  0  0  0  0
   -0.4151    0.9496   -0.8179 C   0  0  0  0  0  0  0  0  0  0  0  0
    5.1085    1.2721   -0.2980 C   0  0  0  0  0  0  0  0  0  0  0  0
    6.0136    2.0160   -0.7406 O   0  0  0  0  0  0  0  0  0  0  0  0
    5.2849    0.1481    0.5624 N   0  0  0  0  0  0  0  0  0  0  0  0
    6.5630   -0.3527    1.0548 C   0  0  0  0  0  0  0  0  0  0  0  0
    4.0089   -0.4410    0.8834 C   0  0  0  0  0  0  0  0  0  0  0  0
   -3.2505    0.7521    0.5866 C   0  0  0  0  0  0  0  0  0  0  0  0
   -3.3207    2.1254    0.4904 C   0  0  0  0  0  0  0  0  0  0  0  0
   -4.1157    2.5906    1.4950 N   0  0  0  0  0  0  0  0  0  0  0  0
   -4.5157    1.5107    2.1830 C   0  0  0  0  0  0  0  0  0  0  0  0
   -4.0064    0.3791    1.6549 N   0  0  0  0  0  0  0  0  0  0  0  0
   -1.4525   -2.1288   -1.5241 H   0  0  0  0  0  0  0  0  0  0  0  0
   -3.0189   -2.8832   -1.8840 H   0  0  0  0  0  0  0  0  0  0  0  0
   -2.1199   -3.5215   -0.4986 H   0  0  0  0  0  0  0  0  0  0  0  0
   -2.9564   -1.9648    0.9177 H   0  0  0  0  0  0  0  0  0  0  0  0
   -4.9880   -2.4112   -0.0163 H   0  0  0  0  0  0  0  0  0  0  0  0
   -4.5375   -1.7266   -1.6008 H   0  0  0  0  0  0  0  0  0  0  0  0
   -4.9661   -0.5845   -0.2909 H   0  0  0  0  0  0  0  0  0  0  0  0
   -2.1765   -0.3312   -2.2115 H   0  0  0  0  0  0  0  0  0  0  0  0
   -0.8468   -1.7247    1.1388 H   0  0  0  0  0  0  0  0  0  0  0  0
    1.6278   -1.4684    1.3095 H   0  0  0  0  0  0  0  0  0  0  0  0
    3.4134    3.0909   -1.8900 H   0  0  0  0  0  0  0  0  0  0  0  0
    0.9476    2.8064   -2.0251 H   0  0  0  0  0  0  0  0  0  0  0  0
   -0.9618    1.6587   -1.4352 H   0  0  0  0  0  0  0  0  0  0  0  0
    6.4010   -0.8580    2.0164 H   0  0  0  0  0  0  0  0  0  0  0  0
    7.2865    0.4638    1.1516 H   0  0  0  0  0  0  0  0  0  0  0  0
    6.8870   -1.1234    0.3195 H   0  0  0  0  0  0  0  0  0  0  0  0
    3.8018   -0.4510    1.9720 H   0  0  0  0  0  0  0  0  0  0  0  0
    4.0059   -1.4744    0.4473 H   0  0  0  0  0  0  0  0  0  0  0  0
   -2.8159    2.7218   -0.2727 H   0  0  0  0  0  0  0  0  0  0  0  0
   -5.1723    1.5380    3.0620 H   0  0  0  0  0  0  0  0  0  0  0  0
   -4.1347   -0.6079    1.9661 H   0  0  0  0  0  0  0  0  0  0  0  0
  1  2  1  0
  2  3  1  0
  2  4  1  0
  4  5  1  6
  4  6  1  0
  6  7  2  0
  7  8  1  0
  8  9  2  0
  9 10  1  0
 10 11  2  0
 11 12  1  0
 12 13  2  0
 13 14  1  0
 14 15  2  0
 11 16  1  0
 16 17  2  0
 16 18  1  0
 18 19  1  0
 18 20  1  0
  4 21  1  0
 21 22  2  0
 22 23  1  0
 23 24  2  0
 24 25  1  0
 15  6  1  0
 25 21  1  0
 14  9  1  0
 20 10  1  0
  1 26  1  0
  1 27  1  0
  1 28  1  0
  2 29  1  0
  3 30  1  0
  3 31  1  0
  3 32  1  0
  5 33  1  0
  7 34  1  0
  8 35  1  0
 12 36  1  0
 13 37  1  0
 15 38  1  0
 19 39  1  0
 19 40  1  0
 19 41  1  0
 20 42  1  0
 20 43  1  0
 22 44  1  0
 24 45  1  0
 25 46  1  0
M  END
$$$$
