@<TRIPOS>MOLECULE
*****
 38 40 0 0 0
SMALL
GASTEIGER

@<TRIPOS>ATOM
      1 O           5.4949   -0.6129    1.4702 O.3     1  UNL1       -0.4920
      2 C           4.3074    0.0066    1.0948 C.ar    1  UNL1        0.2203
      3 C           3.3426   -0.6265    0.3430 C.ar    1  UNL1        0.0454
      4 C           3.5902   -1.9298   -0.0403 C.ar    1  UNL1       -0.0488
      5 C           2.6744   -2.6536   -0.8022 C.ar    1  UNL1       -0.0592
      6 C           1.5095   -2.0027   -1.1534 C.ar    1  UNL1       -0.0347
      7 C           1.2351   -0.6989   -0.7839 C.ar    1  UNL1        0.1134
      8 C           2.1627   -0.0061   -0.0281 C.ar    1  UNL1        0.0150
      9 C           2.0143    1.2921    0.4050 C.ar    1  UNL1       -0.0338
     10 C           2.9712    1.9375    1.1575 C.ar    1  UNL1        0.0320
     11 N           4.1003    1.2839    1.4890 N.ar    1  UNL1       -0.2209
     12 S          -0.2090    0.1786   -1.1916 S.O2    1  UNL1        0.0615
     13 O          -0.0545    1.1916   -2.2555 O.2     1  UNL1       -0.1528
     14 O          -1.1211   -0.8638   -1.8447 O.2     1  UNL1       -0.1528
     15 N          -1.0896    0.6969    0.1655 N.3     1  UNL1       -0.1753
     16 C          -1.5672   -0.3451    1.0009 C.3     1  UNL1        0.0217
     17 C          -3.0263   -0.3173    1.3058 C.3     1  UNL1       -0.0260
     18 C          -3.8688   -0.6079    0.0978 C.3     1  UNL1       -0.0028
     19 N          -3.4338    0.1908   -1.0040 N.3     1  UNL1       -0.3147
     20 C          -3.2261    1.5762   -0.7195 C.3     1  UNL1        0.0103
     21 C          -1.9207    1.8292   -0.0031 C.3     1  UNL1        0.0330
     22 H           6.3664   -0.2623    1.0641 H       1  UNL1        0.2937
     23 H           4.5286   -2.4241    0.2545 H       1  UNL1        0.0625
     24 H           2.8390   -3.6716   -1.1166 H       1  UNL1        0.0618
     25 H           0.7423   -2.4818   -1.7417 H       1  UNL1        0.0637
     26 H           1.1153    1.8127    0.1411 H       1  UNL1        0.0639
     27 H           2.8397    2.9456    1.4853 H       1  UNL1        0.0831
     28 H          -1.0005   -0.3563    1.9778 H       1  UNL1        0.0444
     29 H          -1.3365   -1.3443    0.5544 H       1  UNL1        0.0444
     30 H          -3.3687    0.5845    1.8207 H       1  UNL1        0.0290
     31 H          -3.2078   -1.1529    2.0407 H       1  UNL1        0.0290
     32 H          -4.9389   -0.4819    0.3375 H       1  UNL1        0.0424
     33 H          -3.7265   -1.6793   -0.1971 H       1  UNL1        0.0424
     34 H          -3.8830   -0.0063   -1.9034 H       1  UNL1        0.1220
     35 H          -3.1493    2.1128   -1.6979 H       1  UNL1        0.0437
     36 H          -4.1008    2.0533   -0.2140 H       1  UNL1        0.0437
     37 H          -1.3771    2.6932   -0.3815 H       1  UNL1        0.0456
     38 H          -2.2275    2.1400    1.0405 H       1  UNL1        0.0456
@<TRIPOS>BOND
     1     1     2    1
     2     2     3   ar
     3     3     4   ar
     4     4     5   ar
     5     5     6   ar
     6     6     7   ar
     7     7     8   ar
     8     8     9   ar
     9     9    10   ar
    10    10    11   ar
    11     7    12    1
    12    12    13    2
    13    12    14    2
    14    12    15    1
    15    15    16    1
    16    16    17    1
    17    17    18    1
    18    18    19    1
    19    19    20    1
    20    20    21    1
    21    11     2   ar
    22    21    15    1
    23     8     3   ar
    24     1    22    1
    25     4    23    1
    26     5    24    1
    27     6    25    1
    28     9    26    1
    29    10    27    1
    30    16    28    1
    31    16    29    1
    32    17    30    1
    33    17    31    1
    34    18    32    1
    35    18    33    1
    36    19    34    1
    37    20    35    1
    38    20    36    1
    39    21    37    1
    40    21    38    1
