
     RDKit          3D

 56 59  0  0  0  0  0  0  0  0999 V2000
   -3.7746   -3.7086    0.7044 C   0  0  0  0  0  0  0  0  0  0  0  0
   -3.4191   -2.6216   -0.0837 O   0  0  0  0  0  0  0  0  0  0  0  0
   -4.3992   -2.2820   -0.9936 C   0  0  0  0  0  0  0  0  0  0  0  0
   -3.9920   -1.1051   -1.8333 C   0  0  0  0  0  0  0  0  0  0  0  0
   -3.7301    0.0723   -1.0595 N   0  0  0  0  0  0  0  0  0  0  0  0
   -2.4394    0.3642   -0.5547 C   0  0  0  0  0  0  0  0  0  0  0  0
   -2.2324    1.4123    0.1455 O   0  0  0  0  0  0  0  0  0  0  0  0
   -1.2890   -0.4378   -0.7622 N   0  0  0  0  0  0  0  0  0  0  0  0
   -0.0041   -0.0816   -0.2185 C   0  0  0  0  0  0  0  0  0  0  0  0
    0.8866    0.6960   -0.9098 C   0  0  0  0  0  0  0  0  0  0  0  0
    2.1125    1.0447   -0.4090 C   0  0  0  0  0  0  0  0  0  0  0  0
    2.4895    0.6120    0.8304 C   0  0  0  0  0  0  0  0  0  0  0  0
    3.7488    0.8771    1.4860 C   0  0  0  0  0  0  0  0  0  0  0  0
    3.7211    1.4769    2.7179 N   0  0  0  0  0  0  0  0  0  0  0  0
    4.8524    1.7516    3.3911 C   0  0  0  0  0  0  0  0  0  0  0  0
    6.0561    1.4477    2.8815 N   0  0  0  0  0  0  0  0  0  0  0  0
    6.1466    0.8517    1.6677 C   0  0  0  0  0  0  0  0  0  0  0  0
    7.1873    0.4219    0.9304 N   0  0  0  0  0  0  0  0  0  0  0  0
    6.7328   -0.1242   -0.1984 C   0  0  0  0  0  0  0  0  0  0  0  0
    7.5913   -0.7123   -1.2678 C   0  0  0  0  0  0  0  0  0  0  0  0
    5.3556   -0.0443   -0.1899 C   0  0  0  0  0  0  0  0  0  0  0  0
    4.4976   -0.5936   -1.2837 C   0  0  0  0  0  0  0  0  0  0  0  0
    4.9865    0.5687    0.9758 C   0  0  0  0  0  0  0  0  0  0  0  0
    1.5921   -0.1766    1.5382 C   0  0  0  0  0  0  0  0  0  0  0  0
    0.3650   -0.5221    1.0305 C   0  0  0  0  0  0  0  0  0  0  0  0
   -0.4726   -1.2991    1.7735 F   0  0  0  0  0  0  0  0  0  0  0  0
   -4.7862    1.0037   -0.7643 C   0  0  0  0  0  0  0  0  0  0  0  0
   -5.5590    0.8494    0.3880 C   0  0  0  0  0  0  0  0  0  0  0  0
   -6.5752    1.7270    0.6927 C   0  0  0  0  0  0  0  0  0  0  0  0
   -6.8701    2.7934   -0.1280 C   0  0  0  0  0  0  0  0  0  0  0  0
   -8.1562    3.9270    0.2321 Cl  0  0  0  0  0  0  0  0  0  0  0  0
   -6.0974    2.9348   -1.2657 C   0  0  0  0  0  0  0  0  0  0  0  0
   -5.0726    2.0646   -1.5897 C   0  0  0  0  0  0  0  0  0  0  0  0
   -2.9168   -3.8968    1.4000 H   0  0  0  0  0  0  0  0  0  0  0  0
   -3.9036   -4.6142    0.0698 H   0  0  0  0  0  0  0  0  0  0  0  0
   -4.7093   -3.5060    1.2867 H   0  0  0  0  0  0  0  0  0  0  0  0
   -4.5987   -3.1456   -1.6438 H   0  0  0  0  0  0  0  0  0  0  0  0
   -5.3632   -2.0170   -0.5005 H   0  0  0  0  0  0  0  0  0  0  0  0
   -3.0775   -1.3831   -2.3965 H   0  0  0  0  0  0  0  0  0  0  0  0
   -4.7890   -0.9211   -2.6155 H   0  0  0  0  0  0  0  0  0  0  0  0
   -1.3637   -1.3099   -1.3229 H   0  0  0  0  0  0  0  0  0  0  0  0
    0.5707    1.0406   -1.9135 H   0  0  0  0  0  0  0  0  0  0  0  0
    2.7763    1.6659   -0.9746 H   0  0  0  0  0  0  0  0  0  0  0  0
    4.7487    2.2344    4.3739 H   0  0  0  0  0  0  0  0  0  0  0  0
    8.1874    0.5362    1.2644 H   0  0  0  0  0  0  0  0  0  0  0  0
    7.7146   -1.7996   -1.0775 H   0  0  0  0  0  0  0  0  0  0  0  0
    7.0677   -0.5295   -2.2351 H   0  0  0  0  0  0  0  0  0  0  0  0
    8.5800   -0.1826   -1.3337 H   0  0  0  0  0  0  0  0  0  0  0  0
    3.6685   -1.2073   -0.9118 H   0  0  0  0  0  0  0  0  0  0  0  0
    5.1413   -1.3509   -1.8469 H   0  0  0  0  0  0  0  0  0  0  0  0
    4.2701    0.1619   -2.0335 H   0  0  0  0  0  0  0  0  0  0  0  0
    1.8415   -0.5537    2.5423 H   0  0  0  0  0  0  0  0  0  0  0  0
   -5.3084    0.0050    1.0161 H   0  0  0  0  0  0  0  0  0  0  0  0
   -7.1700    1.6043    1.5840 H   0  0  0  0  0  0  0  0  0  0  0  0
   -6.3382    3.7814   -1.9088 H   0  0  0  0  0  0  0  0  0  0  0  0
   -4.4807    2.1992   -2.4906 H   0  0  0  0  0  0  0  0  0  0  0  0
  1  2  1  0
  2  3  1  0
  3  4  1  0
  4  5  1  0
  5  6  1  0
  6  7  2  0
  6  8  1  0
  8  9  1  0
  9 10  2  0
 10 11  1  0
 11 12  2  0
 12 13  1  0
 13 14  2  0
 14 15  1  0
 15 16  2  0
 16 17  1  0
 17 18  1  0
 18 19  1  0
 19 20  1  0
 19 21  2  0
 21 22  1  0
 21 23  1  0
 12 24  1  0
 24 25  2  0
 25 26  1  0
  5 27  1  0
 27 28  2  0
 28 29  1  0
 29 30  2  0
 30 31  1  0
 30 32  1  0
 32 33  2  0
 25  9  1  0
 33 27  1  0
 23 13  1  0
 23 17  2  0
  1 34  1  0
  1 35  1  0
  1 36  1  0
  3 37  1  0
  3 38  1  0
  4 39  1  0
  4 40  1  0
  8 41  1  0
 10 42  1  0
 11 43  1  0
 15 44  1  0
 18 45  1  0
 20 46  1  0
 20 47  1  0
 20 48  1  0
 22 49  1  0
 22 50  1  0
 22 51  1  0
 24 52  1  0
 28 53  1  0
 29 54  1  0
 32 55  1  0
 33 56  1  0
M  END
$$$$
