@<TRIPOS>MOLECULE
*****
 56 59 0 0 0
SMALL
GASTEIGER

@<TRIPOS>ATOM
      1 C          -3.7746   -3.7086    0.7044 C.3     1  UNL1        0.0365
      2 O          -3.4191   -2.6216   -0.0837 O.3     1  UNL1       -0.3814
      3 C          -4.3992   -2.2820   -0.9936 C.3     1  UNL1        0.0635
      4 C          -3.9920   -1.1051   -1.8333 C.3     1  UNL1        0.0447
      5 N          -3.7301    0.0723   -1.0595 N.am    1  UNL1       -0.2531
      6 C          -2.4394    0.3642   -0.5547 C.2     1  UNL1        0.3109
      7 O          -2.2324    1.4123    0.1455 O.2     1  UNL1       -0.2519
      8 N          -1.2890   -0.4378   -0.7622 N.am    1  UNL1       -0.2665
      9 C          -0.0041   -0.0816   -0.2185 C.ar    1  UNL1        0.0702
     10 C           0.8866    0.6960   -0.9098 C.ar    1  UNL1       -0.0370
     11 C           2.1125    1.0447   -0.4090 C.ar    1  UNL1       -0.0506
     12 C           2.4895    0.6120    0.8304 C.ar    1  UNL1        0.0039
     13 C           3.7488    0.8771    1.4860 C.ar    1  UNL1        0.0837
     14 N           3.7211    1.4769    2.7179 N.ar    1  UNL1       -0.2347
     15 C           4.8524    1.7516    3.3911 C.ar    1  UNL1        0.1189
     16 N           6.0561    1.4477    2.8815 N.ar    1  UNL1       -0.2179
     17 C           6.1466    0.8517    1.6677 C.ar    1  UNL1        0.1424
     18 N           7.1873    0.4219    0.9304 N.ar    1  UNL1       -0.3429
     19 C           6.7328   -0.1242   -0.1984 C.ar    1  UNL1        0.0181
     20 C           7.5913   -0.7123   -1.2678 C.3     1  UNL1       -0.0241
     21 C           5.3556   -0.0443   -0.1899 C.ar    1  UNL1       -0.0189
     22 C           4.4976   -0.5936   -1.2837 C.3     1  UNL1       -0.0373
     23 C           4.9865    0.5687    0.9758 C.ar    1  UNL1        0.0478
     24 C           1.5921   -0.1766    1.5382 C.ar    1  UNL1       -0.0154
     25 C           0.3650   -0.5221    1.0305 C.ar    1  UNL1        0.1451
     26 F          -0.4726   -1.2991    1.7735 F       1  UNL1       -0.2035
     27 C          -4.7862    1.0037   -0.7643 C.ar    1  UNL1        0.0379
     28 C          -5.5590    0.8494    0.3880 C.ar    1  UNL1       -0.0388
     29 C          -6.5752    1.7270    0.6927 C.ar    1  UNL1       -0.0416
     30 C          -6.8701    2.7934   -0.1280 C.ar    1  UNL1        0.0411
     31 CL         -8.1562    3.9270    0.2321 Cl      1  UNL1       -0.0835
     32 C          -6.0974    2.9348   -1.2657 C.ar    1  UNL1       -0.0416
     33 C          -5.0726    2.0646   -1.5897 C.ar    1  UNL1       -0.0388
     34 H          -2.9168   -3.8968    1.4000 H       1  UNL1        0.0523
     35 H          -3.9036   -4.6142    0.0698 H       1  UNL1        0.0523
     36 H          -4.7093   -3.5060    1.2867 H       1  UNL1        0.0523
     37 H          -4.5987   -3.1456   -1.6438 H       1  UNL1        0.0575
     38 H          -5.3632   -2.0170   -0.5005 H       1  UNL1        0.0575
     39 H          -3.0775   -1.3831   -2.3965 H       1  UNL1        0.0492
     40 H          -4.7890   -0.9211   -2.6155 H       1  UNL1        0.0492
     41 H          -1.3637   -1.3099   -1.3229 H       1  UNL1        0.1565
     42 H           0.5707    1.0406   -1.9135 H       1  UNL1        0.0637
     43 H           2.7763    1.6659   -0.9746 H       1  UNL1        0.0625
     44 H           4.7487    2.2344    4.3739 H       1  UNL1        0.1048
     45 H           8.1874    0.5362    1.2644 H       1  UNL1        0.1670
     46 H           7.7146   -1.7996   -1.0775 H       1  UNL1        0.0292
     47 H           7.0677   -0.5295   -2.2351 H       1  UNL1        0.0292
     48 H           8.5800   -0.1826   -1.3337 H       1  UNL1        0.0292
     49 H           3.6685   -1.2073   -0.9118 H       1  UNL1        0.0278
     50 H           5.1413   -1.3509   -1.8469 H       1  UNL1        0.0278
     51 H           4.2701    0.1619   -2.0335 H       1  UNL1        0.0278
     52 H           1.8415   -0.5537    2.5423 H       1  UNL1        0.0653
     53 H          -5.3084    0.0050    1.0161 H       1  UNL1        0.0637
     54 H          -7.1700    1.6043    1.5840 H       1  UNL1        0.0633
     55 H          -6.3382    3.7814   -1.9088 H       1  UNL1        0.0633
     56 H          -4.4807    2.1992   -2.4906 H       1  UNL1        0.0637
@<TRIPOS>BOND
     1     1     2    1
     2     2     3    1
     3     3     4    1
     4     4     5    1
     5     5     6   am
     6     6     7    2
     7     6     8   am
     8     8     9    1
     9     9    10   ar
    10    10    11   ar
    11    11    12   ar
    12    12    13    1
    13    13    14   ar
    14    14    15   ar
    15    15    16   ar
    16    16    17   ar
    17    17    18   ar
    18    18    19   ar
    19    19    20    1
    20    19    21   ar
    21    21    22    1
    22    21    23   ar
    23    12    24   ar
    24    24    25   ar
    25    25    26    1
    26     5    27    1
    27    27    28   ar
    28    28    29   ar
    29    29    30   ar
    30    30    31    1
    31    30    32   ar
    32    32    33   ar
    33    25     9   ar
    34    33    27   ar
    35    23    13   ar
    36    23    17   ar
    37     1    34    1
    38     1    35    1
    39     1    36    1
    40     3    37    1
    41     3    38    1
    42     4    39    1
    43     4    40    1
    44     8    41    1
    45    10    42    1
    46    11    43    1
    47    15    44    1
    48    18    45    1
    49    20    46    1
    50    20    47    1
    51    20    48    1
    52    22    49    1
    53    22    50    1
    54    22    51    1
    55    24    52    1
    56    28    53    1
    57    29    54    1
    58    32    55    1
    59    33    56    1
