
     RDKit          3D

 42 46  0  0  0  0  0  0  0  0999 V2000
    5.3536   -1.4780    1.3833 C   0  0  0  0  0  0  0  0  0  0  0  0
    4.5833   -2.3106    0.6061 C   0  0  0  0  0  0  0  0  0  0  0  0
    3.7634   -1.7937   -0.4072 C   0  0  0  0  0  0  0  0  0  0  0  0
    3.7485   -0.4322   -0.6046 C   0  0  0  0  0  0  0  0  0  0  0  0
    2.8957    0.1539   -1.6547 C   0  0  0  0  0  0  0  0  0  0  0  0
    1.5623    0.5889   -1.1684 C   0  0  0  0  0  0  0  0  0  0  0  0
    1.2763    1.8782   -0.9212 N   0  0  0  0  0  0  0  0  0  0  0  0
    0.0761    2.2802   -0.4755 C   0  0  0  0  0  0  0  0  0  0  0  0
   -0.1443    3.6372   -0.2380 C   0  0  0  0  0  0  0  0  0  0  0  0
   -1.3722    4.0577    0.2229 C   0  0  0  0  0  0  0  0  0  0  0  0
   -2.3749    3.1471    0.4479 C   0  0  0  0  0  0  0  0  0  0  0  0
   -2.1797    1.7804    0.2175 C   0  0  0  0  0  0  0  0  0  0  0  0
   -0.9602    1.3685   -0.2397 C   0  0  0  0  0  0  0  0  0  0  0  0
   -0.6864    0.0739   -0.4844 N   0  0  0  0  0  0  0  0  0  0  0  0
   -1.4493   -1.0001   -0.3662 C   0  0  0  0  0  0  0  0  0  0  0  0
   -2.8090   -1.2359    0.0407 C   0  0  0  0  0  0  0  0  0  0  0  0
   -3.8616   -1.1964   -0.8832 C   0  0  0  0  0  0  0  0  0  0  0  0
   -5.1495   -1.4476   -0.4834 C   0  0  0  0  0  0  0  0  0  0  0  0
   -5.3975   -1.7410    0.8465 C   0  0  0  0  0  0  0  0  0  0  0  0
   -4.3670   -1.7823    1.7658 C   0  0  0  0  0  0  0  0  0  0  0  0
   -3.0787   -1.5296    1.3565 C   0  0  0  0  0  0  0  0  0  0  0  0
   -0.6684   -2.0591   -0.7533 N   0  0  0  0  0  0  0  0  0  0  0  0
    0.5322   -1.6550   -1.0988 N   0  0  0  0  0  0  0  0  0  0  0  0
    0.5415   -0.3050   -0.9359 C   0  0  0  0  0  0  0  0  0  0  0  0
    4.5306    0.3782    0.1886 C   0  0  0  0  0  0  0  0  0  0  0  0
    5.3420   -0.1066    1.1878 C   0  0  0  0  0  0  0  0  0  0  0  0
    5.9977   -1.8558    2.1764 H   0  0  0  0  0  0  0  0  0  0  0  0
    4.5866   -3.3923    0.7529 H   0  0  0  0  0  0  0  0  0  0  0  0
    3.1861   -2.5030   -0.9814 H   0  0  0  0  0  0  0  0  0  0  0  0
    2.7948   -0.6300   -2.4575 H   0  0  0  0  0  0  0  0  0  0  0  0
    3.4241    0.9960   -2.1832 H   0  0  0  0  0  0  0  0  0  0  0  0
    0.6392    4.3582   -0.4127 H   0  0  0  0  0  0  0  0  0  0  0  0
   -1.6223    5.0883    0.4316 H   0  0  0  0  0  0  0  0  0  0  0  0
   -3.3313    3.4560    0.8055 H   0  0  0  0  0  0  0  0  0  0  0  0
   -2.9677    1.0981    0.4012 H   0  0  0  0  0  0  0  0  0  0  0  0
   -3.6328   -0.9632   -1.9179 H   0  0  0  0  0  0  0  0  0  0  0  0
   -5.9848   -1.4261   -1.1621 H   0  0  0  0  0  0  0  0  0  0  0  0
   -6.4065   -1.9460    1.2044 H   0  0  0  0  0  0  0  0  0  0  0  0
   -4.5813   -2.0139    2.8016 H   0  0  0  0  0  0  0  0  0  0  0  0
   -2.2899   -1.5674    2.0849 H   0  0  0  0  0  0  0  0  0  0  0  0
    4.5346    1.4623    0.0491 H   0  0  0  0  0  0  0  0  0  0  0  0
    5.9470    0.5676    1.7959 H   0  0  0  0  0  0  0  0  0  0  0  0
  1  2  2  0
  2  3  1  0
  3  4  2  0
  4  5  1  0
  5  6  1  0
  6  7  2  0
  7  8  1  0
  8  9  2  0
  9 10  1  0
 10 11  2  0
 11 12  1  0
 12 13  2  0
 13 14  1  0
 14 15  1  0
 15 16  1  0
 16 17  2  0
 17 18  1  0
 18 19  2  0
 19 20  1  0
 20 21  2  0
 15 22  2  0
 22 23  1  0
 23 24  2  0
  4 25  1  0
 25 26  2  0
 26  1  1  0
 24  6  1  0
 13  8  1  0
 24 14  1  0
 21 16  1  0
  1 27  1  0
  2 28  1  0
  3 29  1  0
  5 30  1  0
  5 31  1  0
  9 32  1  0
 10 33  1  0
 11 34  1  0
 12 35  1  0
 17 36  1  0
 18 37  1  0
 19 38  1  0
 20 39  1  0
 21 40  1  0
 25 41  1  0
 26 42  1  0
M  END
$$$$
