@<TRIPOS>MOLECULE
*****
 42 46 0 0 0
SMALL
GASTEIGER

@<TRIPOS>ATOM
      1 C           5.3536   -1.4780    1.3833 C.ar    1  UNL1       -0.0617
      2 C           4.5833   -2.3106    0.6061 C.ar    1  UNL1       -0.0615
      3 C           3.7634   -1.7937   -0.4072 C.ar    1  UNL1       -0.0582
      4 C           3.7485   -0.4322   -0.6046 C.ar    1  UNL1       -0.0415
      5 C           2.8957    0.1539   -1.6547 C.3     1  UNL1        0.0185
      6 C           1.5623    0.5889   -1.1684 C.ar    1  UNL1        0.0907
      7 N           1.2763    1.8782   -0.9212 N.ar    1  UNL1       -0.2461
      8 C           0.0761    2.2802   -0.4755 C.ar    1  UNL1        0.0881
      9 C          -0.1443    3.6372   -0.2380 C.ar    1  UNL1       -0.0343
     10 C          -1.3722    4.0577    0.2229 C.ar    1  UNL1       -0.0596
     11 C          -2.3749    3.1471    0.4479 C.ar    1  UNL1       -0.0597
     12 C          -2.1797    1.7804    0.2175 C.ar    1  UNL1       -0.0357
     13 C          -0.9602    1.3685   -0.2397 C.ar    1  UNL1        0.0754
     14 N          -0.6864    0.0739   -0.4844 N.ar    1  UNL1       -0.2722
     15 C          -1.4493   -1.0001   -0.3662 C.ar    1  UNL1        0.1691
     16 C          -2.8090   -1.2359    0.0407 C.ar    1  UNL1        0.0196
     17 C          -3.8616   -1.1964   -0.8832 C.ar    1  UNL1       -0.0510
     18 C          -5.1495   -1.4476   -0.4834 C.ar    1  UNL1       -0.0611
     19 C          -5.3975   -1.7410    0.8465 C.ar    1  UNL1       -0.0617
     20 C          -4.3670   -1.7823    1.7658 C.ar    1  UNL1       -0.0611
     21 C          -3.0787   -1.5296    1.3565 C.ar    1  UNL1       -0.0510
     22 N          -0.6684   -2.0591   -0.7533 N.ar    1  UNL1       -0.1284
     23 N           0.5322   -1.6550   -1.0988 N.ar    1  UNL1       -0.1272
     24 C           0.5415   -0.3050   -0.9359 C.ar    1  UNL1        0.1836
     25 C           4.5306    0.3782    0.1886 C.ar    1  UNL1       -0.0582
     26 C           5.3420   -0.1066    1.1878 C.ar    1  UNL1       -0.0615
     27 H           5.9977   -1.8558    2.1764 H       1  UNL1        0.0618
     28 H           4.5866   -3.3923    0.7529 H       1  UNL1        0.0618
     29 H           3.1861   -2.5030   -0.9814 H       1  UNL1        0.0620
     30 H           2.7948   -0.6300   -2.4575 H       1  UNL1        0.0378
     31 H           3.4241    0.9960   -2.1832 H       1  UNL1        0.0378
     32 H           0.6392    4.3582   -0.4127 H       1  UNL1        0.0639
     33 H          -1.6223    5.0883    0.4316 H       1  UNL1        0.0618
     34 H          -3.3313    3.4560    0.8055 H       1  UNL1        0.0618
     35 H          -2.9677    1.0981    0.4012 H       1  UNL1        0.0639
     36 H          -3.6328   -0.9632   -1.9179 H       1  UNL1        0.0625
     37 H          -5.9848   -1.4261   -1.1621 H       1  UNL1        0.0618
     38 H          -6.4065   -1.9460    1.2044 H       1  UNL1        0.0618
     39 H          -4.5813   -2.0139    2.8016 H       1  UNL1        0.0618
     40 H          -2.2899   -1.5674    2.0849 H       1  UNL1        0.0625
     41 H           4.5346    1.4623    0.0491 H       1  UNL1        0.0620
     42 H           5.9470    0.5676    1.7959 H       1  UNL1        0.0618
@<TRIPOS>BOND
     1     1     2   ar
     2     2     3   ar
     3     3     4   ar
     4     4     5    1
     5     5     6    1
     6     6     7   ar
     7     7     8   ar
     8     8     9   ar
     9     9    10   ar
    10    10    11   ar
    11    11    12   ar
    12    12    13   ar
    13    13    14   ar
    14    14    15   ar
    15    15    16    1
    16    16    17   ar
    17    17    18   ar
    18    18    19   ar
    19    19    20   ar
    20    20    21   ar
    21    15    22   ar
    22    22    23   ar
    23    23    24   ar
    24     4    25   ar
    25    25    26   ar
    26    26     1   ar
    27    24     6   ar
    28    13     8   ar
    29    24    14   ar
    30    21    16   ar
    31     1    27    1
    32     2    28    1
    33     3    29    1
    34     5    30    1
    35     5    31    1
    36     9    32    1
    37    10    33    1
    38    11    34    1
    39    12    35    1
    40    17    36    1
    41    18    37    1
    42    19    38    1
    43    20    39    1
    44    21    40    1
    45    25    41    1
    46    26    42    1
