
     RDKit          3D

 71 76  0  0  0  0  0  0  0  0999 V2000
   -9.1788   -4.1785   -1.4455 C   0  0  0  0  0  0  0  0  0  0  0  0
   -8.7985   -3.2312   -0.4668 O   0  0  0  0  0  0  0  0  0  0  0  0
   -7.5162   -2.6881   -0.5634 C   0  0  0  0  0  0  0  0  0  0  0  0
   -6.6645   -3.0409   -1.5418 N   0  0  0  0  0  0  0  0  0  0  0  0
   -5.4173   -2.5167   -1.6411 C   0  0  0  0  0  0  0  0  0  0  0  0
   -4.9719   -1.5869   -0.7251 C   0  0  0  0  0  0  0  0  0  0  0  0
   -3.6341   -1.0246   -0.8313 C   0  0  0  0  0  0  0  0  0  0  0  0
   -2.5034   -1.7684   -1.0822 C   0  0  0  0  0  0  0  0  0  0  0  0
   -1.2677   -1.1933   -1.1727 C   0  0  0  0  0  0  0  0  0  0  0  0
   -1.1573    0.1747   -1.0064 C   0  0  0  0  0  0  0  0  0  0  0  0
    0.1101    0.7493   -1.1011 C   0  0  0  0  0  0  0  0  0  0  0  0
    1.2619   -0.0167   -1.3615 N   0  0  0  0  0  0  0  0  0  0  0  0
    2.0222   -0.6666   -0.3513 C   0  0  0  0  0  0  0  0  0  0  0  0
    3.1668   -1.3419   -0.7184 C   0  0  0  0  0  0  0  0  0  0  0  0
    3.9654   -2.0038    0.1822 C   0  0  0  0  0  0  0  0  0  0  0  0
    5.0876   -2.6549   -0.2453 O   0  0  0  0  0  0  0  0  0  0  0  0
    6.3483   -2.0987   -0.3395 C   0  0  0  0  0  0  0  0  0  0  0  0
    7.3986   -2.8658   -0.7876 C   0  0  0  0  0  0  0  0  0  0  0  0
    8.6812   -2.3200   -0.8893 C   0  0  0  0  0  0  0  0  0  0  0  0
    9.7283   -3.0597   -1.3285 F   0  0  0  0  0  0  0  0  0  0  0  0
    8.9077   -1.0105   -0.5429 C   0  0  0  0  0  0  0  0  0  0  0  0
    7.8609   -0.2460   -0.0963 C   0  0  0  0  0  0  0  0  0  0  0  0
    8.1135    1.0386    0.2372 F   0  0  0  0  0  0  0  0  0  0  0  0
    6.5756   -0.7903    0.0065 C   0  0  0  0  0  0  0  0  0  0  0  0
    3.6161   -1.9976    1.5073 C   0  0  0  0  0  0  0  0  0  0  0  0
    2.4664   -1.3233    1.9008 C   0  0  0  0  0  0  0  0  0  0  0  0
    2.1236   -1.3347    3.3075 C   0  0  0  0  0  0  0  0  0  0  0  0
    2.8444   -1.9329    4.1260 O   0  0  0  0  0  0  0  0  0  0  0  0
    0.9875   -0.6734    3.7261 O   0  0  0  0  0  0  0  0  0  0  0  0
    1.6707   -0.6580    0.9680 C   0  0  0  0  0  0  0  0  0  0  0  0
    0.1575    2.1330   -0.9244 C   0  0  0  0  0  0  0  0  0  0  0  0
    1.7077    2.8822   -1.0453 S   0  0  0  0  0  6  0  0  0  0  0  0
    2.3277    2.6346   -2.4161 O   0  0  0  0  0  0  0  0  0  0  0  0
    2.6789    2.2328   -0.0728 O   0  0  0  0  0  0  0  0  0  0  0  0
    1.7057    4.5654   -0.8091 N   0  0  0  0  0  0  0  0  0  0  0  0
    1.2643    5.0180    0.4674 C   0  0  0  0  0  0  0  0  0  0  0  0
    1.7582    6.2915    1.0555 C   0  0  0  0  0  0  0  0  0  0  0  0
    0.4141    6.2848    0.4627 C   0  0  0  0  0  0  0  0  0  0  0  0
   -0.9526    2.8774   -0.6761 C   0  0  0  0  0  0  0  0  0  0  0  0
   -2.1577    2.3036   -0.5896 N   0  0  0  0  0  0  0  0  0  0  0  0
   -2.2677    0.9522   -0.7537 C   0  0  0  0  0  0  0  0  0  0  0  0
   -3.4853    0.3354   -0.6712 C   0  0  0  0  0  0  0  0  0  0  0  0
   -5.8520   -1.2308    0.2751 C   0  0  0  0  0  0  0  0  0  0  0  0
   -5.4262   -0.2915    1.2153 O   0  0  0  0  0  0  0  0  0  0  0  0
   -6.2756    0.1235    2.2720 C   0  0  0  0  0  0  0  0  0  0  0  0
   -7.0845   -1.7787    0.3349 N   0  0  0  0  0  0  0  0  0  0  0  0
   -9.9279   -4.8539   -0.9519 H   0  0  0  0  0  0  0  0  0  0  0  0
   -9.6364   -3.7170   -2.3382 H   0  0  0  0  0  0  0  0  0  0  0  0
   -8.2701   -4.7701   -1.6910 H   0  0  0  0  0  0  0  0  0  0  0  0
   -4.7263   -2.7974   -2.4278 H   0  0  0  0  0  0  0  0  0  0  0  0
   -2.5998   -2.8364   -1.2106 H   0  0  0  0  0  0  0  0  0  0  0  0
   -0.3574   -1.7575   -1.3701 H   0  0  0  0  0  0  0  0  0  0  0  0
    1.5677   -0.1083   -2.3516 H   0  0  0  0  0  0  0  0  0  0  0  0
    3.4559   -1.3522   -1.7829 H   0  0  0  0  0  0  0  0  0  0  0  0
    7.2722   -3.9056   -1.0737 H   0  0  0  0  0  0  0  0  0  0  0  0
    9.8954   -0.5756   -0.6169 H   0  0  0  0  0  0  0  0  0  0  0  0
    5.7894   -0.1330    0.3669 H   0  0  0  0  0  0  0  0  0  0  0  0
    4.2200   -2.5096    2.2577 H   0  0  0  0  0  0  0  0  0  0  0  0
    0.5913   -0.7941    4.6660 H   0  0  0  0  0  0  0  0  0  0  0  0
    0.7933   -0.1476    1.2934 H   0  0  0  0  0  0  0  0  0  0  0  0
    1.2049    5.0960   -1.5522 H   0  0  0  0  0  0  0  0  0  0  0  0
    0.9487    4.2106    1.1670 H   0  0  0  0  0  0  0  0  0  0  0  0
    2.5801    6.8173    0.5718 H   0  0  0  0  0  0  0  0  0  0  0  0
    1.8233    6.3071    2.1778 H   0  0  0  0  0  0  0  0  0  0  0  0
    0.2832    6.8313   -0.4834 H   0  0  0  0  0  0  0  0  0  0  0  0
   -0.4946    6.3080    1.1025 H   0  0  0  0  0  0  0  0  0  0  0  0
   -0.9090    3.9456   -0.5424 H   0  0  0  0  0  0  0  0  0  0  0  0
   -4.3599    0.9508   -0.4718 H   0  0  0  0  0  0  0  0  0  0  0  0
   -7.2590   -0.4050    2.2483 H   0  0  0  0  0  0  0  0  0  0  0  0
   -5.7612   -0.0810    3.2143 H   0  0  0  0  0  0  0  0  0  0  0  0
   -6.4633    1.2053    2.1178 H   0  0  0  0  0  0  0  0  0  0  0  0
  1  2  1  0
  2  3  1  0
  3  4  2  0
  4  5  1  0
  5  6  2  0
  6  7  1  0
  7  8  2  0
  8  9  1  0
  9 10  2  0
 10 11  1  0
 11 12  1  0
 12 13  1  0
 13 14  2  0
 14 15  1  0
 15 16  1  0
 16 17  1  0
 17 18  2  0
 18 19  1  0
 19 20  1  0
 19 21  2  0
 21 22  1  0
 22 23  1  0
 22 24  2  0
 15 25  2  0
 25 26  1  0
 26 27  1  0
 27 28  2  0
 27 29  1  0
 26 30  2  0
 11 31  2  0
 31 32  1  0
 32 33  2  0
 32 34  2  0
 32 35  1  0
 35 36  1  0
 36 37  1  0
 37 38  1  0
 31 39  1  0
 39 40  2  0
 40 41  1  0
 41 42  2  0
  6 43  1  0
 43 44  1  0
 44 45  1  0
 43 46  2  0
 46  3  1  0
 42  7  1  0
 41 10  1  0
 30 13  1  0
 38 36  1  0
 24 17  1  0
  1 47  1  0
  1 48  1  0
  1 49  1  0
  5 50  1  0
  8 51  1  0
  9 52  1  0
 12 53  1  0
 14 54  1  0
 18 55  1  0
 21 56  1  0
 24 57  1  0
 25 58  1  0
 29 59  1  0
 30 60  1  0
 35 61  1  0
 36 62  1  0
 37 63  1  0
 37 64  1  0
 38 65  1  0
 38 66  1  0
 39 67  1  0
 42 68  1  0
 45 69  1  0
 45 70  1  0
 45 71  1  0
M  END
$$$$
