@<TRIPOS>MOLECULE
*****
 71 76 0 0 0
SMALL
GASTEIGER

@<TRIPOS>ATOM
      1 C          -9.1788   -4.1785   -1.4455 C.3     1  UNL1        0.0819
      2 O          -8.7985   -3.2312   -0.4668 O.3     1  UNL1       -0.4657
      3 C          -7.5162   -2.6881   -0.5634 C.ar    1  UNL1        0.3208
      4 N          -6.6645   -3.0409   -1.5418 N.ar    1  UNL1       -0.2025
      5 C          -5.4173   -2.5167   -1.6411 C.ar    1  UNL1        0.0457
      6 C          -4.9719   -1.5869   -0.7251 C.ar    1  UNL1        0.0620
      7 C          -3.6341   -1.0246   -0.8313 C.ar    1  UNL1       -0.0093
      8 C          -2.5034   -1.7684   -1.0822 C.ar    1  UNL1       -0.0531
      9 C          -1.2677   -1.1933   -1.1727 C.ar    1  UNL1       -0.0501
     10 C          -1.1573    0.1747   -1.0064 C.ar    1  UNL1        0.0235
     11 C           0.1101    0.7493   -1.1011 C.ar    1  UNL1        0.0688
     12 N           1.2619   -0.0167   -1.3615 N.pl3   1  UNL1       -0.3123
     13 C           2.0222   -0.6666   -0.3513 C.ar    1  UNL1        0.0356
     14 C           3.1668   -1.3419   -0.7184 C.ar    1  UNL1        0.0019
     15 C           3.9654   -2.0038    0.1822 C.ar    1  UNL1        0.1310
     16 O           5.0876   -2.6549   -0.2453 O.3     1  UNL1       -0.4558
     17 C           6.3483   -2.0987   -0.3395 C.ar    1  UNL1        0.1339
     18 C           7.3986   -2.8658   -0.7876 C.ar    1  UNL1        0.0161
     19 C           8.6812   -2.3200   -0.8893 C.ar    1  UNL1        0.1296
     20 F           9.7283   -3.0597   -1.3285 F       1  UNL1       -0.2053
     21 C           8.9077   -1.0105   -0.5429 C.ar    1  UNL1        0.0090
     22 C           7.8609   -0.2460   -0.0963 C.ar    1  UNL1        0.1296
     23 F           8.1135    1.0386    0.2372 F       1  UNL1       -0.2053
     24 C           6.5756   -0.7903    0.0065 C.ar    1  UNL1        0.0161
     25 C           3.6161   -1.9976    1.5073 C.ar    1  UNL1       -0.0052
     26 C           2.4664   -1.3233    1.9008 C.ar    1  UNL1        0.0640
     27 C           2.1236   -1.3347    3.3075 C.2     1  UNL1        0.3370
     28 O           2.8444   -1.9329    4.1260 O.2     1  UNL1       -0.2451
     29 O           0.9875   -0.6734    3.7261 O.3     1  UNL1       -0.4771
     30 C           1.6707   -0.6580    0.9680 C.ar    1  UNL1       -0.0263
     31 C           0.1575    2.1330   -0.9244 C.ar    1  UNL1        0.1449
     32 S           1.7077    2.8822   -1.0453 S.O2    1  UNL1        0.0619
     33 O           2.3277    2.6346   -2.4161 O.2     1  UNL1       -0.1529
     34 O           2.6789    2.2328   -0.0728 O.2     1  UNL1       -0.1529
     35 N           1.7057    4.5654   -0.8091 N.3     1  UNL1       -0.1868
     36 C           1.2643    5.0180    0.4674 C.3     1  UNL1        0.0289
     37 C           1.7582    6.2915    1.0555 C.3     1  UNL1       -0.0345
     38 C           0.4141    6.2848    0.4627 C.3     1  UNL1       -0.0345
     39 C          -0.9526    2.8774   -0.6761 C.ar    1  UNL1        0.0564
     40 N          -2.1577    2.3036   -0.5896 N.ar    1  UNL1       -0.2529
     41 C          -2.2677    0.9522   -0.7537 C.ar    1  UNL1        0.0734
     42 C          -3.4853    0.3354   -0.6712 C.ar    1  UNL1       -0.0277
     43 C          -5.8520   -1.2308    0.2751 C.ar    1  UNL1        0.2283
     44 O          -5.4262   -0.2915    1.2153 O.3     1  UNL1       -0.4791
     45 C          -6.2756    0.1235    2.2720 C.3     1  UNL1        0.0804
     46 N          -7.0845   -1.7787    0.3349 N.ar    1  UNL1       -0.1591
     47 H          -9.9279   -4.8539   -0.9519 H       1  UNL1        0.0661
     48 H          -9.6364   -3.7170   -2.3382 H       1  UNL1        0.0661
     49 H          -8.2701   -4.7701   -1.6910 H       1  UNL1        0.0661
     50 H          -4.7263   -2.7974   -2.4278 H       1  UNL1        0.0839
     51 H          -2.5998   -2.8364   -1.2106 H       1  UNL1        0.0624
     52 H          -0.3574   -1.7575   -1.3701 H       1  UNL1        0.0625
     53 H           1.5677   -0.1083   -2.3516 H       1  UNL1        0.1522
     54 H           3.4559   -1.3522   -1.7829 H       1  UNL1        0.0673
     55 H           7.2722   -3.9056   -1.0737 H       1  UNL1        0.0683
     56 H           9.8954   -0.5756   -0.6169 H       1  UNL1        0.0675
     57 H           5.7894   -0.1330    0.3669 H       1  UNL1        0.0683
     58 H           4.2200   -2.5096    2.2577 H       1  UNL1        0.0662
     59 H           0.5913   -0.7941    4.6660 H       1  UNL1        0.2954
     60 H           0.7933   -0.1476    1.2934 H       1  UNL1        0.0644
     61 H           1.2049    5.0960   -1.5522 H       1  UNL1        0.1483
     62 H           0.9487    4.2106    1.1670 H       1  UNL1        0.0477
     63 H           2.5801    6.8173    0.5718 H       1  UNL1        0.0281
     64 H           1.8233    6.3071    2.1778 H       1  UNL1        0.0281
     65 H           0.2832    6.8313   -0.4834 H       1  UNL1        0.0281
     66 H          -0.4946    6.3080    1.1025 H       1  UNL1        0.0281
     67 H          -0.9090    3.9456   -0.5424 H       1  UNL1        0.0850
     68 H          -4.3599    0.9508   -0.4718 H       1  UNL1        0.0645
     69 H          -7.2590   -0.4050    2.2483 H       1  UNL1        0.0660
     70 H          -5.7612   -0.0810    3.2143 H       1  UNL1        0.0660
     71 H          -6.4633    1.2053    2.1178 H       1  UNL1        0.0660
@<TRIPOS>BOND
     1     1     2    1
     2     2     3    1
     3     3     4   ar
     4     4     5   ar
     5     5     6   ar
     6     6     7    1
     7     7     8   ar
     8     8     9   ar
     9     9    10   ar
    10    10    11   ar
    11    11    12    1
    12    12    13    1
    13    13    14   ar
    14    14    15   ar
    15    15    16    1
    16    16    17    1
    17    17    18   ar
    18    18    19   ar
    19    19    20    1
    20    19    21   ar
    21    21    22   ar
    22    22    23    1
    23    22    24   ar
    24    15    25   ar
    25    25    26   ar
    26    26    27    1
    27    27    28    2
    28    27    29    1
    29    26    30   ar
    30    11    31   ar
    31    31    32    1
    32    32    33    2
    33    32    34    2
    34    32    35    1
    35    35    36    1
    36    36    37    1
    37    37    38    1
    38    31    39   ar
    39    39    40   ar
    40    40    41   ar
    41    41    42   ar
    42     6    43   ar
    43    43    44    1
    44    44    45    1
    45    43    46   ar
    46    46     3   ar
    47    42     7   ar
    48    41    10   ar
    49    30    13   ar
    50    38    36    1
    51    24    17   ar
    52     1    47    1
    53     1    48    1
    54     1    49    1
    55     5    50    1
    56     8    51    1
    57     9    52    1
    58    12    53    1
    59    14    54    1
    60    18    55    1
    61    21    56    1
    62    24    57    1
    63    25    58    1
    64    29    59    1
    65    30    60    1
    66    35    61    1
    67    36    62    1
    68    37    63    1
    69    37    64    1
    70    38    65    1
    71    38    66    1
    72    39    67    1
    73    42    68    1
    74    45    69    1
    75    45    70    1
    76    45    71    1
