@<TRIPOS>MOLECULE
*****
 18 19 0 0 0
SMALL
GASTEIGER

@<TRIPOS>ATOM
      1 BR         -2.8865    1.9054    2.1487 Br      1  UNL1       -0.0503
      2 C          -2.0883    0.7537    0.8636 C.ar    1  UNL1        0.0185
      3 C          -2.8911    0.0079    0.0504 C.ar    1  UNL1       -0.0477
      4 C          -2.2803   -0.8168   -0.8704 C.ar    1  UNL1       -0.0601
      5 C          -0.8922   -0.9064   -0.9895 C.ar    1  UNL1       -0.0524
      6 C          -0.0934   -0.1474   -0.1616 C.ar    1  UNL1        0.0047
      7 C           1.3577   -0.2058   -0.2472 C.ar    1  UNL1        0.1123
      8 C           2.3182    0.4621    0.4776 C.ar    1  UNL1        0.0502
      9 N           3.5385    0.0934    0.0524 N.ar    1  UNL1       -0.2643
     10 N           3.3419   -0.7836   -0.9147 N.ar    1  UNL1       -0.0678
     11 N           2.0480   -0.9743   -1.1070 N.ar    1  UNL1       -0.1297
     12 C          -0.7031    0.6785    0.7604 C.ar    1  UNL1       -0.0385
     13 H          -3.9716    0.0133    0.0719 H       1  UNL1        0.0629
     14 H          -2.8964   -1.4149   -1.5229 H       1  UNL1        0.0618
     15 H          -0.4239   -1.5505   -1.7085 H       1  UNL1        0.0624
     16 H           2.1104    1.1769    1.2711 H       1  UNL1        0.0846
     17 H           4.4731    0.4421    0.4245 H       1  UNL1        0.1900
     18 H          -0.0612    1.2663    1.4012 H       1  UNL1        0.0635
@<TRIPOS>BOND
     1     1     2    1
     2     2     3   ar
     3     3     4   ar
     4     4     5   ar
     5     5     6   ar
     6     6     7    1
     7     7     8   ar
     8     8     9   ar
     9     9    10   ar
    10    10    11   ar
    11     6    12   ar
    12    12     2   ar
    13    11     7   ar
    14     3    13    1
    15     4    14    1
    16     5    15    1
    17     8    16    1
    18     9    17    1
    19    12    18    1
