
     RDKit          3D

 18 19  0  0  0  0  0  0  0  0999 V2000
   -2.8865    1.9054    2.1487 Br  0  0  0  0  0  0  0  0  0  0  0  0
   -2.0883    0.7537    0.8636 C   0  0  0  0  0  0  0  0  0  0  0  0
   -2.8911    0.0079    0.0504 C   0  0  0  0  0  0  0  0  0  0  0  0
   -2.2803   -0.8168   -0.8704 C   0  0  0  0  0  0  0  0  0  0  0  0
   -0.8922   -0.9064   -0.9895 C   0  0  0  0  0  0  0  0  0  0  0  0
   -0.0934   -0.1474   -0.1616 C   0  0  0  0  0  0  0  0  0  0  0  0
    1.3577   -0.2058   -0.2472 C   0  0  0  0  0  0  0  0  0  0  0  0
    2.3182    0.4621    0.4776 C   0  0  0  0  0  0  0  0  0  0  0  0
    3.5385    0.0934    0.0524 N   0  0  0  0  0  0  0  0  0  0  0  0
    3.3419   -0.7836   -0.9147 N   0  0  0  0  0  0  0  0  0  0  0  0
    2.0480   -0.9743   -1.1070 N   0  0  0  0  0  0  0  0  0  0  0  0
   -0.7031    0.6785    0.7604 C   0  0  0  0  0  0  0  0  0  0  0  0
   -3.9716    0.0133    0.0719 H   0  0  0  0  0  0  0  0  0  0  0  0
   -2.8964   -1.4149   -1.5229 H   0  0  0  0  0  0  0  0  0  0  0  0
   -0.4239   -1.5505   -1.7085 H   0  0  0  0  0  0  0  0  0  0  0  0
    2.1104    1.1769    1.2711 H   0  0  0  0  0  0  0  0  0  0  0  0
    4.4731    0.4421    0.4245 H   0  0  0  0  0  0  0  0  0  0  0  0
   -0.0612    1.2663    1.4012 H   0  0  0  0  0  0  0  0  0  0  0  0
  1  2  1  0
  2  3  2  0
  3  4  1  0
  4  5  2  0
  5  6  1  0
  6  7  1  0
  7  8  2  0
  8  9  1  0
  9 10  1  0
 10 11  2  0
  6 12  2  0
 12  2  1  0
 11  7  1  0
  3 13  1  0
  4 14  1  0
  5 15  1  0
  8 16  1  0
  9 17  1  0
 12 18  1  0
M  END
$$$$
