@<TRIPOS>MOLECULE
*****
 48 51 0 0 0
SMALL
GASTEIGER

@<TRIPOS>ATOM
      1 C          -4.2490    2.6667   -0.5073 C.3     1  UNL1       -0.0515
      2 C          -3.4148    1.4828   -1.0079 C.3     1  UNL1        0.0394
      3 C          -4.2151    0.2312   -0.9867 C.ar    1  UNL1       -0.0368
      4 C          -4.0677   -0.7757   -1.9182 C.ar    1  UNL1       -0.0579
      5 C          -4.8374   -1.9422   -1.8698 C.ar    1  UNL1       -0.0610
      6 C          -5.7717   -2.0977   -0.8662 C.ar    1  UNL1       -0.0501
      7 C          -5.9367   -1.1047    0.0759 C.ar    1  UNL1        0.0551
      8 C          -6.9517   -1.3062    1.1418 C.3     1  UNL1        0.4174
      9 F          -7.2114   -2.6368    1.3705 F       1  UNL1       -0.1659
     10 F          -6.5858   -0.6380    2.3048 F       1  UNL1       -0.1659
     11 F          -8.1250   -0.7239    0.7097 F       1  UNL1       -0.1659
     12 C          -5.1666    0.0345    0.0067 C.ar    1  UNL1       -0.0463
     13 C          -2.1712    1.3645   -0.2299 C.ar    1  UNL1        0.1166
     14 N          -0.9844    0.9518   -0.7058 N.ar    1  UNL1       -0.2144
     15 C          -0.0908    0.9704    0.2742 C.ar    1  UNL1        0.1583
     16 N           1.2957    0.6073    0.2017 N.ar    1  UNL1       -0.2670
     17 C           2.1727    0.9752    1.1493 C.ar    1  UNL1        0.0164
     18 C           3.5191    0.6026    1.0457 C.ar    1  UNL1       -0.0236
     19 C           3.9662   -0.1286    0.0013 C.ar    1  UNL1        0.0402
     20 N           5.2890   -0.5528   -0.1971 N.am    1  UNL1       -0.2800
     21 C           6.4011   -0.3001    0.6492 C.2     1  UNL1        0.2671
     22 O           6.2297    0.3687    1.6954 O.2     1  UNL1       -0.2682
     23 C           7.7608   -0.8129    0.3174 C.ar    1  UNL1        0.1328
     24 C           8.8400   -0.5551    1.1599 C.ar    1  UNL1        0.0076
     25 S          10.1971   -1.3841    0.3014 S.2     1  UNL1       -0.0831
     26 C           9.0347   -1.9462   -1.0789 C.ar    1  UNL1        0.0655
     27 N           8.0669   -1.5202   -0.7415 N.ar    1  UNL1       -0.2428
     28 C           3.0246   -0.4883   -0.9574 C.ar    1  UNL1        0.0246
     29 C           1.7015   -0.1204   -0.8527 C.ar    1  UNL1        0.2586
     30 O           0.9144   -0.4832   -1.7574 O.2     1  UNL1       -0.2672
     31 C          -0.7212    1.4094    1.4196 C.ar    1  UNL1        0.0464
     32 N          -1.9974    1.6403    1.0663 N.ar    1  UNL1       -0.3460
     33 H          -5.2745    2.5668   -0.9482 H       1  UNL1        0.0240
     34 H          -4.3741    2.6327    0.5865 H       1  UNL1        0.0240
     35 H          -3.7752    3.6113   -0.8006 H       1  UNL1        0.0240
     36 H          -3.1906    1.7221   -2.0862 H       1  UNL1        0.0425
     37 H          -3.3253   -0.6291   -2.6983 H       1  UNL1        0.0620
     38 H          -4.6905   -2.7054   -2.6182 H       1  UNL1        0.0618
     39 H          -6.3731   -3.0128   -0.8314 H       1  UNL1        0.0623
     40 H          -5.2930    0.8136    0.7423 H       1  UNL1        0.0626
     41 H           1.8105    1.5626    1.9872 H       1  UNL1        0.0815
     42 H           4.1308    0.9492    1.8564 H       1  UNL1        0.0651
     43 H           5.5464   -1.1358   -1.0678 H       1  UNL1        0.1552
     44 H           8.9100   -0.0113    2.0910 H       1  UNL1        0.0717
     45 H           9.6207   -2.5882   -1.9219 H       1  UNL1        0.0907
     46 H           3.3301   -1.0768   -1.8188 H       1  UNL1        0.0690
     47 H          -0.2483    1.5292    2.3851 H       1  UNL1        0.0845
     48 H          -2.7196    1.9837    1.7308 H       1  UNL1        0.1666
@<TRIPOS>BOND
     1     1     2    1
     2     2     3    1
     3     3     4   ar
     4     4     5   ar
     5     5     6   ar
     6     6     7   ar
     7     7     8    1
     8     8     9    1
     9     8    10    1
    10     8    11    1
    11     7    12   ar
    12     2    13    1
    13    13    14   ar
    14    14    15   ar
    15    15    16    1
    16    16    17   ar
    17    17    18   ar
    18    18    19   ar
    19    19    20    1
    20    20    21   am
    21    21    22    2
    22    21    23    1
    23    23    24   ar
    24    24    25   ar
    25    25    26   ar
    26    26    27   ar
    27    19    28   ar
    28    28    29   ar
    29    29    30    2
    30    15    31   ar
    31    31    32   ar
    32    12     3   ar
    33    32    13   ar
    34    29    16   ar
    35    27    23   ar
    36     1    33    1
    37     1    34    1
    38     1    35    1
    39     2    36    1
    40     4    37    1
    41     5    38    1
    42     6    39    1
    43    12    40    1
    44    17    41    1
    45    18    42    1
    46    20    43    1
    47    24    44    1
    48    26    45    1
    49    28    46    1
    50    31    47    1
    51    32    48    1
