@<TRIPOS>MOLECULE
*****
 51 55 0 0 0
SMALL
GASTEIGER

@<TRIPOS>ATOM
      1 N           0.3155    3.1709   -0.5743 N.1     1  UNL1       -0.1907
      2 C          -0.1104    2.1599   -0.2471 C.1     1  UNL1        0.1035
      3 C          -0.6528    0.9041    0.1836 C.ar    1  UNL1        0.1036
      4 C          -1.9573    0.8723    0.6492 C.ar    1  UNL1        0.0051
      5 C          -2.8107    2.0519    0.7312 C.ar    1  UNL1       -0.0165
      6 C          -2.3969    3.2588    1.2532 C.ar    1  UNL1       -0.0540
      7 C          -3.2201    4.3761    1.3231 C.ar    1  UNL1       -0.0612
      8 C          -4.5120    4.2975    0.8557 C.ar    1  UNL1       -0.0617
      9 C          -4.9485    3.1066    0.3311 C.ar    1  UNL1       -0.0612
     10 C          -4.1278    2.0027    0.2646 C.ar    1  UNL1       -0.0540
     11 C          -2.4683   -0.3500    1.0597 C.ar    1  UNL1       -0.0266
     12 C          -1.6796   -1.4612    0.9914 C.ar    1  UNL1        0.0740
     13 C          -2.1825   -2.7453    1.4109 C.ar    1  UNL1        0.0004
     14 C          -3.4483   -2.9026    1.8866 C.ar    1  UNL1       -0.0526
     15 C          -3.9183   -4.1466    2.2868 C.ar    1  UNL1       -0.0611
     16 C          -3.0853   -5.2350    2.1985 C.ar    1  UNL1       -0.0617
     17 C          -1.8094   -5.0741    1.7186 C.ar    1  UNL1       -0.0611
     18 C          -1.3620   -3.8461    1.3293 C.ar    1  UNL1       -0.0526
     19 N          -0.3923   -1.3695    0.5207 N.ar    1  UNL1       -0.2266
     20 C           0.1306   -0.2114    0.1180 C.ar    1  UNL1        0.1737
     21 N           1.4539   -0.1589   -0.3581 N.2     1  UNL1       -0.2047
     22 C           1.8120    0.1783   -1.5229 C.2     1  UNL1        0.1699
     23 S           0.7178    0.6679   -2.8391 S.3     1  UNL1       -0.0802
     24 C           2.0556    1.1950   -3.9964 C.3     1  UNL1        0.0783
     25 C           3.1621    0.4181   -3.4311 C.2     1  UNL1        0.2359
     26 O           4.0955   -0.0625   -4.1621 O.2     1  UNL1       -0.2739
     27 N           3.1168    0.2452   -2.0388 N.am    1  UNL1       -0.2182
     28 C           4.2838    0.1451   -1.2151 C.ar    1  UNL1        0.0432
     29 C           4.8525    1.2659   -0.6650 C.ar    1  UNL1       -0.0399
     30 C           5.9861    1.1546    0.1335 C.ar    1  UNL1       -0.0600
     31 C           6.5679   -0.0806    0.3938 C.ar    1  UNL1       -0.0616
     32 C           6.0012   -1.1995   -0.1546 C.ar    1  UNL1       -0.0600
     33 C           4.8734   -1.0828   -0.9483 C.ar    1  UNL1       -0.0399
     34 H          -1.3805    3.3484    1.6319 H       1  UNL1        0.0624
     35 H          -2.8442    5.3148    1.7476 H       1  UNL1        0.0618
     36 H          -5.2038    5.1385    0.8836 H       1  UNL1        0.0618
     37 H          -5.9698    3.0148   -0.0479 H       1  UNL1        0.0618
     38 H          -4.4423    1.0460   -0.1444 H       1  UNL1        0.0624
     39 H          -3.5023   -0.3406    1.4221 H       1  UNL1        0.0645
     40 H          -4.1451   -2.1019    1.9811 H       1  UNL1        0.0624
     41 H          -4.9135   -4.2923    2.6651 H       1  UNL1        0.0618
     42 H          -3.4467   -6.2270    2.5129 H       1  UNL1        0.0618
     43 H          -1.1833   -5.9735    1.6676 H       1  UNL1        0.0618
     44 H          -0.3552   -3.7550    0.9573 H       1  UNL1        0.0624
     45 H           2.1566    2.2897   -3.8569 H       1  UNL1        0.0476
     46 H           1.7608    0.8918   -5.0006 H       1  UNL1        0.0476
     47 H           4.3876    2.2226   -0.8767 H       1  UNL1        0.0636
     48 H           6.3988    2.0666    0.5452 H       1  UNL1        0.0618
     49 H           7.4476   -0.0794    1.0247 H       1  UNL1        0.0618
     50 H           6.4689   -2.1477    0.0603 H       1  UNL1        0.0618
     51 H           4.4242   -1.9606   -1.3818 H       1  UNL1        0.0636
@<TRIPOS>BOND
     1     1     2    3
     2     2     3    1
     3     3     4   ar
     4     4     5    1
     5     5     6   ar
     6     6     7   ar
     7     7     8   ar
     8     8     9   ar
     9     9    10   ar
    10     4    11   ar
    11    11    12   ar
    12    12    13    1
    13    13    14   ar
    14    14    15   ar
    15    15    16   ar
    16    16    17   ar
    17    17    18   ar
    18    12    19   ar
    19    19    20   ar
    20    20    21    1
    21    21    22    2
    22    22    23    1
    23    23    24    1
    24    24    25    1
    25    25    26    2
    26    25    27   am
    27    27    28    1
    28    28    29   ar
    29    29    30   ar
    30    30    31   ar
    31    31    32   ar
    32    32    33   ar
    33    20     3   ar
    34    27    22    1
    35    33    28   ar
    36    10     5   ar
    37    18    13   ar
    38     6    34    1
    39     7    35    1
    40     8    36    1
    41     9    37    1
    42    10    38    1
    43    11    39    1
    44    14    40    1
    45    15    41    1
    46    16    42    1
    47    17    43    1
    48    18    44    1
    49    24    45    1
    50    24    46    1
    51    29    47    1
    52    30    48    1
    53    31    49    1
    54    32    50    1
    55    33    51    1
