
     RDKit          3D

 51 55  0  0  0  0  0  0  0  0999 V2000
    0.3155    3.1709   -0.5743 N   0  0  0  0  0  0  0  0  0  0  0  0
   -0.1104    2.1599   -0.2471 C   0  0  0  0  0  0  0  0  0  0  0  0
   -0.6528    0.9041    0.1836 C   0  0  0  0  0  0  0  0  0  0  0  0
   -1.9573    0.8723    0.6492 C   0  0  0  0  0  0  0  0  0  0  0  0
   -2.8107    2.0519    0.7312 C   0  0  0  0  0  0  0  0  0  0  0  0
   -2.3969    3.2588    1.2532 C   0  0  0  0  0  0  0  0  0  0  0  0
   -3.2201    4.3761    1.3231 C   0  0  0  0  0  0  0  0  0  0  0  0
   -4.5120    4.2975    0.8557 C   0  0  0  0  0  0  0  0  0  0  0  0
   -4.9485    3.1066    0.3311 C   0  0  0  0  0  0  0  0  0  0  0  0
   -4.1278    2.0027    0.2646 C   0  0  0  0  0  0  0  0  0  0  0  0
   -2.4683   -0.3500    1.0597 C   0  0  0  0  0  0  0  0  0  0  0  0
   -1.6796   -1.4612    0.9914 C   0  0  0  0  0  0  0  0  0  0  0  0
   -2.1825   -2.7453    1.4109 C   0  0  0  0  0  0  0  0  0  0  0  0
   -3.4483   -2.9026    1.8866 C   0  0  0  0  0  0  0  0  0  0  0  0
   -3.9183   -4.1466    2.2868 C   0  0  0  0  0  0  0  0  0  0  0  0
   -3.0853   -5.2350    2.1985 C   0  0  0  0  0  0  0  0  0  0  0  0
   -1.8094   -5.0741    1.7186 C   0  0  0  0  0  0  0  0  0  0  0  0
   -1.3620   -3.8461    1.3293 C   0  0  0  0  0  0  0  0  0  0  0  0
   -0.3923   -1.3695    0.5207 N   0  0  0  0  0  0  0  0  0  0  0  0
    0.1306   -0.2114    0.1180 C   0  0  0  0  0  0  0  0  0  0  0  0
    1.4539   -0.1589   -0.3581 N   0  0  0  0  0  0  0  0  0  0  0  0
    1.8120    0.1783   -1.5229 C   0  0  0  0  0  0  0  0  0  0  0  0
    0.7178    0.6679   -2.8391 S   0  0  0  0  0  0  0  0  0  0  0  0
    2.0556    1.1950   -3.9964 C   0  0  0  0  0  0  0  0  0  0  0  0
    3.1621    0.4181   -3.4311 C   0  0  0  0  0  0  0  0  0  0  0  0
    4.0955   -0.0625   -4.1621 O   0  0  0  0  0  0  0  0  0  0  0  0
    3.1168    0.2452   -2.0388 N   0  0  0  0  0  0  0  0  0  0  0  0
    4.2838    0.1451   -1.2151 C   0  0  0  0  0  0  0  0  0  0  0  0
    4.8525    1.2659   -0.6650 C   0  0  0  0  0  0  0  0  0  0  0  0
    5.9861    1.1546    0.1335 C   0  0  0  0  0  0  0  0  0  0  0  0
    6.5679   -0.0806    0.3938 C   0  0  0  0  0  0  0  0  0  0  0  0
    6.0012   -1.1995   -0.1546 C   0  0  0  0  0  0  0  0  0  0  0  0
    4.8734   -1.0828   -0.9483 C   0  0  0  0  0  0  0  0  0  0  0  0
   -1.3805    3.3484    1.6319 H   0  0  0  0  0  0  0  0  0  0  0  0
   -2.8442    5.3148    1.7476 H   0  0  0  0  0  0  0  0  0  0  0  0
   -5.2038    5.1385    0.8836 H   0  0  0  0  0  0  0  0  0  0  0  0
   -5.9698    3.0148   -0.0479 H   0  0  0  0  0  0  0  0  0  0  0  0
   -4.4423    1.0460   -0.1444 H   0  0  0  0  0  0  0  0  0  0  0  0
   -3.5023   -0.3406    1.4221 H   0  0  0  0  0  0  0  0  0  0  0  0
   -4.1451   -2.1019    1.9811 H   0  0  0  0  0  0  0  0  0  0  0  0
   -4.9135   -4.2923    2.6651 H   0  0  0  0  0  0  0  0  0  0  0  0
   -3.4467   -6.2270    2.5129 H   0  0  0  0  0  0  0  0  0  0  0  0
   -1.1833   -5.9735    1.6676 H   0  0  0  0  0  0  0  0  0  0  0  0
   -0.3552   -3.7550    0.9573 H   0  0  0  0  0  0  0  0  0  0  0  0
    2.1566    2.2897   -3.8569 H   0  0  0  0  0  0  0  0  0  0  0  0
    1.7608    0.8918   -5.0006 H   0  0  0  0  0  0  0  0  0  0  0  0
    4.3876    2.2226   -0.8767 H   0  0  0  0  0  0  0  0  0  0  0  0
    6.3988    2.0666    0.5452 H   0  0  0  0  0  0  0  0  0  0  0  0
    7.4476   -0.0794    1.0247 H   0  0  0  0  0  0  0  0  0  0  0  0
    6.4689   -2.1477    0.0603 H   0  0  0  0  0  0  0  0  0  0  0  0
    4.4242   -1.9606   -1.3818 H   0  0  0  0  0  0  0  0  0  0  0  0
  1  2  3  0
  2  3  1  0
  3  4  2  0
  4  5  1  0
  5  6  2  0
  6  7  1  0
  7  8  2  0
  8  9  1  0
  9 10  2  0
  4 11  1  0
 11 12  2  0
 12 13  1  0
 13 14  2  0
 14 15  1  0
 15 16  2  0
 16 17  1  0
 17 18  2  0
 12 19  1  0
 19 20  2  0
 20 21  1  0
 21 22  2  0
 22 23  1  0
 23 24  1  0
 24 25  1  0
 25 26  2  0
 25 27  1  0
 27 28  1  0
 28 29  2  0
 29 30  1  0
 30 31  2  0
 31 32  1  0
 32 33  2  0
 20  3  1  0
 27 22  1  0
 33 28  1  0
 10  5  1  0
 18 13  1  0
  6 34  1  0
  7 35  1  0
  8 36  1  0
  9 37  1  0
 10 38  1  0
 11 39  1  0
 14 40  1  0
 15 41  1  0
 16 42  1  0
 17 43  1  0
 18 44  1  0
 24 45  1  0
 24 46  1  0
 29 47  1  0
 30 48  1  0
 31 49  1  0
 32 50  1  0
 33 51  1  0
M  END
$$$$
