@<TRIPOS>MOLECULE
*****
 74 81 0 0 0
SMALL
GASTEIGER

@<TRIPOS>ATOM
      1 N          -3.4655   -3.9021    2.0272 N.pl3   1  UNL1       -0.3414
      2 C          -2.2795   -4.3178    1.3382 C.ar    1  UNL1        0.1424
      3 N          -1.9221   -5.5955    1.2376 N.ar    1  UNL1       -0.2371
      4 C          -0.8058   -5.9442    0.5731 C.ar    1  UNL1        0.0463
      5 C           0.0044   -4.9955   -0.0246 C.ar    1  UNL1        0.0297
      6 N          -0.3823   -3.7120    0.0938 N.ar    1  UNL1       -0.2982
      7 C          -1.5032   -3.3400    0.7595 C.ar    1  UNL1        0.1136
      8 C          -1.6453   -1.9686    0.7124 C.ar    1  UNL1        0.1029
      9 C          -2.7170   -1.1745    1.2888 C.ar    1  UNL1        0.0399
     10 C          -2.9494   -1.1771    2.6480 C.ar    1  UNL1       -0.0490
     11 C          -3.9769   -0.3849    3.1203 C.ar    1  UNL1       -0.0518
     12 C          -4.7439    0.3818    2.2718 C.ar    1  UNL1        0.0033
     13 C          -5.7745    1.1701    2.7397 C.ar    1  UNL1       -0.0505
     14 C          -6.5336    1.9270    1.8568 C.ar    1  UNL1       -0.0351
     15 C          -6.2972    1.9249    0.5053 C.ar    1  UNL1        0.0718
     16 C          -7.0844    2.7025   -0.4391 C.ar    1  UNL1        0.0004
     17 C          -8.1089    3.4923   -0.0066 C.ar    1  UNL1       -0.0526
     18 C          -8.8845    4.2492   -0.8988 C.ar    1  UNL1       -0.0611
     19 C          -8.6253    4.2100   -2.2369 C.ar    1  UNL1       -0.0617
     20 C          -7.5952    3.4161   -2.6722 C.ar    1  UNL1       -0.0611
     21 C          -6.8385    2.6767   -1.7958 C.ar    1  UNL1       -0.0526
     22 N          -5.2717    1.1375    0.0663 N.ar    1  UNL1       -0.2438
     23 C          -4.5315    0.4020    0.9105 C.ar    1  UNL1        0.1074
     24 C          -3.4893   -0.4043    0.4430 C.ar    1  UNL1        0.1584
     25 F          -3.2829   -0.3802   -0.9115 F       1  UNL1       -0.2026
     26 N          -0.5741   -1.5296   -0.0039 N.ar    1  UNL1       -0.2309
     27 C           0.1927   -2.5926   -0.3786 C.ar    1  UNL1        0.1180
     28 C           1.4394   -2.5819   -1.1703 C.3     1  UNL1        0.0177
     29 C           1.3616   -1.4592   -2.1718 C.3     1  UNL1       -0.0427
     30 C           2.5474   -0.5253   -2.0661 C.3     1  UNL1       -0.0413
     31 C           2.6439    0.1057   -0.7081 C.3     1  UNL1        0.0360
     32 C           3.8918    0.8598   -0.4917 C.2     1  UNL1        0.2224
     33 O           3.8173    2.0915   -0.2731 O.2     1  UNL1       -0.2751
     34 N           5.1644    0.2380   -0.5216 N.am    1  UNL1       -0.2558
     35 C           6.3946    0.9308   -0.3098 C.ar    1  UNL1        0.2003
     36 N           7.1336    1.4864   -1.2642 N.ar    1  UNL1       -0.2143
     37 C           8.2317    2.0634   -0.7607 C.ar    1  UNL1        0.0907
     38 C           9.3076    2.7580   -1.2700 C.ar    1  UNL1       -0.0342
     39 C          10.3250    3.2497   -0.4808 C.ar    1  UNL1       -0.0596
     40 C          10.2747    3.0448    0.8769 C.ar    1  UNL1       -0.0597
     41 C           9.1943    2.3471    1.3939 C.ar    1  UNL1       -0.0362
     42 C           8.1781    1.8541    0.6089 C.ar    1  UNL1        0.0674
     43 N           7.0379    1.1576    0.8445 N.ar    1  UNL1       -0.3258
     44 C           2.5183   -0.9773    0.3374 C.3     1  UNL1       -0.0413
     45 C           2.6769   -2.3056   -0.3072 C.3     1  UNL1       -0.0427
     46 H          -3.5374   -3.9828    3.0827 H       1  UNL1        0.1438
     47 H          -4.2486   -3.5179    1.4404 H       1  UNL1        0.1438
     48 H          -0.4955   -6.9809    0.4780 H       1  UNL1        0.0845
     49 H           0.9159   -5.2838   -0.5674 H       1  UNL1        0.0829
     50 H          -2.3442   -1.7725    3.3518 H       1  UNL1        0.0625
     51 H          -4.1749   -0.3738    4.1874 H       1  UNL1        0.0624
     52 H          -5.9704    1.1789    3.8087 H       1  UNL1        0.0625
     53 H          -7.3173    2.5130    2.2968 H       1  UNL1        0.0639
     54 H          -8.3985    3.5975    1.0197 H       1  UNL1        0.0624
     55 H          -9.6965    4.8698   -0.5235 H       1  UNL1        0.0618
     56 H          -9.2315    4.8021   -2.9345 H       1  UNL1        0.0618
     57 H          -7.3769    3.3743   -3.7267 H       1  UNL1        0.0618
     58 H          -6.0188    2.0418   -2.1194 H       1  UNL1        0.0624
     59 H           1.5507   -3.5920   -1.6391 H       1  UNL1        0.0379
     60 H           0.4589   -0.8473   -2.1104 H       1  UNL1        0.0272
     61 H           1.3929   -1.9042   -3.1866 H       1  UNL1        0.0272
     62 H           2.3071    0.3167   -2.7796 H       1  UNL1        0.0273
     63 H           3.4875   -0.9501   -2.4503 H       1  UNL1        0.0273
     64 H           1.7403    0.7639   -0.6057 H       1  UNL1        0.0394
     65 H           5.2702   -0.8032   -0.7057 H       1  UNL1        0.1577
     66 H           9.3749    2.9330   -2.3345 H       1  UNL1        0.0639
     67 H          11.1709    3.7970   -0.8912 H       1  UNL1        0.0618
     68 H          11.0766    3.4302    1.5203 H       1  UNL1        0.0618
     69 H           9.1564    2.1840    2.4795 H       1  UNL1        0.0639
     70 H           6.7336    0.8561    1.7951 H       1  UNL1        0.1686
     71 H           1.5234   -0.9331    0.8204 H       1  UNL1        0.0273
     72 H           3.2423   -0.8099    1.1751 H       1  UNL1        0.0273
     73 H           2.8295   -3.1204    0.4299 H       1  UNL1        0.0272
     74 H           3.5260   -2.3952   -1.0189 H       1  UNL1        0.0272
@<TRIPOS>BOND
     1     1     2    1
     2     2     3   ar
     3     3     4   ar
     4     4     5   ar
     5     5     6   ar
     6     6     7   ar
     7     7     8   ar
     8     8     9    1
     9     9    10   ar
    10    10    11   ar
    11    11    12   ar
    12    12    13   ar
    13    13    14   ar
    14    14    15   ar
    15    15    16    1
    16    16    17   ar
    17    17    18   ar
    18    18    19   ar
    19    19    20   ar
    20    20    21   ar
    21    15    22   ar
    22    22    23   ar
    23    23    24   ar
    24    24    25    1
    25     8    26   ar
    26    26    27   ar
    27    27    28    1
    28    28    29    1
    29    29    30    1
    30    30    31    1
    31    31    32    1
    32    32    33    2
    33    32    34   am
    34    34    35    1
    35    35    36   ar
    36    36    37   ar
    37    37    38   ar
    38    38    39   ar
    39    39    40   ar
    40    40    41   ar
    41    41    42   ar
    42    42    43   ar
    43    31    44    1
    44    44    45    1
    45     7     2   ar
    46    24     9   ar
    47    45    28    1
    48    27     6   ar
    49    43    35   ar
    50    23    12   ar
    51    42    37   ar
    52    21    16   ar
    53     1    46    1
    54     1    47    1
    55     4    48    1
    56     5    49    1
    57    10    50    1
    58    11    51    1
    59    13    52    1
    60    14    53    1
    61    17    54    1
    62    18    55    1
    63    19    56    1
    64    20    57    1
    65    21    58    1
    66    28    59    1
    67    29    60    1
    68    29    61    1
    69    30    62    1
    70    30    63    1
    71    31    64    1
    72    34    65    1
    73    38    66    1
    74    39    67    1
    75    40    68    1
    76    41    69    1
    77    43    70    1
    78    44    71    1
    79    44    72    1
    80    45    73    1
    81    45    74    1
