
     RDKit          3D

 74 81  0  0  0  0  0  0  0  0999 V2000
   -3.4655   -3.9021    2.0272 N   0  0  0  0  0  0  0  0  0  0  0  0
   -2.2795   -4.3178    1.3382 C   0  0  0  0  0  0  0  0  0  0  0  0
   -1.9221   -5.5955    1.2376 N   0  0  0  0  0  0  0  0  0  0  0  0
   -0.8058   -5.9442    0.5731 C   0  0  0  0  0  0  0  0  0  0  0  0
    0.0044   -4.9955   -0.0246 C   0  0  0  0  0  0  0  0  0  0  0  0
   -0.3823   -3.7120    0.0938 N   0  0  0  0  0  0  0  0  0  0  0  0
   -1.5032   -3.3400    0.7595 C   0  0  0  0  0  0  0  0  0  0  0  0
   -1.6453   -1.9686    0.7124 C   0  0  0  0  0  0  0  0  0  0  0  0
   -2.7170   -1.1745    1.2888 C   0  0  0  0  0  0  0  0  0  0  0  0
   -2.9494   -1.1771    2.6480 C   0  0  0  0  0  0  0  0  0  0  0  0
   -3.9769   -0.3849    3.1203 C   0  0  0  0  0  0  0  0  0  0  0  0
   -4.7439    0.3818    2.2718 C   0  0  0  0  0  0  0  0  0  0  0  0
   -5.7745    1.1701    2.7397 C   0  0  0  0  0  0  0  0  0  0  0  0
   -6.5336    1.9270    1.8568 C   0  0  0  0  0  0  0  0  0  0  0  0
   -6.2972    1.9249    0.5053 C   0  0  0  0  0  0  0  0  0  0  0  0
   -7.0844    2.7025   -0.4391 C   0  0  0  0  0  0  0  0  0  0  0  0
   -8.1089    3.4923   -0.0066 C   0  0  0  0  0  0  0  0  0  0  0  0
   -8.8845    4.2492   -0.8988 C   0  0  0  0  0  0  0  0  0  0  0  0
   -8.6253    4.2100   -2.2369 C   0  0  0  0  0  0  0  0  0  0  0  0
   -7.5952    3.4161   -2.6722 C   0  0  0  0  0  0  0  0  0  0  0  0
   -6.8385    2.6767   -1.7958 C   0  0  0  0  0  0  0  0  0  0  0  0
   -5.2717    1.1375    0.0663 N   0  0  0  0  0  0  0  0  0  0  0  0
   -4.5315    0.4020    0.9105 C   0  0  0  0  0  0  0  0  0  0  0  0
   -3.4893   -0.4043    0.4430 C   0  0  0  0  0  0  0  0  0  0  0  0
   -3.2829   -0.3802   -0.9115 F   0  0  0  0  0  0  0  0  0  0  0  0
   -0.5741   -1.5296   -0.0039 N   0  0  0  0  0  0  0  0  0  0  0  0
    0.1927   -2.5926   -0.3786 C   0  0  0  0  0  0  0  0  0  0  0  0
    1.4394   -2.5819   -1.1703 C   0  0  1  0  0  0  0  0  0  0  0  0
    1.3616   -1.4592   -2.1718 C   0  0  0  0  0  0  0  0  0  0  0  0
    2.5474   -0.5253   -2.0661 C   0  0  0  0  0  0  0  0  0  0  0  0
    2.6439    0.1057   -0.7081 C   0  0  2  0  0  0  0  0  0  0  0  0
    3.8918    0.8598   -0.4917 C   0  0  0  0  0  0  0  0  0  0  0  0
    3.8173    2.0915   -0.2731 O   0  0  0  0  0  0  0  0  0  0  0  0
    5.1644    0.2380   -0.5216 N   0  0  0  0  0  0  0  0  0  0  0  0
    6.3946    0.9308   -0.3098 C   0  0  0  0  0  0  0  0  0  0  0  0
    7.1336    1.4864   -1.2642 N   0  0  0  0  0  0  0  0  0  0  0  0
    8.2317    2.0634   -0.7607 C   0  0  0  0  0  0  0  0  0  0  0  0
    9.3076    2.7580   -1.2700 C   0  0  0  0  0  0  0  0  0  0  0  0
   10.3250    3.2497   -0.4808 C   0  0  0  0  0  0  0  0  0  0  0  0
   10.2747    3.0448    0.8769 C   0  0  0  0  0  0  0  0  0  0  0  0
    9.1943    2.3471    1.3939 C   0  0  0  0  0  0  0  0  0  0  0  0
    8.1781    1.8541    0.6089 C   0  0  0  0  0  0  0  0  0  0  0  0
    7.0379    1.1576    0.8445 N   0  0  0  0  0  0  0  0  0  0  0  0
    2.5183   -0.9773    0.3374 C   0  0  0  0  0  0  0  0  0  0  0  0
    2.6769   -2.3056   -0.3072 C   0  0  0  0  0  0  0  0  0  0  0  0
   -3.5374   -3.9828    3.0827 H   0  0  0  0  0  0  0  0  0  0  0  0
   -4.2486   -3.5179    1.4404 H   0  0  0  0  0  0  0  0  0  0  0  0
   -0.4955   -6.9809    0.4780 H   0  0  0  0  0  0  0  0  0  0  0  0
    0.9159   -5.2838   -0.5674 H   0  0  0  0  0  0  0  0  0  0  0  0
   -2.3442   -1.7725    3.3518 H   0  0  0  0  0  0  0  0  0  0  0  0
   -4.1749   -0.3738    4.1874 H   0  0  0  0  0  0  0  0  0  0  0  0
   -5.9704    1.1789    3.8087 H   0  0  0  0  0  0  0  0  0  0  0  0
   -7.3173    2.5130    2.2968 H   0  0  0  0  0  0  0  0  0  0  0  0
   -8.3985    3.5975    1.0197 H   0  0  0  0  0  0  0  0  0  0  0  0
   -9.6965    4.8698   -0.5235 H   0  0  0  0  0  0  0  0  0  0  0  0
   -9.2315    4.8021   -2.9345 H   0  0  0  0  0  0  0  0  0  0  0  0
   -7.3769    3.3743   -3.7267 H   0  0  0  0  0  0  0  0  0  0  0  0
   -6.0188    2.0418   -2.1194 H   0  0  0  0  0  0  0  0  0  0  0  0
    1.5507   -3.5920   -1.6391 H   0  0  0  0  0  0  0  0  0  0  0  0
    0.4589   -0.8473   -2.1104 H   0  0  0  0  0  0  0  0  0  0  0  0
    1.3929   -1.9042   -3.1866 H   0  0  0  0  0  0  0  0  0  0  0  0
    2.3071    0.3167   -2.7796 H   0  0  0  0  0  0  0  0  0  0  0  0
    3.4875   -0.9501   -2.4503 H   0  0  0  0  0  0  0  0  0  0  0  0
    1.7403    0.7639   -0.6057 H   0  0  0  0  0  0  0  0  0  0  0  0
    5.2702   -0.8032   -0.7057 H   0  0  0  0  0  0  0  0  0  0  0  0
    9.3749    2.9330   -2.3345 H   0  0  0  0  0  0  0  0  0  0  0  0
   11.1709    3.7970   -0.8912 H   0  0  0  0  0  0  0  0  0  0  0  0
   11.0766    3.4302    1.5203 H   0  0  0  0  0  0  0  0  0  0  0  0
    9.1564    2.1840    2.4795 H   0  0  0  0  0  0  0  0  0  0  0  0
    6.7336    0.8561    1.7951 H   0  0  0  0  0  0  0  0  0  0  0  0
    1.5234   -0.9331    0.8204 H   0  0  0  0  0  0  0  0  0  0  0  0
    3.2423   -0.8099    1.1751 H   0  0  0  0  0  0  0  0  0  0  0  0
    2.8295   -3.1204    0.4299 H   0  0  0  0  0  0  0  0  0  0  0  0
    3.5260   -2.3952   -1.0189 H   0  0  0  0  0  0  0  0  0  0  0  0
  1  2  1  0
  2  3  2  0
  3  4  1  0
  4  5  2  0
  5  6  1  0
  6  7  1  0
  7  8  2  0
  8  9  1  0
  9 10  2  0
 10 11  1  0
 11 12  2  0
 12 13  1  0
 13 14  2  0
 14 15  1  0
 15 16  1  0
 16 17  2  0
 17 18  1  0
 18 19  2  0
 19 20  1  0
 20 21  2  0
 15 22  2  0
 22 23  1  0
 23 24  2  0
 24 25  1  0
  8 26  1  0
 26 27  2  0
 27 28  1  0
 28 29  1  0
 29 30  1  0
 30 31  1  0
 31 32  1  0
 32 33  2  0
 32 34  1  0
 34 35  1  0
 35 36  2  0
 36 37  1  0
 37 38  2  0
 38 39  1  0
 39 40  2  0
 40 41  1  0
 41 42  2  0
 42 43  1  0
 31 44  1  0
 44 45  1  0
  7  2  1  0
 24  9  1  0
 45 28  1  0
 27  6  1  0
 43 35  1  0
 23 12  1  0
 42 37  1  0
 21 16  1  0
  1 46  1  0
  1 47  1  0
  4 48  1  0
  5 49  1  0
 10 50  1  0
 11 51  1  0
 13 52  1  0
 14 53  1  0
 17 54  1  0
 18 55  1  0
 19 56  1  0
 20 57  1  0
 21 58  1  0
 28 59  1  6
 29 60  1  0
 29 61  1  0
 30 62  1  0
 30 63  1  0
 31 64  1  1
 34 65  1  0
 38 66  1  0
 39 67  1  0
 40 68  1  0
 41 69  1  0
 43 70  1  0
 44 71  1  0
 44 72  1  0
 45 73  1  0
 45 74  1  0
M  END
$$$$
