@<TRIPOS>MOLECULE
*****
 31 33 0 0 0
SMALL
GASTEIGER

@<TRIPOS>ATOM
      1 C          -1.5704    3.7004   -1.5151 C.3     1  UNL1       -0.0064
      2 C          -1.3878    2.3133   -0.9923 C.ar    1  UNL1        0.1069
      3 N          -0.3954    1.4350   -1.2760 N.ar    1  UNL1       -0.2147
      4 C          -0.6781    0.3365   -0.5624 C.ar    1  UNL1        0.1686
      5 C          -1.8367    0.5197    0.1640 C.ar    1  UNL1        0.1491
      6 N          -2.2551    1.7597   -0.1244 N.ar    1  UNL1       -0.3365
      7 C          -2.3235   -0.5013    0.9843 C.ar    1  UNL1        0.2820
      8 O          -3.3745   -0.3266    1.6393 O.2     1  UNL1       -0.2652
      9 N          -1.6340   -1.6436    1.0369 N.ar    1  UNL1       -0.2622
     10 C          -2.1592   -2.7014    1.9014 C.3     1  UNL1        0.0196
     11 C          -0.5223   -1.7831    0.3228 C.ar    1  UNL1        0.3337
     12 O           0.0829   -2.9013    0.4231 O.2     1  UNL1       -0.2462
     13 N          -0.0140   -0.8234   -0.4839 N.ar    1  UNL1       -0.2690
     14 C           1.1924   -1.1232   -1.1891 C.3     1  UNL1        0.0873
     15 C           2.4231   -0.7651   -0.4534 C.ar    1  UNL1        0.1246
     16 C           3.0645    0.4546   -0.5279 C.ar    1  UNL1       -0.0189
     17 C           4.1794    0.4134    0.3006 C.ar    1  UNL1       -0.0236
     18 C           4.1509   -0.8622    0.8453 C.ar    1  UNL1        0.0922
     19 O           3.1161   -1.4969    0.3745 O.2     1  UNL1       -0.4660
     20 H          -0.8510    3.9077   -2.3124 H       1  UNL1        0.0307
     21 H          -1.4621    4.3786   -0.6396 H       1  UNL1        0.0307
     22 H          -2.6407    3.8169   -1.8472 H       1  UNL1        0.0307
     23 H          -3.1186    2.1962    0.2762 H       1  UNL1        0.1673
     24 H          -3.2397   -2.8128    1.6971 H       1  UNL1        0.0458
     25 H          -2.0462   -2.3512    2.9358 H       1  UNL1        0.0458
     26 H          -1.6117   -3.6569    1.7291 H       1  UNL1        0.0458
     27 H           1.1701   -0.5613   -2.1501 H       1  UNL1        0.0574
     28 H           1.1628   -2.2000   -1.4710 H       1  UNL1        0.0574
     29 H           2.7506    1.3042   -1.1325 H       1  UNL1        0.0652
     30 H           4.9155    1.1839    0.4940 H       1  UNL1        0.0649
     31 H           4.9127   -1.2099    1.5529 H       1  UNL1        0.1029
@<TRIPOS>BOND
     1     1     2    1
     2     2     3   ar
     3     3     4   ar
     4     4     5   ar
     5     5     6   ar
     6     5     7   ar
     7     7     8    2
     8     7     9   ar
     9     9    10    1
    10     9    11   ar
    11    11    12    2
    12    11    13   ar
    13    13    14    1
    14    14    15    1
    15    15    16   ar
    16    16    17   ar
    17    17    18   ar
    18    18    19   ar
    19     6     2   ar
    20    19    15   ar
    21    13     4   ar
    22     1    20    1
    23     1    21    1
    24     1    22    1
    25     6    23    1
    26    10    24    1
    27    10    25    1
    28    10    26    1
    29    14    27    1
    30    14    28    1
    31    16    29    1
    32    17    30    1
    33    18    31    1
