
     RDKit          3D

 41 44  0  0  0  0  0  0  0  0999 V2000
   -6.1415   -1.7043   -0.9393 C   0  0  0  0  0  0  0  0  0  0  0  0
   -6.2004   -0.4577   -0.2721 O   0  0  0  0  0  0  0  0  0  0  0  0
   -5.0900    0.2515    0.1664 C   0  0  0  0  0  0  0  0  0  0  0  0
   -3.7957   -0.1692    0.0061 C   0  0  0  0  0  0  0  0  0  0  0  0
   -2.7488    0.5993    0.4726 C   0  0  0  0  0  0  0  0  0  0  0  0
   -3.0398    1.8127    1.1100 C   0  0  0  0  0  0  0  0  0  0  0  0
   -4.3536    2.2423    1.2740 C   0  0  0  0  0  0  0  0  0  0  0  0
   -5.4026    1.4575    0.7986 C   0  0  0  0  0  0  0  0  0  0  0  0
   -6.7062    1.8994    0.9695 O   0  0  0  0  0  0  0  0  0  0  0  0
   -1.3472    0.2152    0.3410 C   0  0  0  0  0  0  0  0  0  0  0  0
   -0.4136    1.2404    0.2115 C   0  0  0  0  0  0  0  0  0  0  0  0
    0.9374    1.0531    0.0778 C   0  0  0  0  0  0  0  0  0  0  0  0
    1.3373   -0.2678    0.0785 C   0  0  0  0  0  0  0  0  0  0  0  0
    0.4891   -1.3425    0.2005 C   0  0  0  0  0  0  0  0  0  0  0  0
   -0.8716   -1.0672    0.3328 C   0  0  0  0  0  0  0  0  0  0  0  0
    2.7866   -0.2415   -0.0724 C   0  0  0  0  0  0  0  0  0  0  0  0
    3.6991   -1.1852   -0.1703 C   0  0  0  0  0  0  0  0  0  0  0  0
    5.1450   -1.1402   -0.3155 C   0  0  0  0  0  0  0  0  0  0  0  0
    6.0176   -1.7641   -1.1946 C   0  0  0  0  0  0  0  0  0  0  0  0
    7.3018   -1.4000   -0.8537 C   0  0  0  0  0  0  0  0  0  0  0  0
    7.1969   -0.5545    0.2338 C   0  0  0  0  0  0  0  0  0  0  0  0
    5.8904   -0.4115    0.5424 N   0  0  0  0  0  0  0  0  0  0  0  0
    3.2130    1.1478   -0.1612 C   0  0  0  0  0  0  0  0  0  0  0  0
    4.3351    1.6523   -0.2956 O   0  0  0  0  0  0  0  0  0  0  0  0
    2.0325    1.9357   -0.0637 N   0  0  0  0  0  0  0  0  0  0  0  0
   -7.2066   -2.0799   -0.9709 H   0  0  0  0  0  0  0  0  0  0  0  0
   -5.4700   -2.3690   -0.3709 H   0  0  0  0  0  0  0  0  0  0  0  0
   -5.7935   -1.4959   -1.9791 H   0  0  0  0  0  0  0  0  0  0  0  0
   -3.5956   -1.1027   -0.4844 H   0  0  0  0  0  0  0  0  0  0  0  0
   -2.2991    2.4902    1.5154 H   0  0  0  0  0  0  0  0  0  0  0  0
   -4.5731    3.1943    1.7747 H   0  0  0  0  0  0  0  0  0  0  0  0
   -6.9017    2.9083    0.9746 H   0  0  0  0  0  0  0  0  0  0  0  0
   -0.7561    2.2820    0.2129 H   0  0  0  0  0  0  0  0  0  0  0  0
    0.8718   -2.3492    0.1947 H   0  0  0  0  0  0  0  0  0  0  0  0
   -1.5959   -1.8748    0.4341 H   0  0  0  0  0  0  0  0  0  0  0  0
    3.3301   -2.2249   -0.1399 H   0  0  0  0  0  0  0  0  0  0  0  0
    5.6549   -2.4055   -1.9768 H   0  0  0  0  0  0  0  0  0  0  0  0
    8.1496   -1.7868   -1.4290 H   0  0  0  0  0  0  0  0  0  0  0  0
    8.1571   -0.1877    0.6077 H   0  0  0  0  0  0  0  0  0  0  0  0
    5.7868    0.2216    1.3809 H   0  0  0  0  0  0  0  0  0  0  0  0
    1.9707    2.9784   -0.0906 H   0  0  0  0  0  0  0  0  0  0  0  0
  1  2  1  0
  2  3  1  0
  3  4  2  0
  4  5  1  0
  5  6  2  0
  6  7  1  0
  7  8  2  0
  8  9  1  0
  5 10  1  0
 10 11  2  0
 11 12  1  0
 12 13  2  0
 13 14  1  0
 14 15  2  0
 13 16  1  0
 16 17  2  0
 17 18  1  0
 18 19  2  0
 19 20  1  0
 20 21  2  0
 21 22  1  0
 16 23  1  0
 23 24  2  0
 23 25  1  0
  8  3  1  0
 15 10  1  0
 22 18  1  0
 25 12  1  0
  1 26  1  0
  1 27  1  0
  1 28  1  0
  4 29  1  0
  6 30  1  0
  7 31  1  0
  9 32  1  0
 11 33  1  0
 14 34  1  0
 15 35  1  0
 17 36  1  0
 19 37  1  0
 20 38  1  0
 21 39  1  0
 22 40  1  0
 25 41  1  0
M  END
$$$$
