@<TRIPOS>MOLECULE
*****
 51 55 0 0 0
SMALL
GASTEIGER

@<TRIPOS>ATOM
      1 O          -1.6534   -0.7443   -1.4944 O.2     1  UNL1       -0.2699
      2 C          -1.8931    0.3244   -0.8871 C.2     1  UNL1        0.2491
      3 C          -3.1901    0.9641   -1.0592 C.ar    1  UNL1        0.0640
      4 C          -3.3279    1.8752   -2.0706 C.ar    1  UNL1       -0.0475
      5 C          -4.5543    2.4829   -2.2365 C.ar    1  UNL1       -0.0609
      6 C          -5.6075    2.1603   -1.3846 C.ar    1  UNL1       -0.0597
      7 C          -5.4297    1.2462   -0.3877 C.ar    1  UNL1       -0.0338
      8 C          -4.2072    0.6100   -0.1863 C.ar    1  UNL1        0.0982
      9 N          -3.9986   -0.3360    0.8344 N.ar    1  UNL1       -0.1496
     10 N          -4.0734   -1.6414    0.7132 N.ar    1  UNL1       -0.1556
     11 C          -3.8144   -2.2416    1.8948 C.ar    1  UNL1        0.0697
     12 C          -3.5671   -1.2232    2.7867 C.ar    1  UNL1        0.0697
     13 N          -3.6932   -0.0793    2.0848 N.ar    1  UNL1       -0.1556
     14 N          -0.8829    0.8784   -0.0456 N.am    1  UNL1       -0.2897
     15 C          -1.1423    2.1383    0.6793 C.3     1  UNL1        0.0388
     16 C           0.1484    2.5155    1.3729 C.3     1  UNL1        0.0635
     17 O           0.6083    1.5483    2.2223 O.3     1  UNL1       -0.3764
     18 C           0.6250    0.2660    1.6794 C.3     1  UNL1        0.0666
     19 C           0.4172    0.3149    0.1786 C.3     1  UNL1        0.0537
     20 C           0.6713   -0.9700   -0.5139 C.3     1  UNL1       -0.0068
     21 C           2.0454   -1.4369   -0.2017 C.ar    1  UNL1       -0.0449
     22 C           2.3243   -2.2839    0.8494 C.ar    1  UNL1       -0.0585
     23 C           3.5971   -2.7243    1.1526 C.ar    1  UNL1       -0.0608
     24 C           4.6496   -2.2921    0.3581 C.ar    1  UNL1       -0.0509
     25 C           4.4196   -1.4383   -0.7128 C.ar    1  UNL1        0.0227
     26 C           5.5690   -1.0194   -1.5107 C.ar    1  UNL1        0.2018
     27 N           6.7980   -0.6898   -1.0452 N.ar    1  UNL1       -0.1942
     28 C           7.5888   -0.3591   -2.0676 C.ar    1  UNL1        0.2147
     29 O           6.8608   -0.4822   -3.1471 O.2     1  UNL1       -0.3411
     30 N           5.6522   -0.8746   -2.8441 N.ar    1  UNL1       -0.0564
     31 C           3.1395   -1.0344   -0.9663 C.ar    1  UNL1       -0.0477
     32 H          -2.5166    2.1326   -2.7372 H       1  UNL1        0.0626
     33 H          -4.7132    3.2098   -3.0215 H       1  UNL1        0.0618
     34 H          -6.5606    2.6560   -1.5412 H       1  UNL1        0.0618
     35 H          -6.2530    0.9989    0.2727 H       1  UNL1        0.0639
     36 H          -3.7884   -3.2853    2.1597 H       1  UNL1        0.0864
     37 H          -3.3190   -1.3117    3.8465 H       1  UNL1        0.0864
     38 H          -1.3634    2.9524   -0.0373 H       1  UNL1        0.0487
     39 H          -1.9043    2.0000    1.4523 H       1  UNL1        0.0487
     40 H           0.8971    2.8925    0.6468 H       1  UNL1        0.0575
     41 H          -0.1066    3.4133    2.0098 H       1  UNL1        0.0575
     42 H           1.4966   -0.3089    1.9924 H       1  UNL1        0.0578
     43 H          -0.2938   -0.2445    2.0927 H       1  UNL1        0.0578
     44 H           1.1607    1.0547   -0.1969 H       1  UNL1        0.0526
     45 H          -0.0293   -1.7802   -0.2173 H       1  UNL1        0.0332
     46 H           0.6680   -0.7712   -1.6114 H       1  UNL1        0.0332
     47 H           1.5134   -2.6483    1.4997 H       1  UNL1        0.0620
     48 H           3.7740   -3.3937    1.9928 H       1  UNL1        0.0618
     49 H           5.6574   -2.6095    0.5569 H       1  UNL1        0.0625
     50 H           8.6243   -0.0450   -2.0811 H       1  UNL1        0.1283
     51 H           2.9771   -0.3658   -1.8086 H       1  UNL1        0.0627
@<TRIPOS>BOND
     1     1     2    2
     2     2     3    1
     3     3     4   ar
     4     4     5   ar
     5     5     6   ar
     6     6     7   ar
     7     7     8   ar
     8     8     9    1
     9     9    10   ar
    10    10    11   ar
    11    11    12   ar
    12    12    13   ar
    13     2    14   am
    14    14    15    1
    15    15    16    1
    16    16    17    1
    17    17    18    1
    18    18    19    1
    19    19    20    1
    20    20    21    1
    21    21    22   ar
    22    22    23   ar
    23    23    24   ar
    24    24    25   ar
    25    25    26    1
    26    26    27   ar
    27    27    28   ar
    28    28    29   ar
    29    29    30   ar
    30    25    31   ar
    31     8     3   ar
    32    13     9   ar
    33    19    14    1
    34    31    21   ar
    35    30    26   ar
    36     4    32    1
    37     5    33    1
    38     6    34    1
    39     7    35    1
    40    11    36    1
    41    12    37    1
    42    15    38    1
    43    15    39    1
    44    16    40    1
    45    16    41    1
    46    18    42    1
    47    18    43    1
    48    19    44    1
    49    20    45    1
    50    20    46    1
    51    22    47    1
    52    23    48    1
    53    24    49    1
    54    28    50    1
    55    31    51    1
