@<TRIPOS>MOLECULE
*****
 50 53 0 0 0
SMALL
GASTEIGER

@<TRIPOS>ATOM
      1 C           6.1122    4.2819   -0.4105 C.3     1  UNL1        0.0789
      2 O           6.5703    2.9454   -0.3617 O.3     1  UNL1       -0.4936
      3 C           5.5979    1.9298   -0.3377 C.ar    1  UNL1        0.1387
      4 C           4.2485    2.2219   -0.3605 C.ar    1  UNL1        0.0700
      5 N           3.3078    1.2671   -0.3382 N.ar    1  UNL1       -0.2479
      6 C           3.6352   -0.0330   -0.2922 C.ar    1  UNL1        0.1111
      7 C           2.6171   -0.9825   -0.2711 C.ar    1  UNL1        0.1490
      8 N           1.2950   -0.5502   -0.2913 N.pl3   1  UNL1       -0.2977
      9 C           0.1365   -1.3612   -0.3162 C.ar    1  UNL1        0.0330
     10 C           0.1346   -2.7154   -0.5641 C.ar    1  UNL1       -0.0378
     11 C          -1.0502   -3.4610   -0.5660 C.ar    1  UNL1       -0.0243
     12 C          -2.2687   -2.8748   -0.3203 C.ar    1  UNL1        0.1311
     13 F          -3.4267   -3.6152   -0.3253 F       1  UNL1       -0.2050
     14 C          -2.2907   -1.5230   -0.0703 C.ar    1  UNL1        0.0420
     15 C          -3.5805   -0.8059    0.2038 C.3     1  UNL1        0.1958
     16 C          -4.0520   -1.3822    1.5501 C.3     1  UNL1       -0.0112
     17 C          -4.6128   -1.1421   -0.8374 C.3     1  UNL1        0.1177
     18 S          -5.8366    0.1339   -0.9916 S.O2    1  UNL1       -0.0152
     19 O          -6.1196    0.4580   -2.4389 O.2     1  UNL1       -0.1736
     20 O          -7.1518   -0.3539   -0.3989 O.2     1  UNL1       -0.1736
     21 C          -5.3505    1.6086   -0.1787 C.3     1  UNL1        0.1676
     22 C          -3.9578    1.6141    0.3017 C.2     1  UNL1        0.3010
     23 N          -3.4057    2.9157    0.6184 N.pl3   1  UNL1       -0.2493
     24 N          -3.3134    0.5572    0.4242 N.2     1  UNL1       -0.0733
     25 C          -1.1286   -0.8041   -0.0705 C.ar    1  UNL1       -0.0301
     26 N           3.0186   -2.2507   -0.2254 N.ar    1  UNL1       -0.2380
     27 C           4.3118   -2.6303   -0.2002 C.ar    1  UNL1        0.0304
     28 C           5.3192   -1.6889   -0.2213 C.ar    1  UNL1       -0.0342
     29 C           4.9625   -0.3507   -0.2687 C.ar    1  UNL1        0.0086
     30 C           5.9622    0.6044   -0.2904 C.ar    1  UNL1       -0.0091
     31 H           6.9341    5.0112   -0.4199 H       1  UNL1        0.0660
     32 H           5.4471    4.3814   -1.2808 H       1  UNL1        0.0660
     33 H           5.4663    4.4101    0.5015 H       1  UNL1        0.0660
     34 H           3.9741    3.2870   -0.3978 H       1  UNL1        0.0867
     35 H           1.1086    0.4980   -0.2910 H       1  UNL1        0.1536
     36 H           1.0692   -3.2402   -0.7733 H       1  UNL1        0.0637
     37 H          -1.0255   -4.5244   -0.7633 H       1  UNL1        0.0647
     38 H          -4.1062   -2.4714    1.5388 H       1  UNL1        0.0279
     39 H          -4.9416   -0.8667    1.9314 H       1  UNL1        0.0279
     40 H          -3.2213   -1.1187    2.2703 H       1  UNL1        0.0279
     41 H          -5.1180   -2.0836   -0.5193 H       1  UNL1        0.0550
     42 H          -4.1981   -1.3250   -1.8438 H       1  UNL1        0.0550
     43 H          -5.4709    2.5128   -0.8288 H       1  UNL1        0.0626
     44 H          -6.0187    1.8094    0.7008 H       1  UNL1        0.0626
     45 H          -3.5186    3.3673    1.5335 H       1  UNL1        0.2881
     46 H          -2.8742    3.4009   -0.1246 H       1  UNL1        0.2881
     47 H          -1.1484    0.2678    0.1289 H       1  UNL1        0.0641
     48 H           4.5902   -3.6840   -0.1632 H       1  UNL1        0.0830
     49 H           6.3638   -1.9695   -0.2015 H       1  UNL1        0.0639
     50 H           7.0042    0.3244   -0.2710 H       1  UNL1        0.0661
@<TRIPOS>BOND
     1     1     2    1
     2     2     3    1
     3     3     4   ar
     4     4     5   ar
     5     5     6   ar
     6     6     7   ar
     7     7     8    1
     8     8     9    1
     9     9    10   ar
    10    10    11   ar
    11    11    12   ar
    12    12    13    1
    13    12    14   ar
    14    14    15    1
    15    15    16    1
    16    15    17    1
    17    17    18    1
    18    18    19    2
    19    18    20    2
    20    18    21    1
    21    21    22    1
    22    22    23    1
    23    22    24    2
    24    14    25   ar
    25     7    26   ar
    26    26    27   ar
    27    27    28   ar
    28    28    29   ar
    29    29    30   ar
    30    30     3   ar
    31    29     6   ar
    32    25     9   ar
    33    24    15    1
    34     1    31    1
    35     1    32    1
    36     1    33    1
    37     4    34    1
    38     8    35    1
    39    10    36    1
    40    11    37    1
    41    16    38    1
    42    16    39    1
    43    16    40    1
    44    17    41    1
    45    17    42    1
    46    21    43    1
    47    21    44    1
    48    23    45    1
    49    23    46    1
    50    25    47    1
    51    27    48    1
    52    28    49    1
    53    30    50    1
