
     RDKit          3D

 43 43  0  0  0  0  0  0  0  0999 V2000
    5.6824   -1.0545    0.8753 C   0  0  0  0  0  0  0  0  0  0  0  0
    5.7031    0.4226    0.6386 C   0  0  0  0  0  0  0  0  0  0  0  0
    5.0765    0.9211   -0.6010 C   0  0  0  0  0  0  0  0  0  0  0  0
    3.6269    0.6994   -0.8106 C   0  0  0  0  0  0  0  0  0  0  0  0
    3.1310   -0.6905   -0.8561 C   0  0  0  0  0  0  0  0  0  0  0  0
    1.6461   -0.7814   -1.1259 C   0  0  0  0  0  0  0  0  0  0  0  0
    0.8836   -0.0797   -0.0387 C   0  0  0  0  0  0  0  0  0  0  0  0
   -0.6193   -0.1809   -0.2754 C   0  0  0  0  0  0  0  0  0  0  0  0
   -1.3125    0.5565    0.8725 C   0  0  0  0  0  0  0  0  0  0  0  0
   -2.7725    0.4579    0.6419 C   0  0  0  0  0  0  0  0  0  0  0  0
   -3.4471   -0.6128    1.1812 C   0  0  0  0  0  0  0  0  0  0  0  0
   -4.8056   -0.7589    1.0008 C   0  0  0  0  0  0  0  0  0  0  0  0
   -5.4694    0.1918    0.2688 C   0  0  0  0  0  0  0  0  0  0  0  0
   -7.0039    0.0601    0.0441 B   0  0  0  0  0  0  0  0  0  0  0  0
   -7.7806   -0.6611    1.0449 O   0  0  0  0  0  0  0  0  0  0  0  0
   -7.4848    0.0566   -1.3336 O   0  0  0  0  0  0  0  0  0  0  0  0
   -4.8148    1.2907   -0.2923 C   0  0  0  0  0  0  0  0  0  0  0  0
   -3.4385    1.4112   -0.0922 C   0  0  0  0  0  0  0  0  0  0  0  0
    4.9764   -1.2649    1.7281 H   0  0  0  0  0  0  0  0  0  0  0  0
    5.5122   -1.6778   -0.0104 H   0  0  0  0  0  0  0  0  0  0  0  0
    6.6910   -1.4115    1.2823 H   0  0  0  0  0  0  0  0  0  0  0  0
    5.2991    0.9769    1.5270 H   0  0  0  0  0  0  0  0  0  0  0  0
    6.7989    0.7199    0.6361 H   0  0  0  0  0  0  0  0  0  0  0  0
    5.2225    2.0495   -0.6113 H   0  0  0  0  0  0  0  0  0  0  0  0
    5.6514    0.6016   -1.5101 H   0  0  0  0  0  0  0  0  0  0  0  0
    3.3706    1.2068   -1.7927 H   0  0  0  0  0  0  0  0  0  0  0  0
    3.0396    1.3008   -0.0675 H   0  0  0  0  0  0  0  0  0  0  0  0
    3.2363   -1.1482    0.1772 H   0  0  0  0  0  0  0  0  0  0  0  0
    3.7058   -1.3609   -1.5281 H   0  0  0  0  0  0  0  0  0  0  0  0
    1.3683   -0.3036   -2.0882 H   0  0  0  0  0  0  0  0  0  0  0  0
    1.3256   -1.8377   -1.2116 H   0  0  0  0  0  0  0  0  0  0  0  0
    1.1017    1.0282   -0.0851 H   0  0  0  0  0  0  0  0  0  0  0  0
    1.1571   -0.4406    0.9676 H   0  0  0  0  0  0  0  0  0  0  0  0
   -0.8613    0.3544   -1.2154 H   0  0  0  0  0  0  0  0  0  0  0  0
   -0.9663   -1.2195   -0.3332 H   0  0  0  0  0  0  0  0  0  0  0  0
   -0.9586    1.5977    0.9156 H   0  0  0  0  0  0  0  0  0  0  0  0
   -1.0682    0.0928    1.8439 H   0  0  0  0  0  0  0  0  0  0  0  0
   -2.8814   -1.3547    1.7620 H   0  0  0  0  0  0  0  0  0  0  0  0
   -5.3072   -1.6078    1.4351 H   0  0  0  0  0  0  0  0  0  0  0  0
   -7.2224   -0.9696    1.8024 H   0  0  0  0  0  0  0  0  0  0  0  0
   -7.7719   -0.8520   -1.6216 H   0  0  0  0  0  0  0  0  0  0  0  0
   -5.3430    2.0316   -0.8650 H   0  0  0  0  0  0  0  0  0  0  0  0
   -2.8767    2.2405   -0.5021 H   0  0  0  0  0  0  0  0  0  0  0  0
  1  2  1  0
  2  3  1  0
  3  4  1  0
  4  5  1  0
  5  6  1  0
  6  7  1  0
  7  8  1  0
  8  9  1  0
  9 10  1  0
 10 11  2  0
 11 12  1  0
 12 13  2  0
 13 14  1  0
 14 15  1  0
 14 16  1  0
 13 17  1  0
 17 18  2  0
 18 10  1  0
  1 19  1  0
  1 20  1  0
  1 21  1  0
  2 22  1  0
  2 23  1  0
  3 24  1  0
  3 25  1  0
  4 26  1  0
  4 27  1  0
  5 28  1  0
  5 29  1  0
  6 30  1  0
  6 31  1  0
  7 32  1  0
  7 33  1  0
  8 34  1  0
  8 35  1  0
  9 36  1  0
  9 37  1  0
 11 38  1  0
 12 39  1  0
 15 40  1  0
 16 41  1  0
 17 42  1  0
 18 43  1  0
M  END
$$$$
