@<TRIPOS>MOLECULE
*****
 43 43 0 0 0
SMALL
GASTEIGER

@<TRIPOS>ATOM
      1 C           5.6824   -1.0545    0.8753 C.3     1  UNL1        0.0000
      2 C           5.7031    0.4226    0.6386 C.3     1  UNL1        0.0000
      3 C           5.0765    0.9211   -0.6010 C.3     1  UNL1        0.0000
      4 C           3.6269    0.6994   -0.8106 C.3     1  UNL1        0.0000
      5 C           3.1310   -0.6905   -0.8561 C.3     1  UNL1        0.0000
      6 C           1.6461   -0.7814   -1.1259 C.3     1  UNL1        0.0000
      7 C           0.8836   -0.0797   -0.0387 C.3     1  UNL1        0.0000
      8 C          -0.6193   -0.1809   -0.2754 C.3     1  UNL1        0.0000
      9 C          -1.3125    0.5565    0.8725 C.3     1  UNL1        0.0000
     10 C          -2.7725    0.4579    0.6419 C.ar    1  UNL1        0.0000
     11 C          -3.4471   -0.6128    1.1812 C.ar    1  UNL1        0.0000
     12 C          -4.8056   -0.7589    1.0008 C.ar    1  UNL1        0.0000
     13 C          -5.4694    0.1918    0.2688 C.ar    1  UNL1        0.0000
     14 B          -7.0039    0.0601    0.0441 B       1  UNL1        0.0000
     15 O          -7.7806   -0.6611    1.0449 O.3     1  UNL1        0.0000
     16 O          -7.4848    0.0566   -1.3336 O.3     1  UNL1        0.0000
     17 C          -4.8148    1.2907   -0.2923 C.ar    1  UNL1        0.0000
     18 C          -3.4385    1.4112   -0.0922 C.ar    1  UNL1        0.0000
     19 H           4.9764   -1.2649    1.7281 H       1  UNL1        0.0000
     20 H           5.5122   -1.6778   -0.0104 H       1  UNL1        0.0000
     21 H           6.6910   -1.4115    1.2823 H       1  UNL1        0.0000
     22 H           5.2991    0.9769    1.5270 H       1  UNL1        0.0000
     23 H           6.7989    0.7199    0.6361 H       1  UNL1        0.0000
     24 H           5.2225    2.0495   -0.6113 H       1  UNL1        0.0000
     25 H           5.6514    0.6016   -1.5101 H       1  UNL1        0.0000
     26 H           3.3706    1.2068   -1.7927 H       1  UNL1        0.0000
     27 H           3.0396    1.3008   -0.0675 H       1  UNL1        0.0000
     28 H           3.2363   -1.1482    0.1772 H       1  UNL1        0.0000
     29 H           3.7058   -1.3609   -1.5281 H       1  UNL1        0.0000
     30 H           1.3683   -0.3036   -2.0882 H       1  UNL1        0.0000
     31 H           1.3256   -1.8377   -1.2116 H       1  UNL1        0.0000
     32 H           1.1017    1.0282   -0.0851 H       1  UNL1        0.0000
     33 H           1.1571   -0.4406    0.9676 H       1  UNL1        0.0000
     34 H          -0.8613    0.3544   -1.2154 H       1  UNL1        0.0000
     35 H          -0.9663   -1.2195   -0.3332 H       1  UNL1        0.0000
     36 H          -0.9586    1.5977    0.9156 H       1  UNL1        0.0000
     37 H          -1.0682    0.0928    1.8439 H       1  UNL1        0.0000
     38 H          -2.8814   -1.3547    1.7620 H       1  UNL1        0.0000
     39 H          -5.3072   -1.6078    1.4351 H       1  UNL1        0.0000
     40 H          -7.2224   -0.9696    1.8024 H       1  UNL1        0.0000
     41 H          -7.7719   -0.8520   -1.6216 H       1  UNL1        0.0000
     42 H          -5.3430    2.0316   -0.8650 H       1  UNL1        0.0000
     43 H          -2.8767    2.2405   -0.5021 H       1  UNL1        0.0000
@<TRIPOS>BOND
     1     1     2    1
     2     2     3    1
     3     3     4    1
     4     4     5    1
     5     5     6    1
     6     6     7    1
     7     7     8    1
     8     8     9    1
     9     9    10    1
    10    10    11   ar
    11    11    12   ar
    12    12    13   ar
    13    13    14    1
    14    14    15    1
    15    14    16    1
    16    13    17   ar
    17    17    18   ar
    18    18    10   ar
    19     1    19    1
    20     1    20    1
    21     1    21    1
    22     2    22    1
    23     2    23    1
    24     3    24    1
    25     3    25    1
    26     4    26    1
    27     4    27    1
    28     5    28    1
    29     5    29    1
    30     6    30    1
    31     6    31    1
    32     7    32    1
    33     7    33    1
    34     8    34    1
    35     8    35    1
    36     9    36    1
    37     9    37    1
    38    11    38    1
    39    12    39    1
    40    15    40    1
    41    16    41    1
    42    17    42    1
    43    18    43    1
