
     RDKit          3D

 33 35  0  0  0  0  0  0  0  0999 V2000
    4.6930    1.1177    2.7339 O   0  0  0  0  0  0  0  0  0  0  0  0
    3.9259    0.5883    1.7113 C   0  0  0  0  0  0  0  0  0  0  0  0
    4.6098   -0.0857    0.7194 C   0  0  0  0  0  0  0  0  0  0  0  0
    3.9532   -0.6606   -0.3582 C   0  0  0  0  0  0  0  0  0  0  0  0
    4.5946   -1.3373   -1.3625 O   0  0  0  0  0  0  0  0  0  0  0  0
    2.5841   -0.5278   -0.3933 C   0  0  0  0  0  0  0  0  0  0  0  0
    1.8628    0.1264    0.5587 C   0  0  0  0  0  0  0  0  0  0  0  0
    0.5711    0.2697    0.5555 O   0  0  0  0  0  0  0  0  0  0  0  0
   -0.2142   -0.2116   -0.3907 C   0  0  0  0  0  0  0  0  0  0  0  0
    0.4566   -0.8716   -1.3618 C   0  0  0  0  0  0  0  0  0  0  0  0
   -0.2654   -1.4121   -2.3944 O   0  0  0  0  0  0  0  0  0  0  0  0
    1.8172   -1.0533   -1.4095 C   0  0  0  0  0  0  0  0  0  0  0  0
    2.3582   -1.6844   -2.3568 O   0  0  0  0  0  0  0  0  0  0  0  0
   -1.6347    0.0319   -0.2515 C   0  0  0  0  0  0  0  0  0  0  0  0
   -2.0844    0.7399    0.8409 C   0  0  0  0  0  0  0  0  0  0  0  0
   -3.4022    1.0306    1.0777 C   0  0  0  0  0  0  0  0  0  0  0  0
   -3.8058    1.7479    2.1942 O   0  0  0  0  0  0  0  0  0  0  0  0
   -4.3687    0.6172    0.2103 C   0  0  0  0  0  0  0  0  0  0  0  0
   -5.7198    0.8787    0.3922 O   0  0  0  0  0  0  0  0  0  0  0  0
   -3.9899   -0.0948   -0.9021 C   0  0  0  0  0  0  0  0  0  0  0  0
   -4.9327   -0.5281   -1.7982 O   0  0  0  0  0  0  0  0  0  0  0  0
   -2.6523   -0.3547   -1.0840 C   0  0  0  0  0  0  0  0  0  0  0  0
    2.5548    0.6953    1.6329 C   0  0  0  0  0  0  0  0  0  0  0  0
    5.2028    1.9701    2.5362 H   0  0  0  0  0  0  0  0  0  0  0  0
    5.6904   -0.1839    0.7581 H   0  0  0  0  0  0  0  0  0  0  0  0
    4.7461   -2.3463   -1.3569 H   0  0  0  0  0  0  0  0  0  0  0  0
   -0.0319   -2.3431   -2.7321 H   0  0  0  0  0  0  0  0  0  0  0  0
   -1.3935    1.1225    1.6058 H   0  0  0  0  0  0  0  0  0  0  0  0
   -3.3858    2.6844    2.3031 H   0  0  0  0  0  0  0  0  0  0  0  0
   -6.1907    1.2961   -0.4095 H   0  0  0  0  0  0  0  0  0  0  0  0
   -5.1798   -1.5246   -1.7346 H   0  0  0  0  0  0  0  0  0  0  0  0
   -2.4003   -0.9146   -1.9672 H   0  0  0  0  0  0  0  0  0  0  0  0
    2.0316    1.2181    2.4037 H   0  0  0  0  0  0  0  0  0  0  0  0
  1  2  1  0
  2  3  2  0
  3  4  1  0
  4  5  1  0
  4  6  2  0
  6  7  1  0
  7  8  1  0
  8  9  1  0
  9 10  2  0
 10 11  1  0
 10 12  1  0
 12 13  2  0
  9 14  1  0
 14 15  2  0
 15 16  1  0
 16 17  1  0
 16 18  2  0
 18 19  1  0
 18 20  1  0
 20 21  1  0
 20 22  2  0
  7 23  2  0
 23  2  1  0
 12  6  1  0
 22 14  1  0
  1 24  1  0
  3 25  1  0
  5 26  1  0
 11 27  1  0
 15 28  1  0
 17 29  1  0
 19 30  1  0
 21 31  1  0
 22 32  1  0
 23 33  1  0
M  END
$$$$
