@<TRIPOS>MOLECULE
*****
 54 58 0 0 0
SMALL
GASTEIGER

@<TRIPOS>ATOM
      1 C          -3.8565    1.7565    0.5505 C.3     1  UNL1       -0.0377
      2 C          -4.1595    0.5178    1.2780 C.ar    1  UNL1       -0.0249
      3 C          -5.0588    0.5332    2.3310 C.ar    1  UNL1       -0.0568
      4 C          -5.3538   -0.6220    3.0241 C.ar    1  UNL1       -0.0614
      5 C          -4.7204   -1.7805    2.6264 C.ar    1  UNL1       -0.0597
      6 C          -3.8155   -1.8033    1.5691 C.ar    1  UNL1       -0.0359
      7 C          -3.5284   -0.6432    0.8837 C.ar    1  UNL1        0.0721
      8 N          -2.6039   -0.6781   -0.1939 N.ar    1  UNL1       -0.1960
      9 N          -1.3248   -0.4386   -0.0419 N.ar    1  UNL1       -0.1631
     10 C          -0.4095   -0.4586   -1.0239 C.ar    1  UNL1        0.0974
     11 C           0.9791   -0.1734   -0.7473 C.ar    1  UNL1        0.0690
     12 C           2.0775   -0.1420   -1.5590 C.ar    1  UNL1        0.1038
     13 C           2.1724   -0.4017   -2.9865 C.ar    1  UNL1        0.0030
     14 C           2.3928   -1.6882   -3.4708 C.ar    1  UNL1       -0.0498
     15 C           2.5042   -1.8973   -4.8247 C.ar    1  UNL1       -0.0258
     16 C           2.4090   -0.8886   -5.7539 C.ar    1  UNL1        0.1234
     17 F           2.5281   -1.1589   -7.0826 F       1  UNL1       -0.2055
     18 C           2.1903    0.3889   -5.2763 C.ar    1  UNL1       -0.0258
     19 C           2.0765    0.6115   -3.9168 C.ar    1  UNL1       -0.0498
     20 N           3.1656    0.1798   -0.7867 N.ar    1  UNL1       -0.1689
     21 N           2.8047    0.3517    0.4710 N.ar    1  UNL1       -0.2492
     22 C           1.5069    0.1488    0.5293 C.ar    1  UNL1        0.1269
     23 N           0.8264    0.2710    1.7775 N.pl3   1  UNL1       -0.3283
     24 C           1.6340    0.3962    2.9876 C.3     1  UNL1        0.0170
     25 C           2.7842    1.3647    2.6705 C.3     1  UNL1        0.0173
     26 C           3.5885    1.5706    3.9349 C.3     1  UNL1        0.0501
     27 O           4.6480    2.4381    3.7226 O.3     1  UNL1       -0.3946
     28 C           3.6166    0.6873    1.6147 C.3     1  UNL1        0.0499
     29 C          -0.8518   -0.7513   -2.2724 C.ar    1  UNL1       -0.0287
     30 C          -2.2020   -1.0197   -2.5204 C.ar    1  UNL1        0.0068
     31 C          -3.0459   -0.9698   -1.4362 C.ar    1  UNL1        0.2719
     32 O          -4.2682   -1.2062   -1.6243 O.2     1  UNL1       -0.2658
     33 H          -4.7304    2.4637    0.6418 H       1  UNL1        0.0278
     34 H          -3.0207    2.2710    1.0721 H       1  UNL1        0.0278
     35 H          -3.5745    1.6119   -0.5005 H       1  UNL1        0.0278
     36 H          -5.5512    1.4452    2.6368 H       1  UNL1        0.0621
     37 H          -6.0657   -0.6068    3.8565 H       1  UNL1        0.0618
     38 H          -4.9598   -2.6886    3.1801 H       1  UNL1        0.0618
     39 H          -3.3292   -2.7242    1.2732 H       1  UNL1        0.0639
     40 H           2.4804   -2.5369   -2.8080 H       1  UNL1        0.0625
     41 H           2.6766   -2.9023   -5.2094 H       1  UNL1        0.0646
     42 H           2.1166    1.1776   -6.0135 H       1  UNL1        0.0646
     43 H           1.9060    1.6342   -3.6088 H       1  UNL1        0.0625
     44 H          -0.2095    0.2737    1.8100 H       1  UNL1        0.1475
     45 H           2.0744   -0.5909    3.1905 H       1  UNL1        0.0466
     46 H           1.0404    0.7475    3.8386 H       1  UNL1        0.0466
     47 H           2.3631    2.2923    2.2681 H       1  UNL1        0.0356
     48 H           2.9111    1.9410    4.7359 H       1  UNL1        0.0561
     49 H           3.9571    0.5802    4.2766 H       1  UNL1        0.0561
     50 H           5.4420    2.0523    4.1542 H       1  UNL1        0.2094
     51 H           4.0369   -0.2346    2.1039 H       1  UNL1        0.0513
     52 H           4.4795    1.3442    1.3053 H       1  UNL1        0.0513
     53 H          -0.2151   -0.7937   -3.1337 H       1  UNL1        0.0641
     54 H          -2.5340   -1.2512   -3.5232 H       1  UNL1        0.0673
@<TRIPOS>BOND
     1     1     2    1
     2     2     3   ar
     3     3     4   ar
     4     4     5   ar
     5     5     6   ar
     6     6     7   ar
     7     7     8    1
     8     8     9   ar
     9     9    10   ar
    10    10    11    1
    11    11    12   ar
    12    12    13    1
    13    13    14   ar
    14    14    15   ar
    15    15    16   ar
    16    16    17    1
    17    16    18   ar
    18    18    19   ar
    19    12    20   ar
    20    20    21   ar
    21    21    22   ar
    22    22    23    1
    23    23    24    1
    24    24    25    1
    25    25    26    1
    26    26    27    1
    27    25    28    1
    28    10    29   ar
    29    29    30   ar
    30    30    31   ar
    31    31    32    2
    32     7     2   ar
    33    31     8   ar
    34    22    11   ar
    35    19    13   ar
    36    28    21    1
    37     1    33    1
    38     1    34    1
    39     1    35    1
    40     3    36    1
    41     4    37    1
    42     5    38    1
    43     6    39    1
    44    14    40    1
    45    15    41    1
    46    18    42    1
    47    19    43    1
    48    23    44    1
    49    24    45    1
    50    24    46    1
    51    25    47    1
    52    26    48    1
    53    26    49    1
    54    27    50    1
    55    28    51    1
    56    28    52    1
    57    29    53    1
    58    30    54    1
