
     RDKit          3D

 54 58  0  0  0  0  0  0  0  0999 V2000
   -3.8565    1.7565    0.5505 C   0  0  0  0  0  0  0  0  0  0  0  0
   -4.1595    0.5178    1.2780 C   0  0  0  0  0  0  0  0  0  0  0  0
   -5.0588    0.5332    2.3310 C   0  0  0  0  0  0  0  0  0  0  0  0
   -5.3538   -0.6220    3.0241 C   0  0  0  0  0  0  0  0  0  0  0  0
   -4.7204   -1.7805    2.6264 C   0  0  0  0  0  0  0  0  0  0  0  0
   -3.8155   -1.8033    1.5691 C   0  0  0  0  0  0  0  0  0  0  0  0
   -3.5284   -0.6432    0.8837 C   0  0  0  0  0  0  0  0  0  0  0  0
   -2.6039   -0.6781   -0.1939 N   0  0  0  0  0  0  0  0  0  0  0  0
   -1.3248   -0.4386   -0.0419 N   0  0  0  0  0  0  0  0  0  0  0  0
   -0.4095   -0.4586   -1.0239 C   0  0  0  0  0  0  0  0  0  0  0  0
    0.9791   -0.1734   -0.7473 C   0  0  0  0  0  0  0  0  0  0  0  0
    2.0775   -0.1420   -1.5590 C   0  0  0  0  0  0  0  0  0  0  0  0
    2.1724   -0.4017   -2.9865 C   0  0  0  0  0  0  0  0  0  0  0  0
    2.3928   -1.6882   -3.4708 C   0  0  0  0  0  0  0  0  0  0  0  0
    2.5042   -1.8973   -4.8247 C   0  0  0  0  0  0  0  0  0  0  0  0
    2.4090   -0.8886   -5.7539 C   0  0  0  0  0  0  0  0  0  0  0  0
    2.5281   -1.1589   -7.0826 F   0  0  0  0  0  0  0  0  0  0  0  0
    2.1903    0.3889   -5.2763 C   0  0  0  0  0  0  0  0  0  0  0  0
    2.0765    0.6115   -3.9168 C   0  0  0  0  0  0  0  0  0  0  0  0
    3.1656    0.1798   -0.7867 N   0  0  0  0  0  0  0  0  0  0  0  0
    2.8047    0.3517    0.4710 N   0  0  0  0  0  0  0  0  0  0  0  0
    1.5069    0.1488    0.5293 C   0  0  0  0  0  0  0  0  0  0  0  0
    0.8264    0.2710    1.7775 N   0  0  0  0  0  0  0  0  0  0  0  0
    1.6340    0.3962    2.9876 C   0  0  0  0  0  0  0  0  0  0  0  0
    2.7842    1.3647    2.6705 C   0  0  1  0  0  0  0  0  0  0  0  0
    3.5885    1.5706    3.9349 C   0  0  0  0  0  0  0  0  0  0  0  0
    4.6480    2.4381    3.7226 O   0  0  0  0  0  0  0  0  0  0  0  0
    3.6166    0.6873    1.6147 C   0  0  0  0  0  0  0  0  0  0  0  0
   -0.8518   -0.7513   -2.2724 C   0  0  0  0  0  0  0  0  0  0  0  0
   -2.2020   -1.0197   -2.5204 C   0  0  0  0  0  0  0  0  0  0  0  0
   -3.0459   -0.9698   -1.4362 C   0  0  0  0  0  0  0  0  0  0  0  0
   -4.2682   -1.2062   -1.6243 O   0  0  0  0  0  0  0  0  0  0  0  0
   -4.7304    2.4637    0.6418 H   0  0  0  0  0  0  0  0  0  0  0  0
   -3.0207    2.2710    1.0721 H   0  0  0  0  0  0  0  0  0  0  0  0
   -3.5745    1.6119   -0.5005 H   0  0  0  0  0  0  0  0  0  0  0  0
   -5.5512    1.4452    2.6368 H   0  0  0  0  0  0  0  0  0  0  0  0
   -6.0657   -0.6068    3.8565 H   0  0  0  0  0  0  0  0  0  0  0  0
   -4.9598   -2.6886    3.1801 H   0  0  0  0  0  0  0  0  0  0  0  0
   -3.3292   -2.7242    1.2732 H   0  0  0  0  0  0  0  0  0  0  0  0
    2.4804   -2.5369   -2.8080 H   0  0  0  0  0  0  0  0  0  0  0  0
    2.6766   -2.9023   -5.2094 H   0  0  0  0  0  0  0  0  0  0  0  0
    2.1166    1.1776   -6.0135 H   0  0  0  0  0  0  0  0  0  0  0  0
    1.9060    1.6342   -3.6088 H   0  0  0  0  0  0  0  0  0  0  0  0
   -0.2095    0.2737    1.8100 H   0  0  0  0  0  0  0  0  0  0  0  0
    2.0744   -0.5909    3.1905 H   0  0  0  0  0  0  0  0  0  0  0  0
    1.0404    0.7475    3.8386 H   0  0  0  0  0  0  0  0  0  0  0  0
    2.3631    2.2923    2.2681 H   0  0  0  0  0  0  0  0  0  0  0  0
    2.9111    1.9410    4.7359 H   0  0  0  0  0  0  0  0  0  0  0  0
    3.9571    0.5802    4.2766 H   0  0  0  0  0  0  0  0  0  0  0  0
    5.4420    2.0523    4.1542 H   0  0  0  0  0  0  0  0  0  0  0  0
    4.0369   -0.2346    2.1039 H   0  0  0  0  0  0  0  0  0  0  0  0
    4.4795    1.3442    1.3053 H   0  0  0  0  0  0  0  0  0  0  0  0
   -0.2151   -0.7937   -3.1337 H   0  0  0  0  0  0  0  0  0  0  0  0
   -2.5340   -1.2512   -3.5232 H   0  0  0  0  0  0  0  0  0  0  0  0
  1  2  1  0
  2  3  2  0
  3  4  1  0
  4  5  2  0
  5  6  1  0
  6  7  2  0
  7  8  1  0
  8  9  1  0
  9 10  2  0
 10 11  1  0
 11 12  1  0
 12 13  1  0
 13 14  2  0
 14 15  1  0
 15 16  2  0
 16 17  1  0
 16 18  1  0
 18 19  2  0
 12 20  2  0
 20 21  1  0
 21 22  1  0
 22 23  1  0
 23 24  1  0
 24 25  1  0
 25 26  1  0
 26 27  1  0
 25 28  1  0
 10 29  1  0
 29 30  2  0
 30 31  1  0
 31 32  2  0
  7  2  1  0
 31  8  1  0
 22 11  2  0
 19 13  1  0
 28 21  1  0
  1 33  1  0
  1 34  1  0
  1 35  1  0
  3 36  1  0
  4 37  1  0
  5 38  1  0
  6 39  1  0
 14 40  1  0
 15 41  1  0
 18 42  1  0
 19 43  1  0
 23 44  1  0
 24 45  1  0
 24 46  1  0
 25 47  1  6
 26 48  1  0
 26 49  1  0
 27 50  1  0
 28 51  1  0
 28 52  1  0
 29 53  1  0
 30 54  1  0
M  END
$$$$
