
     RDKit          3D

 40 42  0  0  0  0  0  0  0  0999 V2000
   -6.0492    1.5125    0.1743 O   0  0  0  0  0  0  0  0  0  0  0  0
   -5.8899    0.2950   -0.0870 C   0  0  0  0  0  0  0  0  0  0  0  0
   -6.9343   -0.3949   -0.6503 O   0  0  0  0  0  1  0  0  0  0  0  0
   -4.6449   -0.4121    0.1832 C   0  0  0  0  0  0  0  0  0  0  0  0
   -4.4977   -1.7444   -0.1046 C   0  0  0  0  0  0  0  0  0  0  0  0
   -3.2854   -2.3450    0.1899 C   0  0  0  0  0  0  0  0  0  0  0  0
   -2.2493   -1.5989    0.7651 C   0  0  0  0  0  0  0  0  0  0  0  0
   -2.4278   -0.2692    1.0400 C   0  0  0  0  0  0  0  0  0  0  0  0
   -1.4264    0.6329    1.6415 C   0  0  0  0  0  0  0  0  0  0  0  0
   -0.7417    1.3856    0.5742 C   0  0  0  0  0  0  0  0  0  0  0  0
   -1.1393    2.6798    0.2953 C   0  0  0  0  0  0  0  0  0  0  0  0
   -0.5424    3.4190   -0.6995 C   0  0  0  0  0  0  0  0  0  0  0  0
   -1.0514    5.0667   -1.0528 Cl  0  0  0  0  0  0  0  0  0  0  0  0
    0.4703    2.8157   -1.4087 C   0  0  0  0  0  0  0  0  0  0  0  0
    0.8957    1.5279   -1.1610 C   0  0  0  0  0  0  0  0  0  0  0  0
    0.2883    0.7827   -0.1512 C   0  0  0  0  0  0  0  0  0  0  0  0
    0.6122   -0.4737    0.1845 O   0  0  0  0  0  0  0  0  0  0  0  0
    1.5253   -1.3989   -0.2362 C   0  0  0  0  0  0  0  0  0  0  0  0
    2.9447   -1.0986   -0.1107 C   0  0  0  0  0  0  0  0  0  0  0  0
    3.7424   -0.7810   -1.1782 C   0  0  0  0  0  0  0  0  0  0  0  0
    5.1077   -0.5180   -1.0276 C   0  0  0  0  0  0  0  0  0  0  0  0
    5.6694   -0.5804    0.2360 C   0  0  0  0  0  0  0  0  0  0  0  0
    7.0038   -0.3251    0.3810 F   0  0  0  0  0  0  0  0  0  0  0  0
    4.8767   -0.8985    1.3131 C   0  0  0  0  0  0  0  0  0  0  0  0
    3.5137   -1.1585    1.1450 C   0  0  0  0  0  0  0  0  0  0  0  0
    2.5390   -1.5592    2.5339 Cl  0  0  0  0  0  0  0  0  0  0  0  0
   -3.6348    0.2512    0.7271 N   0  0  0  0  0  0  0  0  0  0  0  0
   -5.3280   -2.2649   -0.5453 H   0  0  0  0  0  0  0  0  0  0  0  0
   -3.1662   -3.3827   -0.0337 H   0  0  0  0  0  0  0  0  0  0  0  0
   -1.3314   -2.1021    0.9881 H   0  0  0  0  0  0  0  0  0  0  0  0
   -1.9631    1.2944    2.3510 H   0  0  0  0  0  0  0  0  0  0  0  0
   -0.6843    0.0850    2.2615 H   0  0  0  0  0  0  0  0  0  0  0  0
   -1.9435    3.1451    0.8654 H   0  0  0  0  0  0  0  0  0  0  0  0
    0.9768    3.3701   -2.2141 H   0  0  0  0  0  0  0  0  0  0  0  0
    1.6886    1.0654   -1.7303 H   0  0  0  0  0  0  0  0  0  0  0  0
    1.3796   -2.4059    0.2768 H   0  0  0  0  0  0  0  0  0  0  0  0
    1.3572   -1.6696   -1.3293 H   0  0  0  0  0  0  0  0  0  0  0  0
    3.2772   -0.7395   -2.1538 H   0  0  0  0  0  0  0  0  0  0  0  0
    5.7152   -0.2692   -1.8856 H   0  0  0  0  0  0  0  0  0  0  0  0
    5.3472   -0.9388    2.2874 H   0  0  0  0  0  0  0  0  0  0  0  0
  1  2  2  0
  2  3  1  0
  2  4  1  0
  4  5  2  0
  5  6  1  0
  6  7  2  0
  7  8  1  0
  8  9  1  0
  9 10  1  0
 10 11  2  0
 11 12  1  0
 12 13  1  0
 12 14  2  0
 14 15  1  0
 15 16  2  0
 16 17  1  0
 17 18  1  0
 18 19  1  0
 19 20  2  0
 20 21  1  0
 21 22  2  0
 22 23  1  0
 22 24  1  0
 24 25  2  0
 25 26  1  0
  8 27  2  0
 27  4  1  0
 16 10  1  0
 25 19  1  0
  5 28  1  0
  6 29  1  0
  7 30  1  0
  9 31  1  0
  9 32  1  0
 11 33  1  0
 14 34  1  0
 15 35  1  0
 18 36  1  0
 18 37  1  0
 20 38  1  0
 21 39  1  0
 24 40  1  0
M  CHG  1   3  -1
M  END
$$$$
