@<TRIPOS>MOLECULE
*****
 40 42 0 0 0
SMALL
GASTEIGER

@<TRIPOS>ATOM
      1 O          -6.0492    1.5125    0.1743 O.co2   1  UNL1       -0.5431
      2 C          -5.8899    0.2950   -0.0870 C.2     1  UNL1        0.0899
      3 OXT        -6.9343   -0.3949   -0.6503 O.co2   1  UNL1       -0.5431
      4 CA         -4.6449   -0.4121    0.1832 C.ar    1  UNL1        0.0864
      5 C          -4.4977   -1.7444   -0.1046 C.ar    1  UNL1       -0.0345
      6 C          -3.2854   -2.3450    0.1899 C.ar    1  UNL1       -0.0580
      7 C          -2.2493   -1.5989    0.7651 C.ar    1  UNL1       -0.0400
      8 C          -2.4278   -0.2692    1.0400 C.ar    1  UNL1        0.0464
      9 C          -1.4264    0.6329    1.6415 C.3     1  UNL1        0.0183
     10 C          -0.7417    1.3856    0.5742 C.ar    1  UNL1        0.0014
     11 C          -1.1393    2.6798    0.2953 C.ar    1  UNL1       -0.0364
     12 C          -0.5424    3.4190   -0.6995 C.ar    1  UNL1        0.0415
     13 CL         -1.0514    5.0667   -1.0528 Cl      1  UNL1       -0.0835
     14 C           0.4703    2.8157   -1.4087 C.ar    1  UNL1       -0.0399
     15 C           0.8957    1.5279   -1.1610 C.ar    1  UNL1       -0.0183
     16 C           0.2883    0.7827   -0.1512 C.ar    1  UNL1        0.1246
     17 O           0.6122   -0.4737    0.1845 O.3     1  UNL1       -0.4870
     18 C           1.5253   -1.3989   -0.2362 C.3     1  UNL1        0.1160
     19 C           2.9447   -1.0986   -0.1107 C.ar    1  UNL1        0.0081
     20 C           3.7424   -0.7810   -1.1782 C.ar    1  UNL1       -0.0513
     21 C           5.1077   -0.5180   -1.0276 C.ar    1  UNL1       -0.0260
     22 C           5.6694   -0.5804    0.2360 C.ar    1  UNL1        0.1248
     23 F           7.0038   -0.3251    0.3810 F       1  UNL1       -0.2054
     24 C           4.8767   -0.8985    1.3131 C.ar    1  UNL1       -0.0077
     25 C           3.5137   -1.1585    1.1450 C.ar    1  UNL1        0.0501
     26 CL          2.5390   -1.5592    2.5339 Cl      1  UNL1       -0.0831
     27 N          -3.6348    0.2512    0.7271 N.ar    1  UNL1       -0.2501
     28 H          -5.3280   -2.2649   -0.5453 H       1  UNL1        0.0639
     29 H          -3.1662   -3.3827   -0.0337 H       1  UNL1        0.0619
     30 H          -1.3314   -2.1021    0.9881 H       1  UNL1        0.0636
     31 H          -1.9631    1.2944    2.3510 H       1  UNL1        0.0378
     32 H          -0.6843    0.0850    2.2615 H       1  UNL1        0.0378
     33 H          -1.9435    3.1451    0.8654 H       1  UNL1        0.0636
     34 H           0.9768    3.3701   -2.2141 H       1  UNL1        0.0633
     35 H           1.6886    1.0654   -1.7303 H       1  UNL1        0.0655
     36 H           1.3796   -2.4059    0.2768 H       1  UNL1        0.0748
     37 H           1.3572   -1.6696   -1.3293 H       1  UNL1        0.0748
     38 H           3.2772   -0.7395   -2.1538 H       1  UNL1        0.0623
     39 H           5.7152   -0.2692   -1.8856 H       1  UNL1        0.0646
     40 H           5.3472   -0.9388    2.2874 H       1  UNL1        0.0661
@<TRIPOS>UNITY_ATOM_ATTR
3 1
charge -1
@<TRIPOS>BOND
     1     1     2   ar
     2     2     3   ar
     3     2     4    1
     4     4     5   ar
     5     5     6   ar
     6     6     7   ar
     7     7     8   ar
     8     8     9    1
     9     9    10    1
    10    10    11   ar
    11    11    12   ar
    12    12    13    1
    13    12    14   ar
    14    14    15   ar
    15    15    16   ar
    16    16    17    1
    17    17    18    1
    18    18    19    1
    19    19    20   ar
    20    20    21   ar
    21    21    22   ar
    22    22    23    1
    23    22    24   ar
    24    24    25   ar
    25    25    26    1
    26     8    27   ar
    27    27     4   ar
    28    16    10   ar
    29    25    19   ar
    30     5    28    1
    31     6    29    1
    32     7    30    1
    33     9    31    1
    34     9    32    1
    35    11    33    1
    36    14    34    1
    37    15    35    1
    38    18    36    1
    39    18    37    1
    40    20    38    1
    41    21    39    1
    42    24    40    1
