@<TRIPOS>MOLECULE
*****
 61 65 0 0 0
SMALL
GASTEIGER

@<TRIPOS>ATOM
      1 C          -6.4885   -2.9003    0.7479 C.3     1  UNL1        0.0309
      2 N          -5.8056   -1.8402    0.0399 N.ar    1  UNL1       -0.2650
      3 N          -4.6518   -1.8873   -0.5963 N.ar    1  UNL1       -0.1554
      4 C          -4.2845   -0.7213   -1.1049 C.ar    1  UNL1        0.1488
      5 N          -3.1910   -0.2538   -1.7809 N.pl3   1  UNL1       -0.3186
      6 C          -2.1083    0.2076   -2.4500 C.3     1  UNL1        0.0870
      7 C          -0.7644   -0.1551   -1.8301 C.2     1  UNL1        0.2305
      8 O           0.2902    0.2018   -2.3998 O.2     1  UNL1       -0.2741
      9 N          -0.7447   -0.8911   -0.6232 N.am    1  UNL1       -0.3087
     10 C           0.3878   -1.3692    0.0963 C.3     1  UNL1        0.0486
     11 C           1.0425   -0.4136    1.0474 C.3     1  UNL1        0.0189
     12 N           1.9864   -0.1403   -0.0599 N.3     1  UNL1       -0.2958
     13 C           3.2073    0.3376    0.3626 C.3     1  UNL1        0.0106
     14 C           3.9938   -0.4242    1.3949 C.3     1  UNL1       -0.0368
     15 C           5.0308    0.5584    1.9173 C.3     1  UNL1       -0.0443
     16 C           5.9181    1.0824    0.8232 C.3     1  UNL1       -0.0080
     17 C           7.1612    0.2821    0.7713 C.ar    1  UNL1        0.0123
     18 C           7.6369   -0.7304    0.0513 C.ar    1  UNL1        0.0381
     19 N           8.8308   -1.1652    0.3908 N.ar    1  UNL1       -0.2554
     20 C           9.5549   -0.8351    1.2018 C.ar    1  UNL1        0.0649
     21 S           8.4761    0.5857    1.9407 S.2     1  UNL1       -0.0801
     22 C           5.3130    1.2204   -0.5079 C.3     1  UNL1       -0.0443
     23 C           4.1507    0.3781   -0.8601 C.3     1  UNL1       -0.0368
     24 C           1.7390   -1.3656   -0.6852 C.3     1  UNL1        0.0189
     25 C          -5.3550    0.1568   -0.7364 C.ar    1  UNL1        0.0419
     26 C          -5.5575    1.4791   -0.9774 C.ar    1  UNL1       -0.0376
     27 C          -6.6977    2.0927   -0.5158 C.ar    1  UNL1        0.0556
     28 C          -6.9008    3.5380   -0.7874 C.3     1  UNL1        0.4174
     29 F          -7.3954    4.0825    0.4003 F       1  UNL1       -0.1659
     30 F          -5.7729    4.1882   -1.1858 F       1  UNL1       -0.1659
     31 F          -7.9519    3.6583   -1.6983 F       1  UNL1       -0.1659
     32 C          -7.6395    1.3912    0.1880 C.ar    1  UNL1       -0.0481
     33 C          -7.4330    0.0368    0.4404 C.ar    1  UNL1       -0.0355
     34 C          -6.2684   -0.5735   -0.0361 C.ar    1  UNL1        0.0705
     35 H          -6.8822   -2.4712    1.7128 H       1  UNL1        0.0473
     36 H          -5.7063   -3.6325    1.0841 H       1  UNL1        0.0473
     37 H          -7.2787   -3.3758    0.1529 H       1  UNL1        0.0473
     38 H          -2.7250   -1.5268   -1.9339 H       1  UNL1        0.1480
     39 H          -2.0971    1.3395   -2.6140 H       1  UNL1        0.0557
     40 H          -2.0445   -0.1556   -3.5217 H       1  UNL1        0.0557
     41 H          -1.7323   -1.0835   -0.2305 H       1  UNL1        0.1491
     42 H           0.2174   -2.4135    0.4264 H       1  UNL1        0.0523
     43 H           0.4524    0.4555    1.3563 H       1  UNL1        0.0445
     44 H           1.4941   -0.9902    1.8794 H       1  UNL1        0.0445
     45 H           3.1657    1.4085    0.7093 H       1  UNL1        0.0462
     46 H           3.3964   -0.6867    2.2866 H       1  UNL1        0.0280
     47 H           4.5405   -1.2902    0.9733 H       1  UNL1        0.0280
     48 H           5.6590    0.1638    2.7232 H       1  UNL1        0.0272
     49 H           4.4478    1.4076    2.3180 H       1  UNL1        0.0272
     50 H           6.2234    2.1145    1.1866 H       1  UNL1        0.0354
     51 H           7.0584   -1.1760   -0.7834 H       1  UNL1        0.0838
     52 H          10.5222   -0.9445    1.7343 H       1  UNL1        0.0907
     53 H           5.0540    2.2821   -0.7187 H       1  UNL1        0.0272
     54 H           6.1283    1.0029   -1.2734 H       1  UNL1        0.0272
     55 H           4.4079   -0.6911   -1.0478 H       1  UNL1        0.0280
     56 H           3.5736    0.8475   -1.6735 H       1  UNL1        0.0280
     57 H           1.5322   -1.4598   -1.7524 H       1  UNL1        0.0445
     58 H           2.3696   -2.2395   -0.3830 H       1  UNL1        0.0445
     59 H          -4.7915    2.0157   -1.5306 H       1  UNL1        0.0631
     60 H          -8.5590    1.8589    0.5540 H       1  UNL1        0.0624
     61 H          -8.1349   -0.5715    0.9839 H       1  UNL1        0.0639
@<TRIPOS>BOND
     1     1     2    1
     2     2     3   ar
     3     3     4   ar
     4     4     5    1
     5     5     6    1
     6     6     7    1
     7     7     8    2
     8     7     9   am
     9     9    10    1
    10    10    11    1
    11    11    12    1
    12    12    13    1
    13    13    14    1
    14    14    15    1
    15    15    16    1
    16    16    17    1
    17    17    18   ar
    18    18    19   ar
    19    19    20   ar
    20    20    21   ar
    21    16    22    1
    22    22    23    1
    23    12    24    1
    24     4    25   ar
    25    25    26   ar
    26    26    27   ar
    27    27    28    1
    28    28    29    1
    29    28    30    1
    30    28    31    1
    31    27    32   ar
    32    32    33   ar
    33    33    34   ar
    34    34     2   ar
    35    24    10    1
    36    34    25   ar
    37    23    13    1
    38    21    17   ar
    39     1    35    1
    40     1    36    1
    41     1    37    1
    42     5    38    1
    43     6    39    1
    44     6    40    1
    45     9    41    1
    46    10    42    1
    47    11    43    1
    48    11    44    1
    49    13    45    1
    50    14    46    1
    51    14    47    1
    52    15    48    1
    53    15    49    1
    54    16    50    1
    55    18    51    1
    56    20    52    1
    57    22    53    1
    58    22    54    1
    59    23    55    1
    60    23    56    1
    61    24    57    1
    62    24    58    1
    63    26    59    1
    64    32    60    1
    65    33    61    1
