@<TRIPOS>MOLECULE
*****
 57 61 0 0 0
SMALL
GASTEIGER

@<TRIPOS>ATOM
      1 C          -2.0078    1.0099   -2.4025 C.3     1  UNL1       -0.0632
      2 C          -0.8103    0.1610   -2.0307 C.3     1  UNL1       -0.0303
      3 C          -0.7317   -0.0686   -0.5409 C.3     1  UNL1        0.0802
      4 N          -1.9232   -0.7384   -0.1159 N.pl3   1  UNL1       -0.3187
      5 C          -2.2287   -2.0410   -0.5622 C.ar    1  UNL1        0.1317
      6 N          -1.4524   -2.7608   -1.3895 N.ar    1  UNL1       -0.2202
      7 C          -1.7524   -4.0038   -1.7997 C.ar    1  UNL1        0.1204
      8 N          -2.8883   -4.6123   -1.3866 N.ar    1  UNL1       -0.2178
      9 C          -3.7194   -3.9525   -0.5542 C.ar    1  UNL1        0.1431
     10 N          -4.9058   -4.2782    0.0260 N.ar    1  UNL1       -0.3457
     11 C          -5.3148   -3.2412    0.7774 C.ar    1  UNL1        0.0042
     12 C          -4.3811   -2.2130    0.6912 C.ar    1  UNL1       -0.0318
     13 C          -3.3975   -2.6944   -0.1503 C.ar    1  UNL1        0.0583
     14 C          -0.6053    1.2885    0.0805 C.ar    1  UNL1        0.1378
     15 N          -1.6709    2.1122    0.1299 N.ar    1  UNL1       -0.2311
     16 C          -1.5825    3.3397    0.6842 C.ar    1  UNL1        0.0810
     17 C          -2.6913    4.1828    0.7295 C.ar    1  UNL1       -0.0353
     18 C          -2.5825    5.4350    1.3003 C.ar    1  UNL1       -0.0570
     19 C          -1.3662    5.8160    1.8133 C.ar    1  UNL1       -0.0256
     20 C          -0.2713    4.9797    1.7669 C.ar    1  UNL1        0.1378
     21 F           0.9269    5.3591    2.2740 F       1  UNL1       -0.2046
     22 C          -0.3632    3.7277    1.2010 C.ar    1  UNL1        0.1003
     23 C           0.7019    2.8531    1.1296 C.ar    1  UNL1        0.2691
     24 O           1.8332    3.2015    1.6042 O.2     1  UNL1       -0.2665
     25 N           0.5975    1.6322    0.5736 N.ar    1  UNL1       -0.2628
     26 C           1.6815    0.7149    0.4891 C.ar    1  UNL1        0.0514
     27 C           2.5642    0.8568   -0.5571 C.ar    1  UNL1       -0.0342
     28 C           3.6298   -0.0081   -0.6805 C.ar    1  UNL1       -0.0180
     29 C           3.8209   -1.0189    0.2385 C.ar    1  UNL1        0.1211
     30 O           4.9015   -1.9153    0.1344 O.3     1  UNL1       -0.4830
     31 C           5.7797   -1.7379   -0.9462 C.3     1  UNL1        0.1842
     32 C           6.8878   -2.7569   -0.9432 C.3     1  UNL1        0.4236
     33 F           7.7348   -2.5780   -1.9940 F       1  UNL1       -0.1671
     34 F           6.2846   -4.0085   -1.0433 F       1  UNL1       -0.1671
     35 F           7.5166   -2.6700    0.2900 F       1  UNL1       -0.1671
     36 C           2.9184   -1.1383    1.2798 C.ar    1  UNL1       -0.0180
     37 C           1.8478   -0.2846    1.4206 C.ar    1  UNL1       -0.0342
     38 H          -1.7598    2.0943   -2.4449 H       1  UNL1        0.0230
     39 H          -2.3110    0.7198   -3.4292 H       1  UNL1        0.0230
     40 H          -2.7941    0.8710   -1.6480 H       1  UNL1        0.0230
     41 H          -0.9099   -0.8027   -2.5336 H       1  UNL1        0.0285
     42 H           0.1168    0.6253   -2.4308 H       1  UNL1        0.0285
     43 H           0.1818   -0.6714   -0.3544 H       1  UNL1        0.0578
     44 H          -2.5735   -0.2571    0.5318 H       1  UNL1        0.1482
     45 H          -1.0961   -4.5388   -2.4638 H       1  UNL1        0.1048
     46 H          -5.3769   -5.1825   -0.1156 H       1  UNL1        0.1668
     47 H          -6.2240   -3.2275    1.3483 H       1  UNL1        0.0807
     48 H          -4.4059   -1.2471    1.1701 H       1  UNL1        0.0640
     49 H          -3.6462    3.8457    0.3104 H       1  UNL1        0.0639
     50 H          -3.4468    6.0897    1.3346 H       1  UNL1        0.0619
     51 H          -1.2415    6.8038    2.2747 H       1  UNL1        0.0646
     52 H           2.4742    1.6315   -1.3184 H       1  UNL1        0.0639
     53 H           4.3382    0.0765   -1.4881 H       1  UNL1        0.0655
     54 H           5.2383   -1.7091   -1.9235 H       1  UNL1        0.0788
     55 H           6.2575   -0.7341   -0.8070 H       1  UNL1        0.0788
     56 H           3.0564   -1.9339    2.0157 H       1  UNL1        0.0655
     57 H           1.1420   -0.4029    2.2625 H       1  UNL1        0.0639
@<TRIPOS>BOND
     1     1     2    1
     2     2     3    1
     3     3     4    1
     4     4     5    1
     5     5     6   ar
     6     6     7   ar
     7     7     8   ar
     8     8     9   ar
     9     9    10   ar
    10    10    11   ar
    11    11    12   ar
    12    12    13   ar
    13     3    14    1
    14    14    15   ar
    15    15    16   ar
    16    16    17   ar
    17    17    18   ar
    18    18    19   ar
    19    19    20   ar
    20    20    21    1
    21    20    22   ar
    22    22    23   ar
    23    23    24    2
    24    23    25   ar
    25    25    26    1
    26    26    27   ar
    27    27    28   ar
    28    28    29   ar
    29    29    30    1
    30    30    31    1
    31    31    32    1
    32    32    33    1
    33    32    34    1
    34    32    35    1
    35    29    36   ar
    36    36    37   ar
    37    13     5   ar
    38    25    14   ar
    39    37    26   ar
    40    13     9   ar
    41    22    16   ar
    42     1    38    1
    43     1    39    1
    44     1    40    1
    45     2    41    1
    46     2    42    1
    47     3    43    1
    48     4    44    1
    49     7    45    1
    50    10    46    1
    51    11    47    1
    52    12    48    1
    53    17    49    1
    54    18    50    1
    55    19    51    1
    56    27    52    1
    57    28    53    1
    58    31    54    1
    59    31    55    1
    60    36    56    1
    61    37    57    1
