@<TRIPOS>MOLECULE
*****
 72 77 0 0 0
SMALL
GASTEIGER

@<TRIPOS>ATOM
      1 C         -11.4490   -0.0237    0.7469 C.3     1  UNL1        0.0789
      2 O         -10.9790    1.0811    0.0371 O.3     1  UNL1       -0.4933
      3 C          -9.6274    1.3905   -0.1571 C.ar    1  UNL1        0.1412
      4 C          -8.6330    0.5799    0.3652 C.ar    1  UNL1       -0.0104
      5 C          -7.3005    0.8656    0.1858 C.ar    1  UNL1       -0.0143
      6 C          -6.2174    0.0252    0.7119 C.ar    1  UNL1       -0.0160
      7 C          -6.2823   -0.7033    1.8681 C.ar    1  UNL1       -0.0532
      8 C          -5.2177   -1.4827    2.3230 C.ar    1  UNL1       -0.0473
      9 C          -4.0474   -1.5474    1.6143 C.ar    1  UNL1        0.0581
     10 C          -3.9782   -0.8143    0.4478 C.ar    1  UNL1        0.0442
     11 C          -5.0373   -0.0370   -0.0075 C.ar    1  UNL1       -0.0321
     12 N          -2.8660   -0.7363   -0.4345 N.pl3   1  UNL1       -0.3124
     13 C          -1.6308   -1.4315   -0.4673 C.ar    1  UNL1        0.0529
     14 C          -0.9045   -1.1476   -1.6310 C.ar    1  UNL1       -0.0385
     15 C           0.3231   -1.7281   -1.8209 C.ar    1  UNL1       -0.0562
     16 C           0.8888   -2.6073   -0.8815 C.ar    1  UNL1       -0.0367
     17 C           2.2330   -3.1792   -1.1816 C.3     1  UNL1        0.0495
     18 C           3.2136   -2.1005   -0.7779 C.2     1  UNL1        0.2215
     19 O           2.8263   -1.0503   -0.2228 O.2     1  UNL1       -0.2751
     20 N           4.5848   -2.3010   -1.0470 N.am    1  UNL1       -0.2852
     21 C           5.5778   -1.3499   -0.7064 C.ar    1  UNL1        0.0335
     22 C           5.4689   -0.3770    0.2518 C.ar    1  UNL1       -0.0387
     23 C           6.4632    0.5701    0.4807 C.ar    1  UNL1       -0.0389
     24 C           7.6414    0.5665   -0.2775 C.ar    1  UNL1        0.0299
     25 N           8.6374    1.5546   -0.0110 N.pl3   1  UNL1       -0.3255
     26 C           9.5751    1.9780   -1.0269 C.3     1  UNL1        0.0357
     27 C          10.9285    2.1552   -0.3809 C.3     1  UNL1        0.0634
     28 O          10.7787    3.1384    0.5958 O.3     1  UNL1       -0.3767
     29 C          10.1565    2.4967    1.6814 C.3     1  UNL1        0.0634
     30 C           8.7290    2.1549    1.3048 C.3     1  UNL1        0.0357
     31 C           7.7507   -0.4064   -1.2343 C.ar    1  UNL1       -0.0389
     32 C           6.7638   -1.3419   -1.4561 C.ar    1  UNL1       -0.0387
     33 C           0.1565   -2.8655    0.2434 C.ar    1  UNL1       -0.0350
     34 C          -1.0870   -2.2917    0.4583 C.ar    1  UNL1        0.0553
     35 N          -1.7107   -2.6857    1.6850 N.am    1  UNL1       -0.2799
     36 C          -3.0058   -2.3918    2.1904 C.2     1  UNL1        0.2501
     37 O          -3.3260   -2.9316    3.3036 O.2     1  UNL1       -0.2698
     38 C          -6.9916    2.0118   -0.5470 C.ar    1  UNL1       -0.0521
     39 C          -7.9742    2.8168   -1.0659 C.ar    1  UNL1       -0.0369
     40 C          -9.3278    2.5231   -0.8824 C.ar    1  UNL1        0.0669
     41 N         -10.3072    3.3863   -1.4448 N.pl3   1  UNL1       -0.3551
     42 H         -11.5950    0.2975    1.8159 H       1  UNL1        0.0660
     43 H         -12.4356   -0.3941    0.3497 H       1  UNL1        0.0660
     44 H         -10.7870   -0.8989    0.7702 H       1  UNL1        0.0660
     45 H          -8.8579   -0.3104    0.9346 H       1  UNL1        0.0661
     46 H          -7.1860   -0.6759    2.4474 H       1  UNL1        0.0624
     47 H          -5.2828   -2.0508    3.2338 H       1  UNL1        0.0626
     48 H          -4.9331    0.5137   -0.9209 H       1  UNL1        0.0642
     49 H          -2.9797   -0.0309   -1.2032 H       1  UNL1        0.1522
     50 H          -1.3593   -0.4690   -2.3390 H       1  UNL1        0.0637
     51 H           0.9049   -1.5280   -2.7135 H       1  UNL1        0.0621
     52 H           2.4282   -4.0523   -0.5335 H       1  UNL1        0.0407
     53 H           2.3439   -3.4120   -2.2592 H       1  UNL1        0.0407
     54 H           4.8631   -3.2195   -1.5236 H       1  UNL1        0.1548
     55 H           4.6104   -0.3133    0.8727 H       1  UNL1        0.0637
     56 H           6.3456    1.3254    1.2480 H       1  UNL1        0.0637
     57 H           9.7217    1.2289   -1.8360 H       1  UNL1        0.0486
     58 H           9.2192    2.9377   -1.4857 H       1  UNL1        0.0486
     59 H          11.2173    1.1805    0.0605 H       1  UNL1        0.0575
     60 H          11.7084    2.4343   -1.1242 H       1  UNL1        0.0575
     61 H          10.1598    3.1291    2.5752 H       1  UNL1        0.0575
     62 H          10.7388    1.5686    1.8333 H       1  UNL1        0.0575
     63 H           8.1383    3.1155    1.3595 H       1  UNL1        0.0486
     64 H           8.2785    1.5154    2.0880 H       1  UNL1        0.0486
     65 H           8.6528   -0.4531   -1.8510 H       1  UNL1        0.0637
     66 H           6.8633   -2.1137   -2.2264 H       1  UNL1        0.0637
     67 H           0.5617   -3.5367    0.9872 H       1  UNL1        0.0639
     68 H          -1.0910   -3.2821    2.2789 H       1  UNL1        0.1552
     69 H          -5.9430    2.2496   -0.6949 H       1  UNL1        0.0624
     70 H          -7.7434    3.7182   -1.6440 H       1  UNL1        0.0637
     71 H         -11.1145    3.7464   -0.8953 H       1  UNL1        0.1424
     72 H         -10.2437    3.6898   -2.4376 H       1  UNL1        0.1424
@<TRIPOS>BOND
     1     1     2    1
     2     2     3    1
     3     3     4   ar
     4     4     5   ar
     5     5     6    1
     6     6     7   ar
     7     7     8   ar
     8     8     9   ar
     9     9    10   ar
    10    10    11   ar
    11    10    12    1
    12    12    13    1
    13    13    14   ar
    14    14    15   ar
    15    15    16   ar
    16    16    17    1
    17    17    18    1
    18    18    19    2
    19    18    20   am
    20    20    21    1
    21    21    22   ar
    22    22    23   ar
    23    23    24   ar
    24    24    25    1
    25    25    26    1
    26    26    27    1
    27    27    28    1
    28    28    29    1
    29    29    30    1
    30    24    31   ar
    31    31    32   ar
    32    16    33   ar
    33    33    34   ar
    34    34    35    1
    35    35    36   am
    36    36    37    2
    37     5    38   ar
    38    38    39   ar
    39    39    40   ar
    40    40    41    1
    41    40     3   ar
    42    11     6   ar
    43    34    13   ar
    44    36     9    1
    45    32    21   ar
    46    30    25    1
    47     1    42    1
    48     1    43    1
    49     1    44    1
    50     4    45    1
    51     7    46    1
    52     8    47    1
    53    11    48    1
    54    12    49    1
    55    14    50    1
    56    15    51    1
    57    17    52    1
    58    17    53    1
    59    20    54    1
    60    22    55    1
    61    23    56    1
    62    26    57    1
    63    26    58    1
    64    27    59    1
    65    27    60    1
    66    29    61    1
    67    29    62    1
    68    30    63    1
    69    30    64    1
    70    31    65    1
    71    32    66    1
    72    33    67    1
    73    35    68    1
    74    38    69    1
    75    39    70    1
    76    41    71    1
    77    41    72    1
