
     RDKit          3D

 72 77  0  0  0  0  0  0  0  0999 V2000
  -11.4490   -0.0237    0.7469 C   0  0  0  0  0  0  0  0  0  0  0  0
  -10.9790    1.0811    0.0371 O   0  0  0  0  0  0  0  0  0  0  0  0
   -9.6274    1.3905   -0.1571 C   0  0  0  0  0  0  0  0  0  0  0  0
   -8.6330    0.5799    0.3652 C   0  0  0  0  0  0  0  0  0  0  0  0
   -7.3005    0.8656    0.1858 C   0  0  0  0  0  0  0  0  0  0  0  0
   -6.2174    0.0252    0.7119 C   0  0  0  0  0  0  0  0  0  0  0  0
   -6.2823   -0.7033    1.8681 C   0  0  0  0  0  0  0  0  0  0  0  0
   -5.2177   -1.4827    2.3230 C   0  0  0  0  0  0  0  0  0  0  0  0
   -4.0474   -1.5474    1.6143 C   0  0  0  0  0  0  0  0  0  0  0  0
   -3.9782   -0.8143    0.4478 C   0  0  0  0  0  0  0  0  0  0  0  0
   -5.0373   -0.0370   -0.0075 C   0  0  0  0  0  0  0  0  0  0  0  0
   -2.8660   -0.7363   -0.4345 N   0  0  0  0  0  0  0  0  0  0  0  0
   -1.6308   -1.4315   -0.4673 C   0  0  0  0  0  0  0  0  0  0  0  0
   -0.9045   -1.1476   -1.6310 C   0  0  0  0  0  0  0  0  0  0  0  0
    0.3231   -1.7281   -1.8209 C   0  0  0  0  0  0  0  0  0  0  0  0
    0.8888   -2.6073   -0.8815 C   0  0  0  0  0  0  0  0  0  0  0  0
    2.2330   -3.1792   -1.1816 C   0  0  0  0  0  0  0  0  0  0  0  0
    3.2136   -2.1005   -0.7779 C   0  0  0  0  0  0  0  0  0  0  0  0
    2.8263   -1.0503   -0.2228 O   0  0  0  0  0  0  0  0  0  0  0  0
    4.5848   -2.3010   -1.0470 N   0  0  0  0  0  0  0  0  0  0  0  0
    5.5778   -1.3499   -0.7064 C   0  0  0  0  0  0  0  0  0  0  0  0
    5.4689   -0.3770    0.2518 C   0  0  0  0  0  0  0  0  0  0  0  0
    6.4632    0.5701    0.4807 C   0  0  0  0  0  0  0  0  0  0  0  0
    7.6414    0.5665   -0.2775 C   0  0  0  0  0  0  0  0  0  0  0  0
    8.6374    1.5546   -0.0110 N   0  0  0  0  0  0  0  0  0  0  0  0
    9.5751    1.9780   -1.0269 C   0  0  0  0  0  0  0  0  0  0  0  0
   10.9285    2.1552   -0.3809 C   0  0  0  0  0  0  0  0  0  0  0  0
   10.7787    3.1384    0.5958 O   0  0  0  0  0  0  0  0  0  0  0  0
   10.1565    2.4967    1.6814 C   0  0  0  0  0  0  0  0  0  0  0  0
    8.7290    2.1549    1.3048 C   0  0  0  0  0  0  0  0  0  0  0  0
    7.7507   -0.4064   -1.2343 C   0  0  0  0  0  0  0  0  0  0  0  0
    6.7638   -1.3419   -1.4561 C   0  0  0  0  0  0  0  0  0  0  0  0
    0.1565   -2.8655    0.2434 C   0  0  0  0  0  0  0  0  0  0  0  0
   -1.0870   -2.2917    0.4583 C   0  0  0  0  0  0  0  0  0  0  0  0
   -1.7107   -2.6857    1.6850 N   0  0  0  0  0  0  0  0  0  0  0  0
   -3.0058   -2.3918    2.1904 C   0  0  0  0  0  0  0  0  0  0  0  0
   -3.3260   -2.9316    3.3036 O   0  0  0  0  0  0  0  0  0  0  0  0
   -6.9916    2.0118   -0.5470 C   0  0  0  0  0  0  0  0  0  0  0  0
   -7.9742    2.8168   -1.0659 C   0  0  0  0  0  0  0  0  0  0  0  0
   -9.3278    2.5231   -0.8824 C   0  0  0  0  0  0  0  0  0  0  0  0
  -10.3072    3.3863   -1.4448 N   0  0  0  0  0  0  0  0  0  0  0  0
  -11.5950    0.2975    1.8159 H   0  0  0  0  0  0  0  0  0  0  0  0
  -12.4356   -0.3941    0.3497 H   0  0  0  0  0  0  0  0  0  0  0  0
  -10.7870   -0.8989    0.7702 H   0  0  0  0  0  0  0  0  0  0  0  0
   -8.8579   -0.3104    0.9346 H   0  0  0  0  0  0  0  0  0  0  0  0
   -7.1860   -0.6759    2.4474 H   0  0  0  0  0  0  0  0  0  0  0  0
   -5.2828   -2.0508    3.2338 H   0  0  0  0  0  0  0  0  0  0  0  0
   -4.9331    0.5137   -0.9209 H   0  0  0  0  0  0  0  0  0  0  0  0
   -2.9797   -0.0309   -1.2032 H   0  0  0  0  0  0  0  0  0  0  0  0
   -1.3593   -0.4690   -2.3390 H   0  0  0  0  0  0  0  0  0  0  0  0
    0.9049   -1.5280   -2.7135 H   0  0  0  0  0  0  0  0  0  0  0  0
    2.4282   -4.0523   -0.5335 H   0  0  0  0  0  0  0  0  0  0  0  0
    2.3439   -3.4120   -2.2592 H   0  0  0  0  0  0  0  0  0  0  0  0
    4.8631   -3.2195   -1.5236 H   0  0  0  0  0  0  0  0  0  0  0  0
    4.6104   -0.3133    0.8727 H   0  0  0  0  0  0  0  0  0  0  0  0
    6.3456    1.3254    1.2480 H   0  0  0  0  0  0  0  0  0  0  0  0
    9.7217    1.2289   -1.8360 H   0  0  0  0  0  0  0  0  0  0  0  0
    9.2192    2.9377   -1.4857 H   0  0  0  0  0  0  0  0  0  0  0  0
   11.2173    1.1805    0.0605 H   0  0  0  0  0  0  0  0  0  0  0  0
   11.7084    2.4343   -1.1242 H   0  0  0  0  0  0  0  0  0  0  0  0
   10.1598    3.1291    2.5752 H   0  0  0  0  0  0  0  0  0  0  0  0
   10.7388    1.5686    1.8333 H   0  0  0  0  0  0  0  0  0  0  0  0
    8.1383    3.1155    1.3595 H   0  0  0  0  0  0  0  0  0  0  0  0
    8.2785    1.5154    2.0880 H   0  0  0  0  0  0  0  0  0  0  0  0
    8.6528   -0.4531   -1.8510 H   0  0  0  0  0  0  0  0  0  0  0  0
    6.8633   -2.1137   -2.2264 H   0  0  0  0  0  0  0  0  0  0  0  0
    0.5617   -3.5367    0.9872 H   0  0  0  0  0  0  0  0  0  0  0  0
   -1.0910   -3.2821    2.2789 H   0  0  0  0  0  0  0  0  0  0  0  0
   -5.9430    2.2496   -0.6949 H   0  0  0  0  0  0  0  0  0  0  0  0
   -7.7434    3.7182   -1.6440 H   0  0  0  0  0  0  0  0  0  0  0  0
  -11.1145    3.7464   -0.8953 H   0  0  0  0  0  0  0  0  0  0  0  0
  -10.2437    3.6898   -2.4376 H   0  0  0  0  0  0  0  0  0  0  0  0
  1  2  1  0
  2  3  1  0
  3  4  2  0
  4  5  1  0
  5  6  1  0
  6  7  2  0
  7  8  1  0
  8  9  2  0
  9 10  1  0
 10 11  2  0
 10 12  1  0
 12 13  1  0
 13 14  2  0
 14 15  1  0
 15 16  2  0
 16 17  1  0
 17 18  1  0
 18 19  2  0
 18 20  1  0
 20 21  1  0
 21 22  2  0
 22 23  1  0
 23 24  2  0
 24 25  1  0
 25 26  1  0
 26 27  1  0
 27 28  1  0
 28 29  1  0
 29 30  1  0
 24 31  1  0
 31 32  2  0
 16 33  1  0
 33 34  2  0
 34 35  1  0
 35 36  1  0
 36 37  2  0
  5 38  2  0
 38 39  1  0
 39 40  2  0
 40 41  1  0
 40  3  1  0
 11  6  1  0
 34 13  1  0
 36  9  1  0
 32 21  1  0
 30 25  1  0
  1 42  1  0
  1 43  1  0
  1 44  1  0
  4 45  1  0
  7 46  1  0
  8 47  1  0
 11 48  1  0
 12 49  1  0
 14 50  1  0
 15 51  1  0
 17 52  1  0
 17 53  1  0
 20 54  1  0
 22 55  1  0
 23 56  1  0
 26 57  1  0
 26 58  1  0
 27 59  1  0
 27 60  1  0
 29 61  1  0
 29 62  1  0
 30 63  1  0
 30 64  1  0
 31 65  1  0
 32 66  1  0
 33 67  1  0
 35 68  1  0
 38 69  1  0
 39 70  1  0
 41 71  1  0
 41 72  1  0
M  END
$$$$
