@<TRIPOS>MOLECULE
*****
 49 52 0 0 0
SMALL
GASTEIGER

@<TRIPOS>ATOM
      1 C           3.9467    2.8366   -1.9141 C.3     1  UNL1        0.0805
      2 O           4.6644    2.0753   -0.9806 O.3     1  UNL1       -0.4776
      3 C           4.0078    1.0566   -0.3040 C.ar    1  UNL1        0.2557
      4 N           2.7103    0.7692   -0.5070 N.ar    1  UNL1       -0.1768
      5 C           2.0828   -0.2323    0.1646 C.ar    1  UNL1        0.2214
      6 N           0.7261   -0.5429   -0.0387 N.pl3   1  UNL1       -0.2946
      7 C           0.0047   -1.6171    0.6651 C.3     1  UNL1        0.0316
      8 C          -1.3164   -0.9369    0.8619 C.3     1  UNL1        0.1118
      9 C          -1.1007    0.0398    1.9653 C.2     1  UNL1        0.2861
     10 O          -0.2003   -0.1439    2.8535 O.2     1  UNL1       -0.2567
     11 N          -1.9042    1.1895    2.0327 N.am    1  UNL1       -0.1649
     12 C          -2.0801    1.9440    3.2747 C.3     1  UNL1        0.0571
     13 C          -2.5453    1.5891    0.8228 C.2     1  UNL1        0.3722
     14 N          -3.3552    2.7584    0.9133 N.pl3   1  UNL1       -0.2512
     15 N          -2.3988    0.9431   -0.2522 N.2     1  UNL1       -0.1029
     16 C          -1.5942   -0.2477   -0.4106 C.3     1  UNL1        0.1793
     17 C          -2.3317   -1.0947   -1.3952 C.ar    1  UNL1       -0.0021
     18 C          -2.8801   -0.4346   -2.4819 C.ar    1  UNL1       -0.0548
     19 C          -3.6035   -1.1279   -3.4455 C.ar    1  UNL1       -0.0614
     20 C          -3.7891   -2.4754   -3.3411 C.ar    1  UNL1       -0.0617
     21 C          -3.2500   -3.1524   -2.2638 C.ar    1  UNL1       -0.0614
     22 C          -2.5282   -2.4372   -1.3088 C.ar    1  UNL1       -0.0548
     23 C          -0.2142    0.0920   -0.9389 C.3     1  UNL1        0.0598
     24 N           2.8330   -0.9118    1.0366 N.ar    1  UNL1       -0.2165
     25 C           4.1198   -0.6906    1.2949 C.ar    1  UNL1        0.0822
     26 C           4.8870   -1.5020    2.2906 C.3     1  UNL1       -0.0193
     27 C           4.7545    0.3288    0.6098 C.ar    1  UNL1        0.2055
     28 F           6.0705    0.5951    0.8382 F       1  UNL1       -0.1980
     29 H           4.0057    2.3466   -2.9173 H       1  UNL1        0.0660
     30 H           2.8814    2.8347   -1.6243 H       1  UNL1        0.0660
     31 H           4.3582    3.8582   -2.0416 H       1  UNL1        0.0660
     32 H           0.5084   -1.8513    1.6259 H       1  UNL1        0.0474
     33 H           0.0304   -2.4660   -0.0171 H       1  UNL1        0.0474
     34 H          -2.1156   -1.6343    1.1951 H       1  UNL1        0.0467
     35 H          -1.5032    1.4339    4.0545 H       1  UNL1        0.0602
     36 H          -1.7133    2.9841    3.1490 H       1  UNL1        0.0602
     37 H          -3.1591    2.0139    3.4899 H       1  UNL1        0.0602
     38 H          -4.2857    2.6792    1.3350 H       1  UNL1        0.2412
     39 H          -2.9668    3.6447    0.5467 H       1  UNL1        0.2412
     40 H          -2.7821    0.6301   -2.6432 H       1  UNL1        0.0622
     41 H          -4.0434   -0.6265   -4.3087 H       1  UNL1        0.0618
     42 H          -4.3441   -3.0618   -4.0644 H       1  UNL1        0.0618
     43 H          -3.3720   -4.2095   -2.1437 H       1  UNL1        0.0618
     44 H          -2.1481   -3.0003   -0.4956 H       1  UNL1        0.0622
     45 H          -0.0815   -0.2485   -1.9858 H       1  UNL1        0.0507
     46 H          -0.1119    1.2040   -0.8641 H       1  UNL1        0.0507
     47 H           4.2903   -2.4172    2.5109 H       1  UNL1        0.0293
     48 H           5.8598   -1.8199    1.8901 H       1  UNL1        0.0293
     49 H           4.9770   -0.9641    3.2672 H       1  UNL1        0.0293
@<TRIPOS>BOND
     1     1     2    1
     2     2     3    1
     3     3     4   ar
     4     4     5   ar
     5     5     6    1
     6     6     7    1
     7     7     8    1
     8     8     9    1
     9     9    10    2
    10     9    11   am
    11    11    12    1
    12    11    13    1
    13    13    14    1
    14    13    15    2
    15    15    16    1
    16    16    17    1
    17    17    18   ar
    18    18    19   ar
    19    19    20   ar
    20    20    21   ar
    21    21    22   ar
    22    16    23    1
    23     5    24   ar
    24    24    25   ar
    25    25    26    1
    26    25    27   ar
    27    27    28    1
    28    27     3   ar
    29    23     6    1
    30    16     8    1
    31    22    17   ar
    32     1    29    1
    33     1    30    1
    34     1    31    1
    35     7    32    1
    36     7    33    1
    37     8    34    1
    38    12    35    1
    39    12    36    1
    40    12    37    1
    41    14    38    1
    42    14    39    1
    43    18    40    1
    44    19    41    1
    45    20    42    1
    46    21    43    1
    47    22    44    1
    48    23    45    1
    49    23    46    1
    50    26    47    1
    51    26    48    1
    52    26    49    1
