
     RDKit          3D

 49 52  0  0  0  0  0  0  0  0999 V2000
    3.9467    2.8366   -1.9141 C   0  0  0  0  0  0  0  0  0  0  0  0
    4.6644    2.0753   -0.9806 O   0  0  0  0  0  0  0  0  0  0  0  0
    4.0078    1.0566   -0.3040 C   0  0  0  0  0  0  0  0  0  0  0  0
    2.7103    0.7692   -0.5070 N   0  0  0  0  0  0  0  0  0  0  0  0
    2.0828   -0.2323    0.1646 C   0  0  0  0  0  0  0  0  0  0  0  0
    0.7261   -0.5429   -0.0387 N   0  0  0  0  0  0  0  0  0  0  0  0
    0.0047   -1.6171    0.6651 C   0  0  0  0  0  0  0  0  0  0  0  0
   -1.3164   -0.9369    0.8619 C   0  0  1  0  0  0  0  0  0  0  0  0
   -1.1007    0.0398    1.9653 C   0  0  0  0  0  0  0  0  0  0  0  0
   -0.2003   -0.1439    2.8535 O   0  0  0  0  0  0  0  0  0  0  0  0
   -1.9042    1.1895    2.0327 N   0  0  0  0  0  0  0  0  0  0  0  0
   -2.0801    1.9440    3.2747 C   0  0  0  0  0  0  0  0  0  0  0  0
   -2.5453    1.5891    0.8228 C   0  0  0  0  0  0  0  0  0  0  0  0
   -3.3552    2.7584    0.9133 N   0  0  0  0  0  0  0  0  0  0  0  0
   -2.3988    0.9431   -0.2522 N   0  0  0  0  0  0  0  0  0  0  0  0
   -1.5942   -0.2477   -0.4106 C   0  0  2  0  0  0  0  0  0  0  0  0
   -2.3317   -1.0947   -1.3952 C   0  0  0  0  0  0  0  0  0  0  0  0
   -2.8801   -0.4346   -2.4819 C   0  0  0  0  0  0  0  0  0  0  0  0
   -3.6035   -1.1279   -3.4455 C   0  0  0  0  0  0  0  0  0  0  0  0
   -3.7891   -2.4754   -3.3411 C   0  0  0  0  0  0  0  0  0  0  0  0
   -3.2500   -3.1524   -2.2638 C   0  0  0  0  0  0  0  0  0  0  0  0
   -2.5282   -2.4372   -1.3088 C   0  0  0  0  0  0  0  0  0  0  0  0
   -0.2142    0.0920   -0.9389 C   0  0  0  0  0  0  0  0  0  0  0  0
    2.8330   -0.9118    1.0366 N   0  0  0  0  0  0  0  0  0  0  0  0
    4.1198   -0.6906    1.2949 C   0  0  0  0  0  0  0  0  0  0  0  0
    4.8870   -1.5020    2.2906 C   0  0  0  0  0  0  0  0  0  0  0  0
    4.7545    0.3288    0.6098 C   0  0  0  0  0  0  0  0  0  0  0  0
    6.0705    0.5951    0.8382 F   0  0  0  0  0  0  0  0  0  0  0  0
    4.0057    2.3466   -2.9173 H   0  0  0  0  0  0  0  0  0  0  0  0
    2.8814    2.8347   -1.6243 H   0  0  0  0  0  0  0  0  0  0  0  0
    4.3582    3.8582   -2.0416 H   0  0  0  0  0  0  0  0  0  0  0  0
    0.5084   -1.8513    1.6259 H   0  0  0  0  0  0  0  0  0  0  0  0
    0.0304   -2.4660   -0.0171 H   0  0  0  0  0  0  0  0  0  0  0  0
   -2.1156   -1.6343    1.1951 H   0  0  0  0  0  0  0  0  0  0  0  0
   -1.5032    1.4339    4.0545 H   0  0  0  0  0  0  0  0  0  0  0  0
   -1.7133    2.9841    3.1490 H   0  0  0  0  0  0  0  0  0  0  0  0
   -3.1591    2.0139    3.4899 H   0  0  0  0  0  0  0  0  0  0  0  0
   -4.2857    2.6792    1.3350 H   0  0  0  0  0  0  0  0  0  0  0  0
   -2.9668    3.6447    0.5467 H   0  0  0  0  0  0  0  0  0  0  0  0
   -2.7821    0.6301   -2.6432 H   0  0  0  0  0  0  0  0  0  0  0  0
   -4.0434   -0.6265   -4.3087 H   0  0  0  0  0  0  0  0  0  0  0  0
   -4.3441   -3.0618   -4.0644 H   0  0  0  0  0  0  0  0  0  0  0  0
   -3.3720   -4.2095   -2.1437 H   0  0  0  0  0  0  0  0  0  0  0  0
   -2.1481   -3.0003   -0.4956 H   0  0  0  0  0  0  0  0  0  0  0  0
   -0.0815   -0.2485   -1.9858 H   0  0  0  0  0  0  0  0  0  0  0  0
   -0.1119    1.2040   -0.8641 H   0  0  0  0  0  0  0  0  0  0  0  0
    4.2903   -2.4172    2.5109 H   0  0  0  0  0  0  0  0  0  0  0  0
    5.8598   -1.8199    1.8901 H   0  0  0  0  0  0  0  0  0  0  0  0
    4.9770   -0.9641    3.2672 H   0  0  0  0  0  0  0  0  0  0  0  0
  1  2  1  0
  2  3  1  0
  3  4  2  0
  4  5  1  0
  5  6  1  0
  6  7  1  0
  7  8  1  0
  8  9  1  0
  9 10  2  0
  9 11  1  0
 11 12  1  0
 11 13  1  0
 13 14  1  0
 13 15  2  0
 15 16  1  0
 16 17  1  6
 17 18  2  0
 18 19  1  0
 19 20  2  0
 20 21  1  0
 21 22  2  0
 16 23  1  0
  5 24  2  0
 24 25  1  0
 25 26  1  0
 25 27  2  0
 27 28  1  0
 27  3  1  0
 23  6  1  0
 16  8  1  0
 22 17  1  0
  1 29  1  0
  1 30  1  0
  1 31  1  0
  7 32  1  0
  7 33  1  0
  8 34  1  1
 12 35  1  0
 12 36  1  0
 12 37  1  0
 14 38  1  0
 14 39  1  0
 18 40  1  0
 19 41  1  0
 20 42  1  0
 21 43  1  0
 22 44  1  0
 23 45  1  0
 23 46  1  0
 26 47  1  0
 26 48  1  0
 26 49  1  0
M  END
$$$$
