
     RDKit          3D

 61 66  0  0  0  0  0  0  0  0999 V2000
   -9.8023   -2.6486   -0.1515 C   0  0  0  0  0  0  0  0  0  0  0  0
   -8.4761   -1.9563   -0.2681 C   0  0  0  0  0  0  0  0  0  0  0  0
   -7.9211   -1.6493   -1.4948 C   0  0  0  0  0  0  0  0  0  0  0  0
   -6.6901   -1.0074   -1.5479 C   0  0  0  0  0  0  0  0  0  0  0  0
   -5.9848   -0.6565   -0.4159 C   0  0  0  0  0  0  0  0  0  0  0  0
   -4.6944    0.0166   -0.5184 C   0  0  0  0  0  0  0  0  0  0  0  0
   -4.2371    0.2709   -1.6581 O   0  0  0  0  0  0  0  0  0  0  0  0
   -3.9213    0.4032    0.5941 N   0  0  0  0  0  0  0  0  0  0  0  0
   -2.6501    1.0661    0.4868 C   0  0  0  0  0  0  0  0  0  0  0  0
   -2.6812    2.4355    0.4565 C   0  0  0  0  0  0  0  0  0  0  0  0
   -1.5272    3.1502    0.3546 C   0  0  0  0  0  0  0  0  0  0  0  0
   -0.3150    2.4959    0.2811 C   0  0  0  0  0  0  0  0  0  0  0  0
   -0.2810    1.1186    0.3115 C   0  0  0  0  0  0  0  0  0  0  0  0
   -1.4727    0.3994    0.4162 C   0  0  0  0  0  0  0  0  0  0  0  0
    1.0112    0.3880    0.2331 C   0  0  2  0  0  0  0  0  0  0  0  0
    1.0316   -0.4781   -1.0079 C   0  0  0  0  0  0  0  0  0  0  0  0
    0.9990   -1.9425   -0.7525 C   0  0  0  0  0  0  0  0  0  0  0  0
    1.6402   -2.3609    0.4202 O   0  0  0  0  0  0  0  0  0  0  0  0
    1.4799   -1.5969    1.5651 C   0  0  0  0  0  0  0  0  0  0  0  0
    1.6375   -2.2195    2.8263 N   0  0  0  0  0  0  0  0  0  0  0  0
    1.1986   -0.3690    1.4588 N   0  0  0  0  0  0  0  0  0  0  0  0
    2.1711    1.2919    0.1273 C   0  0  0  0  0  0  0  0  0  0  0  0
    3.4164    0.6852    0.0503 C   0  0  0  0  0  0  0  0  0  0  0  0
    4.5324    1.4517   -0.0501 C   0  0  0  0  0  0  0  0  0  0  0  0
    5.8956    0.9256   -0.1383 C   0  0  0  0  0  0  0  0  0  0  0  0
    6.1666   -0.3769   -0.1272 C   0  0  0  0  0  0  0  0  0  0  0  0
    7.6279   -0.7238   -0.2270 C   0  0  0  0  0  0  0  0  0  0  0  0
    8.3172    0.1737    0.8007 C   0  0  0  0  0  0  0  0  0  0  0  0
    8.1102    1.5062    0.5747 O   0  0  0  0  0  0  0  0  0  0  0  0
    7.0622    1.8221   -0.2468 C   0  0  0  0  0  0  0  0  0  0  0  0
    4.4226    2.8120   -0.0745 N   0  0  0  0  0  0  0  0  0  0  0  0
    3.2437    3.4083   -0.0021 C   0  0  0  0  0  0  0  0  0  0  0  0
    2.1046    2.6465    0.0998 C   0  0  0  0  0  0  0  0  0  0  0  0
    0.8713    3.2599    0.1758 O   0  0  0  0  0  0  0  0  0  0  0  0
   -6.5532   -0.9698    0.7626 N   0  0  0  0  0  0  0  0  0  0  0  0
   -7.7455   -1.5920    0.8465 C   0  0  0  0  0  0  0  0  0  0  0  0
   -9.7543   -3.4308    0.6405 H   0  0  0  0  0  0  0  0  0  0  0  0
   -9.9547   -3.1918   -1.1127 H   0  0  0  0  0  0  0  0  0  0  0  0
  -10.6057   -1.9520    0.0929 H   0  0  0  0  0  0  0  0  0  0  0  0
   -8.4667   -1.9206   -2.3842 H   0  0  0  0  0  0  0  0  0  0  0  0
   -6.2710   -0.7749   -2.5247 H   0  0  0  0  0  0  0  0  0  0  0  0
   -4.2894    0.1984    1.5446 H   0  0  0  0  0  0  0  0  0  0  0  0
   -3.6472    2.9647    0.5149 H   0  0  0  0  0  0  0  0  0  0  0  0
   -1.5442    4.2519    0.3296 H   0  0  0  0  0  0  0  0  0  0  0  0
   -1.4441   -0.6647    0.4402 H   0  0  0  0  0  0  0  0  0  0  0  0
    1.9243   -0.2783   -1.6610 H   0  0  0  0  0  0  0  0  0  0  0  0
    0.1582   -0.1860   -1.6494 H   0  0  0  0  0  0  0  0  0  0  0  0
    1.3773   -2.5057   -1.6523 H   0  0  0  0  0  0  0  0  0  0  0  0
   -0.0704   -2.2793   -0.6690 H   0  0  0  0  0  0  0  0  0  0  0  0
    2.3782   -1.9193    3.4749 H   0  0  0  0  0  0  0  0  0  0  0  0
    0.9973   -2.9845    3.0928 H   0  0  0  0  0  0  0  0  0  0  0  0
    3.5232   -0.3937    0.0683 H   0  0  0  0  0  0  0  0  0  0  0  0
    5.3991   -1.1012   -0.0533 H   0  0  0  0  0  0  0  0  0  0  0  0
    8.0217   -0.5166   -1.2216 H   0  0  0  0  0  0  0  0  0  0  0  0
    7.8036   -1.7686    0.1093 H   0  0  0  0  0  0  0  0  0  0  0  0
    7.8768   -0.0961    1.8031 H   0  0  0  0  0  0  0  0  0  0  0  0
    9.3970   -0.0674    0.8728 H   0  0  0  0  0  0  0  0  0  0  0  0
    7.4515    1.9023   -1.2951 H   0  0  0  0  0  0  0  0  0  0  0  0
    6.7495    2.8757    0.0106 H   0  0  0  0  0  0  0  0  0  0  0  0
    3.2108    4.5055   -0.0258 H   0  0  0  0  0  0  0  0  0  0  0  0
   -8.2077   -1.8469    1.8088 H   0  0  0  0  0  0  0  0  0  0  0  0
  1  2  1  0
  2  3  2  0
  3  4  1  0
  4  5  2  0
  5  6  1  0
  6  7  2  0
  6  8  1  0
  8  9  1  0
  9 10  2  0
 10 11  1  0
 11 12  2  0
 12 13  1  0
 13 14  2  0
 13 15  1  0
 15 16  1  6
 16 17  1  0
 17 18  1  0
 18 19  1  0
 19 20  1  0
 19 21  2  0
 15 22  1  0
 22 23  2  0
 23 24  1  0
 24 25  1  0
 25 26  2  0
 26 27  1  0
 27 28  1  0
 28 29  1  0
 29 30  1  0
 24 31  2  0
 31 32  1  0
 32 33  2  0
 33 34  1  0
  5 35  1  0
 35 36  2  0
 36  2  1  0
 14  9  1  0
 21 15  1  0
 33 22  1  0
 34 12  1  0
 30 25  1  0
  1 37  1  0
  1 38  1  0
  1 39  1  0
  3 40  1  0
  4 41  1  0
  8 42  1  0
 10 43  1  0
 11 44  1  0
 14 45  1  0
 16 46  1  0
 16 47  1  0
 17 48  1  0
 17 49  1  0
 20 50  1  0
 20 51  1  0
 23 52  1  0
 26 53  1  0
 27 54  1  0
 27 55  1  0
 28 56  1  0
 28 57  1  0
 30 58  1  0
 30 59  1  0
 32 60  1  0
 36 61  1  0
M  END
$$$$
