@<TRIPOS>MOLECULE
*****
 61 66 0 0 0
SMALL
GASTEIGER

@<TRIPOS>ATOM
      1 C          -9.8023   -2.6486   -0.1515 C.3     1  UNL1       -0.0383
      2 C          -8.4761   -1.9563   -0.2681 C.ar    1  UNL1       -0.0323
      3 C          -7.9211   -1.6493   -1.4948 C.ar    1  UNL1       -0.0552
      4 C          -6.6901   -1.0074   -1.5479 C.ar    1  UNL1       -0.0309
      5 C          -5.9848   -0.6565   -0.4159 C.ar    1  UNL1        0.1257
      6 C          -4.6944    0.0166   -0.5184 C.2     1  UNL1        0.2666
      7 O          -4.2371    0.2709   -1.6581 O.2     1  UNL1       -0.2682
      8 N          -3.9213    0.4032    0.5941 N.am    1  UNL1       -0.2802
      9 C          -2.6501    1.0661    0.4868 C.ar    1  UNL1        0.0343
     10 C          -2.6812    2.4355    0.4565 C.ar    1  UNL1       -0.0370
     11 C          -1.5272    3.1502    0.3546 C.ar    1  UNL1       -0.0172
     12 C          -0.3150    2.4959    0.2811 C.ar    1  UNL1        0.1344
     13 C          -0.2810    1.1186    0.3115 C.ar    1  UNL1        0.0287
     14 C          -1.4727    0.3994    0.4162 C.ar    1  UNL1       -0.0312
     15 C           1.0112    0.3880    0.2331 C.3     1  UNL1        0.1264
     16 C           1.0316   -0.4781   -1.0079 C.3     1  UNL1        0.0155
     17 C           0.9990   -1.9425   -0.7525 C.3     1  UNL1        0.0953
     18 O           1.6402   -2.3609    0.4202 O.2     1  UNL1       -0.4658
     19 C           1.4799   -1.5969    1.5651 C.2     1  UNL1        0.2763
     20 N           1.6375   -2.2195    2.8263 N.pl3   1  UNL1       -0.3134
     21 N           1.1986   -0.3690    1.4588 N.2     1  UNL1       -0.2205
     22 C           2.1711    1.2919    0.1273 C.ar    1  UNL1        0.0304
     23 C           3.4164    0.6852    0.0503 C.ar    1  UNL1       -0.0266
     24 C           4.5324    1.4517   -0.0501 C.ar    1  UNL1        0.0695
     25 C           5.8956    0.9256   -0.1383 C.2     1  UNL1       -0.0004
     26 C           6.1666   -0.3769   -0.1272 C.2     1  UNL1       -0.0745
     27 C           7.6279   -0.7238   -0.2270 C.3     1  UNL1       -0.0105
     28 C           8.3172    0.1737    0.8007 C.3     1  UNL1        0.0515
     29 O           8.1102    1.5062    0.5747 O.3     1  UNL1       -0.3748
     30 C           7.0622    1.8221   -0.2468 C.3     1  UNL1        0.0744
     31 N           4.4226    2.8120   -0.0745 N.ar    1  UNL1       -0.2516
     32 C           3.2437    3.4083   -0.0021 C.ar    1  UNL1        0.0708
     33 C           2.1046    2.6465    0.0998 C.ar    1  UNL1        0.1523
     34 O           0.8713    3.2599    0.1758 O.3     1  UNL1       -0.4538
     35 N          -6.5532   -0.9698    0.7626 N.ar    1  UNL1       -0.2501
     36 C          -7.7455   -1.5920    0.8465 C.ar    1  UNL1        0.0313
     37 H          -9.7543   -3.4308    0.6405 H       1  UNL1        0.0278
     38 H          -9.9547   -3.1918   -1.1127 H       1  UNL1        0.0278
     39 H         -10.6057   -1.9520    0.0929 H       1  UNL1        0.0278
     40 H          -8.4667   -1.9206   -2.3842 H       1  UNL1        0.0621
     41 H          -6.2710   -0.7749   -2.5247 H       1  UNL1        0.0640
     42 H          -4.2894    0.1984    1.5446 H       1  UNL1        0.1552
     43 H          -3.6472    2.9647    0.5149 H       1  UNL1        0.0637
     44 H          -1.5442    4.2519    0.3296 H       1  UNL1        0.0655
     45 H          -1.4441   -0.6647    0.4402 H       1  UNL1        0.0641
     46 H           1.9243   -0.2783   -1.6610 H       1  UNL1        0.0328
     47 H           0.1582   -0.1860   -1.6494 H       1  UNL1        0.0328
     48 H           1.3773   -2.5057   -1.6523 H       1  UNL1        0.0698
     49 H          -0.0704   -2.2793   -0.6690 H       1  UNL1        0.0698
     50 H           2.3782   -1.9193    3.4749 H       1  UNL1        0.1466
     51 H           0.9973   -2.9845    3.0928 H       1  UNL1        0.1466
     52 H           3.5232   -0.3937    0.0683 H       1  UNL1        0.0644
     53 H           5.3991   -1.1012   -0.0533 H       1  UNL1        0.0577
     54 H           8.0217   -0.5166   -1.2216 H       1  UNL1        0.0330
     55 H           7.8036   -1.7686    0.1093 H       1  UNL1        0.0330
     56 H           7.8768   -0.0961    1.8031 H       1  UNL1        0.0563
     57 H           9.3970   -0.0674    0.8728 H       1  UNL1        0.0563
     58 H           7.4515    1.9023   -1.2951 H       1  UNL1        0.0610
     59 H           6.7495    2.8757    0.0106 H       1  UNL1        0.0610
     60 H           3.2108    4.5055   -0.0258 H       1  UNL1        0.0867
     61 H          -8.2077   -1.8469    1.8088 H       1  UNL1        0.0832
@<TRIPOS>BOND
     1     1     2    1
     2     2     3   ar
     3     3     4   ar
     4     4     5   ar
     5     5     6    1
     6     6     7    2
     7     6     8   am
     8     8     9    1
     9     9    10   ar
    10    10    11   ar
    11    11    12   ar
    12    12    13   ar
    13    13    14   ar
    14    13    15    1
    15    15    16    1
    16    16    17    1
    17    17    18    1
    18    18    19    1
    19    19    20    1
    20    19    21    2
    21    15    22    1
    22    22    23   ar
    23    23    24   ar
    24    24    25    1
    25    25    26    2
    26    26    27    1
    27    27    28    1
    28    28    29    1
    29    29    30    1
    30    24    31   ar
    31    31    32   ar
    32    32    33   ar
    33    33    34    1
    34     5    35   ar
    35    35    36   ar
    36    36     2   ar
    37    14     9   ar
    38    21    15    1
    39    33    22   ar
    40    34    12    1
    41    30    25    1
    42     1    37    1
    43     1    38    1
    44     1    39    1
    45     3    40    1
    46     4    41    1
    47     8    42    1
    48    10    43    1
    49    11    44    1
    50    14    45    1
    51    16    46    1
    52    16    47    1
    53    17    48    1
    54    17    49    1
    55    20    50    1
    56    20    51    1
    57    23    52    1
    58    26    53    1
    59    27    54    1
    60    27    55    1
    61    28    56    1
    62    28    57    1
    63    30    58    1
    64    30    59    1
    65    32    60    1
    66    36    61    1
