@<TRIPOS>MOLECULE
*****
 36 38 0 0 0
SMALL
GASTEIGER

@<TRIPOS>ATOM
      1 C           5.3253    0.1832    2.2822 C.3     1  UNL1        0.0790
      2 O           4.6541    0.7712    1.2090 O.3     1  UNL1       -0.4915
      3 C           3.5048    0.3076    0.6141 C.ar    1  UNL1        0.1613
      4 C           2.9936    1.0383   -0.4423 C.ar    1  UNL1        0.1588
      5 O           3.6271    2.2004   -0.8806 O.3     1  UNL1       -0.5033
      6 C           1.8594    0.6759   -1.1098 C.ar    1  UNL1       -0.0098
      7 C           1.1632   -0.4585   -0.7488 C.ar    1  UNL1       -0.0033
      8 C           1.6503   -1.2224    0.3150 C.ar    1  UNL1       -0.0514
      9 C           2.8101   -0.8190    0.9697 C.ar    1  UNL1       -0.0159
     10 C          -0.0764   -1.0405   -1.3212 C.3     1  UNL1        0.1323
     11 C          -0.7427   -0.1381   -2.3347 C.3     1  UNL1        0.0520
     12 C          -1.6041    0.9033   -1.6766 C.2     1  UNL1        0.1740
     13 O          -1.6727    2.1425   -1.8688 O.2     1  UNL1       -0.2917
     14 C          -2.5039    0.3625   -0.6443 C.ar    1  UNL1        0.1007
     15 C          -3.6998    0.9653   -0.2696 C.ar    1  UNL1        0.1343
     16 O          -4.0310    2.1430   -0.9285 O.3     1  UNL1       -0.5058
     17 C          -4.4907    0.3881    0.7146 C.ar    1  UNL1        0.0222
     18 C          -4.1088   -0.7900    1.3386 C.ar    1  UNL1        0.1238
     19 O          -4.9062   -1.3717    2.3306 O.3     1  UNL1       -0.5065
     20 C          -2.9238   -1.4231    0.9944 C.ar    1  UNL1        0.0225
     21 C          -2.1592   -0.8165    0.0063 C.ar    1  UNL1        0.1389
     22 O          -0.9875   -1.4387   -0.3370 O.3     1  UNL1       -0.4828
     23 H           5.1344   -0.8906    2.4117 H       1  UNL1        0.0660
     24 H           6.4243    0.3334    2.0831 H       1  UNL1        0.0660
     25 H           5.1280    0.7822    3.2008 H       1  UNL1        0.0660
     26 H           3.3185    3.1280   -0.5609 H       1  UNL1        0.2923
     27 H           1.3986    1.1911   -1.9408 H       1  UNL1        0.0659
     28 H           1.2186   -2.1216    0.7042 H       1  UNL1        0.0623
     29 H           3.2328   -1.3801    1.8069 H       1  UNL1        0.0655
     30 H           0.1782   -1.9784   -1.8967 H       1  UNL1        0.0789
     31 H          -0.0431    0.2747   -3.0559 H       1  UNL1        0.0385
     32 H          -1.4444   -0.7927   -2.9252 H       1  UNL1        0.0385
     33 H          -4.4171    2.1366   -1.8759 H       1  UNL1        0.2922
     34 H          -5.4136    0.8753    0.9872 H       1  UNL1        0.0691
     35 H          -5.8094   -1.7753    2.1797 H       1  UNL1        0.2921
     36 H          -2.5870   -2.3454    1.4567 H       1  UNL1        0.0691
@<TRIPOS>BOND
     1     1     2    1
     2     2     3    1
     3     3     4   ar
     4     4     5    1
     5     4     6   ar
     6     6     7   ar
     7     7     8   ar
     8     8     9   ar
     9     7    10    1
    10    10    11    1
    11    11    12    1
    12    12    13    2
    13    12    14    1
    14    14    15   ar
    15    15    16    1
    16    15    17   ar
    17    17    18   ar
    18    18    19    1
    19    18    20   ar
    20    20    21   ar
    21    21    22    1
    22     9     3   ar
    23    22    10    1
    24    21    14   ar
    25     1    23    1
    26     1    24    1
    27     1    25    1
    28     5    26    1
    29     6    27    1
    30     8    28    1
    31     9    29    1
    32    10    30    1
    33    11    31    1
    34    11    32    1
    35    16    33    1
    36    17    34    1
    37    19    35    1
    38    20    36    1
