
     RDKit          3D

 40 40  0  0  0  0  0  0  0  0999 V2000
   -2.9052   -0.2845   -0.4734 C   0  0  2  0  0  0  0  0  0  0  0  0
   -4.1804   -1.0428   -0.2797 C   0  0  0  0  0  0  0  0  0  0  0  0
   -3.9660   -2.4836    0.1089 C   0  0  0  0  0  0  0  0  0  0  0  0
   -2.0371   -0.8327   -1.5199 C   0  0  0  0  0  0  0  0  0  0  0  0
   -0.9577   -1.3237   -1.8805 O   0  0  0  0  0  0  0  0  0  0  0  0
   -2.2243   -0.0383    0.8341 C   0  0  1  0  0  0  0  0  0  0  0  0
   -0.9198    0.7344    0.6626 C   0  0  0  0  0  0  0  0  0  0  0  0
   -0.2408    0.9921    1.8572 N   0  0  0  0  0  0  0  0  0  0  0  0
    1.2052    1.8334    1.8036 S   0  0  0  0  0  0  0  0  0  0  0  0
    1.0055    3.1903    1.1461 O   0  0  0  0  0  0  0  0  0  0  0  0
    1.7349    2.0045    3.2013 O   0  0  0  0  0  0  0  0  0  0  0  0
    2.4831    1.0474    0.8877 C   0  0  0  0  0  0  0  0  0  0  0  0
    3.3607    0.1653    1.5229 C   0  0  0  0  0  0  0  0  0  0  0  0
    4.3931   -0.4846    0.8380 C   0  0  0  0  0  0  0  0  0  0  0  0
    4.5153   -0.2142   -0.5259 C   0  0  0  0  0  0  0  0  0  0  0  0
    5.6310   -0.9264   -1.2295 C   0  0  0  0  0  0  0  0  0  0  0  0
    3.6570    0.6539   -1.1674 C   0  0  0  0  0  0  0  0  0  0  0  0
    2.6571    1.2662   -0.4406 C   0  0  0  0  0  0  0  0  0  0  0  0
   -3.1487    0.8024    1.6681 C   0  0  0  0  0  0  0  0  0  0  0  0
   -3.5038    2.0516    1.1519 O   0  0  0  0  0  0  0  0  0  0  0  0
   -3.6910    0.5977    2.7876 O   0  0  0  0  0  0  0  0  0  0  0  0
   -3.2259    0.7328   -0.8462 H   0  0  0  0  0  0  0  0  0  0  0  0
   -4.8149   -1.0179   -1.1957 H   0  0  0  0  0  0  0  0  0  0  0  0
   -4.7552   -0.5583    0.5319 H   0  0  0  0  0  0  0  0  0  0  0  0
   -4.0011   -2.5666    1.2291 H   0  0  0  0  0  0  0  0  0  0  0  0
   -2.9731   -2.8659   -0.1722 H   0  0  0  0  0  0  0  0  0  0  0  0
   -4.8036   -3.1192   -0.2458 H   0  0  0  0  0  0  0  0  0  0  0  0
   -2.4585   -0.8724   -2.5209 H   0  0  0  0  0  0  0  0  0  0  0  0
   -1.9593   -0.9647    1.3836 H   0  0  0  0  0  0  0  0  0  0  0  0
   -0.2693    0.0756    0.0349 H   0  0  0  0  0  0  0  0  0  0  0  0
   -1.1382    1.6108    0.0098 H   0  0  0  0  0  0  0  0  0  0  0  0
   -0.5774    0.6451    2.7452 H   0  0  0  0  0  0  0  0  0  0  0  0
    3.2000    0.0079    2.5845 H   0  0  0  0  0  0  0  0  0  0  0  0
    5.0483   -1.1620    1.3819 H   0  0  0  0  0  0  0  0  0  0  0  0
    6.5692   -0.6302   -0.7310 H   0  0  0  0  0  0  0  0  0  0  0  0
    5.5097   -2.0291   -1.1648 H   0  0  0  0  0  0  0  0  0  0  0  0
    5.6485   -0.6038   -2.2810 H   0  0  0  0  0  0  0  0  0  0  0  0
    3.7986    0.8245   -2.2205 H   0  0  0  0  0  0  0  0  0  0  0  0
    2.0082    1.9339   -0.9673 H   0  0  0  0  0  0  0  0  0  0  0  0
   -3.6741    2.8508    1.7427 H   0  0  0  0  0  0  0  0  0  0  0  0
  1  2  1  0
  2  3  1  0
  1  4  1  0
  4  5  2  0
  1  6  1  0
  6  7  1  0
  7  8  1  0
  8  9  1  0
  9 10  2  0
  9 11  2  0
  9 12  1  0
 12 13  2  0
 13 14  1  0
 14 15  2  0
 15 16  1  0
 15 17  1  0
 17 18  2  0
  6 19  1  0
 19 20  1  0
 19 21  2  0
 18 12  1  0
  1 22  1  6
  2 23  1  0
  2 24  1  0
  3 25  1  0
  3 26  1  0
  3 27  1  0
  4 28  1  0
  6 29  1  1
  7 30  1  0
  7 31  1  0
  8 32  1  0
 13 33  1  0
 14 34  1  0
 16 35  1  0
 16 36  1  0
 16 37  1  0
 17 38  1  0
 18 39  1  0
 20 40  1  0
M  END
$$$$
