@<TRIPOS>MOLECULE
*****
 40 40 0 0 0
SMALL
GASTEIGER

@<TRIPOS>ATOM
      1 C          -2.9052   -0.2845   -0.4734 C.3     1  UNL1        0.0283
      2 C          -4.1804   -1.0428   -0.2797 C.3     1  UNL1       -0.0458
      3 C          -3.9660   -2.4836    0.1089 C.3     1  UNL1       -0.0646
      4 C          -2.0371   -0.8327   -1.5199 C.2     1  UNL1        0.1242
      5 O          -0.9577   -1.3237   -1.8805 O.2     1  UNL1       -0.3007
      6 C          -2.2243   -0.0383    0.8341 C.3     1  UNL1        0.0795
      7 C          -0.9198    0.7344    0.6626 C.3     1  UNL1        0.0310
      8 N          -0.2408    0.9921    1.8572 N.3     1  UNL1       -0.1891
      9 S           1.2052    1.8334    1.8036 S.O2    1  UNL1        0.0584
     10 O           1.0055    3.1903    1.1461 O.2     1  UNL1       -0.1531
     11 O           1.7349    2.0045    3.2013 O.2     1  UNL1       -0.1531
     12 C           2.4831    1.0474    0.8877 C.ar    1  UNL1        0.1053
     13 C           3.3607    0.1653    1.5229 C.ar    1  UNL1       -0.0351
     14 C           4.3931   -0.4846    0.8380 C.ar    1  UNL1       -0.0570
     15 C           4.5153   -0.2142   -0.5259 C.ar    1  UNL1       -0.0503
     16 C           5.6310   -0.9264   -1.2295 C.3     1  UNL1       -0.0397
     17 C           3.6570    0.6539   -1.1674 C.ar    1  UNL1       -0.0570
     18 C           2.6571    1.2662   -0.4406 C.ar    1  UNL1       -0.0351
     19 C          -3.1487    0.8024    1.6681 C.2     1  UNL1        0.3098
     20 O          -3.5038    2.0516    1.1519 O.3     1  UNL1       -0.4804
     21 O          -3.6910    0.5977    2.7876 O.2     1  UNL1       -0.2506
     22 H          -3.2259    0.7328   -0.8462 H       1  UNL1        0.0383
     23 H          -4.8149   -1.0179   -1.1957 H       1  UNL1        0.0269
     24 H          -4.7552   -0.5583    0.5319 H       1  UNL1        0.0269
     25 H          -4.0011   -2.5666    1.2291 H       1  UNL1        0.0230
     26 H          -2.9731   -2.8659   -0.1722 H       1  UNL1        0.0230
     27 H          -4.8036   -3.1192   -0.2458 H       1  UNL1        0.0230
     28 H          -2.4585   -0.8724   -2.5209 H       1  UNL1        0.1029
     29 H          -1.9593   -0.9647    1.3836 H       1  UNL1        0.0433
     30 H          -0.2693    0.0756    0.0349 H       1  UNL1        0.0449
     31 H          -1.1382    1.6108    0.0098 H       1  UNL1        0.0449
     32 H          -0.5774    0.6451    2.7452 H       1  UNL1        0.1480
     33 H           3.2000    0.0079    2.5845 H       1  UNL1        0.0637
     34 H           5.0483   -1.1620    1.3819 H       1  UNL1        0.0621
     35 H           6.5692   -0.6302   -0.7310 H       1  UNL1        0.0278
     36 H           5.5097   -2.0291   -1.1648 H       1  UNL1        0.0278
     37 H           5.6485   -0.6038   -2.2810 H       1  UNL1        0.0278
     38 H           3.7986    0.8245   -2.2205 H       1  UNL1        0.0621
     39 H           2.0082    1.9339   -0.9673 H       1  UNL1        0.0637
     40 H          -3.6741    2.8508    1.7427 H       1  UNL1        0.2951
@<TRIPOS>BOND
     1     1     2    1
     2     2     3    1
     3     1     4    1
     4     4     5    2
     5     1     6    1
     6     6     7    1
     7     7     8    1
     8     8     9    1
     9     9    10    2
    10     9    11    2
    11     9    12    1
    12    12    13   ar
    13    13    14   ar
    14    14    15   ar
    15    15    16    1
    16    15    17   ar
    17    17    18   ar
    18     6    19    1
    19    19    20    1
    20    19    21    2
    21    18    12   ar
    22     1    22    1
    23     2    23    1
    24     2    24    1
    25     3    25    1
    26     3    26    1
    27     3    27    1
    28     4    28    1
    29     6    29    1
    30     7    30    1
    31     7    31    1
    32     8    32    1
    33    13    33    1
    34    14    34    1
    35    16    35    1
    36    16    36    1
    37    16    37    1
    38    17    38    1
    39    18    39    1
    40    20    40    1
