@<TRIPOS>MOLECULE
*****
 83 88 0 0 0
SMALL
GASTEIGER

@<TRIPOS>ATOM
      1 C           3.4306   -2.2037   -0.6140 C.3     1  UNL1       -0.0598
      2 C           3.9398   -1.6011    0.6697 C.3     1  UNL1       -0.0128
      3 C           4.0119   -0.1306    0.5098 C.ar    1  UNL1        0.0493
      4 N           5.2242    0.4071    0.2447 N.ar    1  UNL1       -0.2172
      5 C           5.3884    1.7258    0.0726 C.ar    1  UNL1        0.2207
      6 O           6.6822    2.1645   -0.1948 O.3     1  UNL1       -0.4380
      7 C           7.7501    1.2882   -0.2809 C.ar    1  UNL1        0.1304
      8 C           8.5041    0.9381    0.8367 C.ar    1  UNL1       -0.0185
      9 C           9.5694    0.0583    0.7320 C.ar    1  UNL1       -0.0443
     10 C           9.9170   -0.4965   -0.4721 C.ar    1  UNL1        0.0591
     11 C          11.0345   -1.4210   -0.5630 C.2     1  UNL1        0.3368
     12 O          11.3448   -1.9206   -1.6681 O.2     1  UNL1       -0.2451
     13 O          11.7700   -1.7643    0.5554 O.3     1  UNL1       -0.4771
     14 C           9.1699   -0.1512   -1.5881 C.ar    1  UNL1       -0.0443
     15 C           8.1137    0.7216   -1.4821 C.ar    1  UNL1       -0.0185
     16 C           4.3064    2.5372    0.1676 C.ar    1  UNL1        0.0007
     17 C           3.0508    2.0193    0.4382 C.ar    1  UNL1       -0.0506
     18 C           2.8806    0.6455    0.6180 C.ar    1  UNL1       -0.0119
     19 C           1.5795    0.0423    0.9209 C.3     1  UNL1        0.0257
     20 N           0.9076   -0.6000   -0.1518 N.3     1  UNL1       -0.2980
     21 C           0.5076    0.2281   -1.2434 C.3     1  UNL1        0.0009
     22 C          -0.9472   -0.0479   -1.6297 C.3     1  UNL1       -0.0213
     23 C          -1.7760    0.1416   -0.3704 C.3     1  UNL1        0.0305
     24 N          -3.1749    0.1870   -0.6383 N.am    1  UNL1       -0.2738
     25 C          -3.9330   -0.9019   -1.2447 C.2     1  UNL1        0.3059
     26 O          -3.5160   -1.7427   -2.0752 O.2     1  UNL1       -0.2524
     27 N          -5.2655   -0.8492   -0.7199 N.am    1  UNL1       -0.2802
     28 C          -6.3379   -1.7276   -1.0697 C.3     1  UNL1        0.0317
     29 C          -6.7144   -2.5643    0.1658 C.3     1  UNL1       -0.0106
     30 C          -8.0409   -3.2281   -0.2057 C.3     1  UNL1        0.0493
     31 O          -9.0659   -2.3100   -0.2398 O.3     1  UNL1       -0.3796
     32 C          -8.6422   -0.9992   -0.4473 C.3     1  UNL1        0.0493
     33 C          -7.5745   -1.0390   -1.5276 C.3     1  UNL1       -0.0106
     34 C          -5.2704    0.2571    0.2161 C.3     1  UNL1        0.0393
     35 C          -4.2161    1.1719   -0.4283 C.3     1  UNL1        0.0687
     36 C          -3.8858    2.3154    0.3915 C.ar    1  UNL1       -0.0255
     37 C          -2.8644    3.1843    0.1186 C.ar    1  UNL1       -0.0567
     38 C          -2.6077    4.2547    0.9859 C.ar    1  UNL1       -0.0614
     39 C          -3.3596    4.4614    2.1149 C.ar    1  UNL1       -0.0617
     40 C          -4.3830    3.5940    2.3906 C.ar    1  UNL1       -0.0614
     41 C          -4.6330    2.5449    1.5394 C.ar    1  UNL1       -0.0567
     42 C          -1.3985   -0.9832    0.5782 C.3     1  UNL1       -0.0213
     43 C          -0.0512   -1.5809    0.2371 C.3     1  UNL1        0.0009
     44 H           3.2753   -1.3911   -1.3493 H       1  UNL1        0.0233
     45 H           2.5178   -2.8306   -0.4582 H       1  UNL1        0.0233
     46 H           4.2534   -2.8299   -1.0596 H       1  UNL1        0.0233
     47 H           4.9830   -1.9807    0.8475 H       1  UNL1        0.0326
     48 H           3.2885   -1.8803    1.5385 H       1  UNL1        0.0326
     49 H           8.2393    1.3665    1.7805 H       1  UNL1        0.0654
     50 H          10.1661   -0.2250    1.5894 H       1  UNL1        0.0627
     51 H          12.7232   -2.0989    0.5219 H       1  UNL1        0.2954
     52 H           9.4598   -0.5980   -2.5241 H       1  UNL1        0.0627
     53 H           7.5500    0.9722   -2.3662 H       1  UNL1        0.0654
     54 H           4.4366    3.6103    0.0275 H       1  UNL1        0.0671
     55 H           2.1831    2.6759    0.5141 H       1  UNL1        0.0623
     56 H           1.6211   -0.6306    1.8081 H       1  UNL1        0.0476
     57 H           0.9137    0.8901    1.2692 H       1  UNL1        0.0476
     58 H           1.1477    0.0617   -2.1597 H       1  UNL1        0.0427
     59 H           0.5398    1.2934   -0.9371 H       1  UNL1        0.0427
     60 H          -1.2119    0.7586   -2.3644 H       1  UNL1        0.0295
     61 H          -1.0749   -1.0320   -2.0936 H       1  UNL1        0.0295
     62 H          -1.4315    1.0748    0.0964 H       1  UNL1        0.0502
     63 H          -6.0428   -2.4914   -1.8254 H       1  UNL1        0.0502
     64 H          -5.9671   -3.3557    0.3243 H       1  UNL1        0.0305
     65 H          -6.8211   -1.9164    1.0626 H       1  UNL1        0.0305
     66 H          -8.2932   -4.0406    0.4822 H       1  UNL1        0.0560
     67 H          -7.8596   -3.6940   -1.2164 H       1  UNL1        0.0560
     68 H          -9.4690   -0.3853   -0.8730 H       1  UNL1        0.0560
     69 H          -8.2267   -0.5637    0.4727 H       1  UNL1        0.0560
     70 H          -7.4013   -0.0221   -1.9334 H       1  UNL1        0.0305
     71 H          -8.0393   -1.6126   -2.3780 H       1  UNL1        0.0305
     72 H          -6.2443    0.7786    0.2704 H       1  UNL1        0.0487
     73 H          -4.9129   -0.1295    1.1812 H       1  UNL1        0.0487
     74 H          -4.6919    1.4566   -1.4103 H       1  UNL1        0.0567
     75 H          -2.2674    3.0629   -0.7589 H       1  UNL1        0.0621
     76 H          -1.7976    4.9561    0.7827 H       1  UNL1        0.0618
     77 H          -3.1646    5.2933    2.7920 H       1  UNL1        0.0618
     78 H          -4.9597    3.7845    3.2908 H       1  UNL1        0.0618
     79 H          -5.4380    1.8861    1.7819 H       1  UNL1        0.0621
     80 H          -2.1412   -1.8072    0.5212 H       1  UNL1        0.0295
     81 H          -1.3425   -0.6302    1.6254 H       1  UNL1        0.0295
     82 H          -0.2236   -2.2533   -0.6458 H       1  UNL1        0.0427
     83 H           0.2990   -2.1481    1.1010 H       1  UNL1        0.0427
@<TRIPOS>BOND
     1     1     2    1
     2     2     3    1
     3     3     4   ar
     4     4     5   ar
     5     5     6    1
     6     6     7    1
     7     7     8   ar
     8     8     9   ar
     9     9    10   ar
    10    10    11    1
    11    11    12    2
    12    11    13    1
    13    10    14   ar
    14    14    15   ar
    15     5    16   ar
    16    16    17   ar
    17    17    18   ar
    18    18    19    1
    19    19    20    1
    20    20    21    1
    21    21    22    1
    22    22    23    1
    23    23    24    1
    24    24    25   am
    25    25    26    2
    26    25    27   am
    27    27    28    1
    28    28    29    1
    29    29    30    1
    30    30    31    1
    31    31    32    1
    32    32    33    1
    33    27    34    1
    34    34    35    1
    35    35    36    1
    36    36    37   ar
    37    37    38   ar
    38    38    39   ar
    39    39    40   ar
    40    40    41   ar
    41    23    42    1
    42    42    43    1
    43    18     3   ar
    44    43    20    1
    45    15     7   ar
    46    35    24    1
    47    41    36   ar
    48    33    28    1
    49     1    44    1
    50     1    45    1
    51     1    46    1
    52     2    47    1
    53     2    48    1
    54     8    49    1
    55     9    50    1
    56    13    51    1
    57    14    52    1
    58    15    53    1
    59    16    54    1
    60    17    55    1
    61    19    56    1
    62    19    57    1
    63    21    58    1
    64    21    59    1
    65    22    60    1
    66    22    61    1
    67    23    62    1
    68    28    63    1
    69    29    64    1
    70    29    65    1
    71    30    66    1
    72    30    67    1
    73    32    68    1
    74    32    69    1
    75    33    70    1
    76    33    71    1
    77    34    72    1
    78    34    73    1
    79    35    74    1
    80    37    75    1
    81    38    76    1
    82    39    77    1
    83    40    78    1
    84    41    79    1
    85    42    80    1
    86    42    81    1
    87    43    82    1
    88    43    83    1
