
     RDKit          3D

 67 71  0  0  0  0  0  0  0  0999 V2000
    6.2032    0.1211    1.0379 C   0  0  0  0  0  0  0  0  0  0  0  0
    5.5522    0.2820   -0.2583 N   0  0  0  0  0  0  0  0  0  0  0  0
    6.3863    0.4939   -1.4212 C   0  0  0  0  0  0  0  0  0  0  0  0
    4.1459    0.2307   -0.3651 C   0  0  0  0  0  0  0  0  0  0  0  0
    3.5351    0.3832   -1.5921 C   0  0  0  0  0  0  0  0  0  0  0  0
    2.1584    0.3263   -1.6518 C   0  0  0  0  0  0  0  0  0  0  0  0
    1.3443    0.1212   -0.5297 C   0  0  0  0  0  0  0  0  0  0  0  0
    2.0052   -0.0251    0.6719 C   0  0  0  0  0  0  0  0  0  0  0  0
    3.3801    0.0269    0.7640 C   0  0  0  0  0  0  0  0  0  0  0  0
   -0.1581    0.0726   -0.6694 C   0  0  1  0  0  0  0  0  0  0  0  0
   -0.6185   -1.3285   -0.6799 C   0  0  0  0  0  0  0  0  0  0  0  0
   -1.7110   -1.7420    0.2257 C   0  0  1  0  0  0  0  0  0  0  0  0
   -1.1613   -2.3715    1.4619 C   0  0  0  0  0  0  0  0  0  0  0  0
   -2.5564   -0.5115    0.4661 C   0  0  1  0  0  0  0  0  0  0  0  0
   -3.7836   -1.0583    1.0771 C   0  0  0  0  0  0  0  0  0  0  0  0
   -4.1146   -2.1118    0.0044 C   0  0  0  0  0  0  0  0  0  0  0  0
   -2.7367   -2.6834   -0.3606 C   0  0  1  0  0  0  0  0  0  0  0  0
   -2.5766   -2.7555   -1.7509 O   0  0  0  0  0  0  0  0  0  0  0  0
   -2.7216   -4.0384    0.2623 C   0  0  0  0  0  0  0  0  0  0  0  0
   -2.5097   -5.2155   -0.6606 C   0  0  0  0  0  0  0  0  0  0  0  0
   -2.8574   -4.3827    1.4484 O   0  0  0  0  0  0  0  0  0  0  0  0
   -1.7208    0.4207    1.2531 C   0  0  2  0  0  0  0  0  0  0  0  0
   -2.5534    1.3767    2.0098 C   0  0  0  0  0  0  0  0  0  0  0  0
   -1.6823    2.5865    2.3703 C   0  0  0  0  0  0  0  0  0  0  0  0
   -1.3482    3.1570    1.0404 C   0  0  0  0  0  0  0  0  0  0  0  0
   -1.7034    4.4011    0.6745 C   0  0  0  0  0  0  0  0  0  0  0  0
   -1.2861    4.7847   -0.6685 C   0  0  0  0  0  0  0  0  0  0  0  0
   -2.1112    5.4520   -1.3614 O   0  0  0  0  0  0  0  0  0  0  0  0
    0.0565    4.3873   -1.1557 C   0  0  0  0  0  0  0  0  0  0  0  0
    0.2691    2.9306   -0.9344 C   0  0  0  0  0  0  0  0  0  0  0  0
   -0.6144    2.3386    0.0837 C   0  0  0  0  0  0  0  0  0  0  0  0
   -0.8175    1.0290    0.2144 C   0  0  0  0  0  0  0  0  0  0  0  0
    7.2548    0.4958    0.9823 H   0  0  0  0  0  0  0  0  0  0  0  0
    6.2628   -0.9442    1.3140 H   0  0  0  0  0  0  0  0  0  0  0  0
    5.7079    0.6966    1.8261 H   0  0  0  0  0  0  0  0  0  0  0  0
    6.0217   -0.0771   -2.2834 H   0  0  0  0  0  0  0  0  0  0  0  0
    6.3978    1.5720   -1.7038 H   0  0  0  0  0  0  0  0  0  0  0  0
    7.4464    0.1993   -1.1925 H   0  0  0  0  0  0  0  0  0  0  0  0
    4.0917    0.5451   -2.5060 H   0  0  0  0  0  0  0  0  0  0  0  0
    1.6968    0.4509   -2.6423 H   0  0  0  0  0  0  0  0  0  0  0  0
    1.4355   -0.1822    1.5596 H   0  0  0  0  0  0  0  0  0  0  0  0
    3.8278   -0.0968    1.7438 H   0  0  0  0  0  0  0  0  0  0  0  0
   -0.3053    0.4494   -1.7302 H   0  0  0  0  0  0  0  0  0  0  0  0
   -0.9166   -1.6951   -1.7097 H   0  0  0  0  0  0  0  0  0  0  0  0
    0.2591   -2.0033   -0.4472 H   0  0  0  0  0  0  0  0  0  0  0  0
   -0.2070   -1.8947    1.8362 H   0  0  0  0  0  0  0  0  0  0  0  0
   -0.7886   -3.3939    1.1454 H   0  0  0  0  0  0  0  0  0  0  0  0
   -1.8988   -2.4176    2.2634 H   0  0  0  0  0  0  0  0  0  0  0  0
   -2.8132   -0.0715   -0.5202 H   0  0  0  0  0  0  0  0  0  0  0  0
   -4.6109   -0.2941    0.9962 H   0  0  0  0  0  0  0  0  0  0  0  0
   -3.6967   -1.4831    2.0722 H   0  0  0  0  0  0  0  0  0  0  0  0
   -4.5744   -1.6250   -0.8632 H   0  0  0  0  0  0  0  0  0  0  0  0
   -4.8023   -2.8518    0.4042 H   0  0  0  0  0  0  0  0  0  0  0  0
   -1.9003   -3.4650   -1.9396 H   0  0  0  0  0  0  0  0  0  0  0  0
   -2.8655   -6.1601   -0.2485 H   0  0  0  0  0  0  0  0  0  0  0  0
   -1.4485   -5.3088   -0.9110 H   0  0  0  0  0  0  0  0  0  0  0  0
   -3.1522   -5.0302   -1.5708 H   0  0  0  0  0  0  0  0  0  0  0  0
   -1.0289   -0.0604    1.9733 H   0  0  0  0  0  0  0  0  0  0  0  0
   -3.4407    1.6680    1.4292 H   0  0  0  0  0  0  0  0  0  0  0  0
   -2.8017    0.9125    2.9892 H   0  0  0  0  0  0  0  0  0  0  0  0
   -2.2597    3.2626    2.9978 H   0  0  0  0  0  0  0  0  0  0  0  0
   -0.7683    2.1919    2.8579 H   0  0  0  0  0  0  0  0  0  0  0  0
   -2.2507    5.0384    1.3338 H   0  0  0  0  0  0  0  0  0  0  0  0
    0.1590    4.5987   -2.2538 H   0  0  0  0  0  0  0  0  0  0  0  0
    0.7841    5.0216   -0.5847 H   0  0  0  0  0  0  0  0  0  0  0  0
    1.3196    2.8381   -0.5483 H   0  0  0  0  0  0  0  0  0  0  0  0
    0.1723    2.4155   -1.9266 H   0  0  0  0  0  0  0  0  0  0  0  0
  1  2  1  0
  2  3  1  0
  2  4  1  0
  4  5  2  0
  5  6  1  0
  6  7  2  0
  7  8  1  0
  8  9  2  0
  7 10  1  0
 10 11  1  0
 11 12  1  0
 12 13  1  1
 12 14  1  0
 14 15  1  0
 15 16  1  0
 16 17  1  0
 17 18  1  6
 17 19  1  0
 19 20  1  0
 19 21  2  0
 14 22  1  0
 22 23  1  0
 23 24  1  0
 24 25  1  0
 25 26  2  0
 26 27  1  0
 27 28  2  0
 27 29  1  0
 29 30  1  0
 30 31  1  0
 31 32  2  0
  9  4  1  0
 32 10  1  0
 17 12  1  0
 32 22  1  0
 31 25  1  0
  1 33  1  0
  1 34  1  0
  1 35  1  0
  3 36  1  0
  3 37  1  0
  3 38  1  0
  5 39  1  0
  6 40  1  0
  8 41  1  0
  9 42  1  0
 10 43  1  6
 11 44  1  0
 11 45  1  0
 13 46  1  0
 13 47  1  0
 13 48  1  0
 14 49  1  6
 15 50  1  0
 15 51  1  0
 16 52  1  0
 16 53  1  0
 18 54  1  0
 20 55  1  0
 20 56  1  0
 20 57  1  0
 22 58  1  1
 23 59  1  0
 23 60  1  0
 24 61  1  0
 24 62  1  0
 26 63  1  0
 29 64  1  0
 29 65  1  0
 30 66  1  0
 30 67  1  0
M  END
$$$$
