@<TRIPOS>MOLECULE
*****
 33 34 0 0 0
SMALL
GASTEIGER

@<TRIPOS>ATOM
      1 N          -6.1527    0.8017   -0.7213 N.pl3   1  UNL1       -0.2466
      2 C          -5.0505    1.1001    0.1246 C.2     1  UNL1        0.3081
      3 N          -5.2727    2.0820    0.9348 N.2     1  UNL1       -0.0994
      4 C          -3.7860    0.3749    0.0904 C.ar    1  UNL1        0.0648
      5 C          -3.3045   -0.2050   -1.0652 C.ar    1  UNL1       -0.0451
      6 C          -2.1153   -0.8797   -1.0701 C.ar    1  UNL1       -0.0396
      7 C          -1.3733   -0.9948    0.0776 C.ar    1  UNL1        0.0348
      8 N          -0.1227   -1.6435    0.3014 N.am    1  UNL1       -0.2692
      9 C           0.9942   -0.7575    0.0853 C.2     1  UNL1        0.3081
     10 O           0.8272    0.4422   -0.2605 O.2     1  UNL1       -0.2522
     11 N           2.3147   -1.2657    0.2715 N.am    1  UNL1       -0.2692
     12 C           3.5112   -0.5034    0.0931 C.ar    1  UNL1        0.0349
     13 C           3.9349    0.1321    1.2263 C.ar    1  UNL1       -0.0391
     14 C           5.0932    0.9138    1.1968 C.ar    1  UNL1       -0.0416
     15 C           5.7985    1.0352    0.0179 C.ar    1  UNL1        0.0411
     16 CL          7.2524    1.9951   -0.0891 Cl      1  UNL1       -0.0835
     17 C           5.3609    0.3834   -1.1378 C.ar    1  UNL1       -0.0416
     18 C           4.2137   -0.3897   -1.1045 C.ar    1  UNL1       -0.0391
     19 C          -1.8483   -0.4129    1.2543 C.ar    1  UNL1       -0.0396
     20 C          -3.0547    0.2718    1.2601 C.ar    1  UNL1       -0.0451
     21 H          -6.9495    0.4009   -1.2599 H       1  UNL1        0.2884
     22 H          -6.4600   -0.2034   -0.5941 H       1  UNL1        0.2884
     23 H          -4.5442    2.3998    1.6073 H       1  UNL1        0.3633
     24 H          -3.8536   -0.1402   -1.9911 H       1  UNL1        0.0627
     25 H          -1.6526   -1.3665   -1.9153 H       1  UNL1        0.0636
     26 H           0.0341   -2.6332    0.5873 H       1  UNL1        0.1564
     27 H           2.4516   -2.2654    0.5596 H       1  UNL1        0.1564
     28 H           3.4277    0.0781    2.1828 H       1  UNL1        0.0636
     29 H           5.4437    1.4274    2.0946 H       1  UNL1        0.0633
     30 H           5.8833    0.4473   -2.0959 H       1  UNL1        0.0633
     31 H           3.8090   -0.9274   -1.9606 H       1  UNL1        0.0636
     32 H          -1.3568   -0.4327    2.2265 H       1  UNL1        0.0636
     33 H          -3.4530    0.7352    2.1547 H       1  UNL1        0.0627
@<TRIPOS>BOND
     1     1     2    1
     2     2     3    2
     3     2     4    1
     4     4     5   ar
     5     5     6   ar
     6     6     7   ar
     7     7     8    1
     8     8     9   am
     9     9    10    2
    10     9    11   am
    11    11    12    1
    12    12    13   ar
    13    13    14   ar
    14    14    15   ar
    15    15    16    1
    16    15    17   ar
    17    17    18   ar
    18     7    19   ar
    19    19    20   ar
    20    20     4   ar
    21    18    12   ar
    22     1    21    1
    23     1    22    1
    24     3    23    1
    25     5    24    1
    26     6    25    1
    27     8    26    1
    28    11    27    1
    29    13    28    1
    30    14    29    1
    31    17    30    1
    32    18    31    1
    33    19    32    1
    34    20    33    1
