@<TRIPOS>MOLECULE
*****
 70 74 0 0 0
SMALL
GASTEIGER

@<TRIPOS>ATOM
      1 C          10.6798    1.4459   -0.3165 C.3     1  UNL1       -0.0570
      2 C           9.6344    0.4740    0.1555 C.3     1  UNL1        0.0213
      3 C           8.3931    0.6487   -0.5975 C.2     1  UNL1        0.2154
      4 O           8.3370    1.5337   -1.5212 O.2     1  UNL1       -0.2756
      5 N           7.2090   -0.0902   -0.3974 N.am    1  UNL1       -0.2989
      6 C           7.1967   -1.1129    0.6312 C.3     1  UNL1        0.0291
      7 C           5.7555   -1.1999    1.1006 C.3     1  UNL1        0.0363
      8 N           5.1443    0.1149    1.1503 N.3     1  UNL1       -0.1736
      9 S           3.8139    0.0695    2.1892 S.O2    1  UNL1        0.0610
     10 O           3.9806    1.2122    3.1828 O.2     1  UNL1       -0.1528
     11 O           3.8165   -1.1953    3.0037 O.2     1  UNL1       -0.1528
     12 C           2.2847    0.2759    1.4263 C.ar    1  UNL1        0.1072
     13 C           1.7475    1.5222    1.2089 C.ar    1  UNL1       -0.0352
     14 C           0.5100    1.6856    0.5992 C.ar    1  UNL1       -0.0582
     15 C          -0.1961    0.5793    0.2033 C.ar    1  UNL1       -0.0404
     16 C           0.3150   -0.6900    0.4065 C.ar    1  UNL1        0.0354
     17 N          -0.4903   -1.7762   -0.0186 N.pl3   1  UNL1       -0.2835
     18 C          -1.7512   -1.5777   -0.6370 C.ar    1  UNL1        0.2213
     19 N          -1.8776   -1.6732   -1.9711 N.ar    1  UNL1       -0.2207
     20 C          -3.0724   -1.4593   -2.5524 C.ar    1  UNL1        0.0560
     21 C          -4.1938   -1.1393   -1.8162 C.ar    1  UNL1        0.0952
     22 C          -4.0421   -1.0452   -0.4400 C.ar    1  UNL1        0.1520
     23 N          -2.8437   -1.2622    0.1259 N.ar    1  UNL1       -0.1970
     24 N          -5.0580   -0.7139    0.4962 N.pl3   1  UNL1       -0.2860
     25 C          -4.8602   -1.2029    1.8201 C.3     1  UNL1        0.0072
     26 C          -6.2273    0.0496    0.2545 C.ar    1  UNL1        0.0471
     27 C          -6.7276    0.6083    1.4008 C.ar    1  UNL1       -0.0393
     28 C          -7.8654    1.4049    1.4094 C.ar    1  UNL1       -0.0570
     29 C          -8.5008    1.6287    0.2043 C.ar    1  UNL1       -0.0496
     30 C          -9.7181    2.4813    0.1970 C.3     1  UNL1       -0.0397
     31 C          -8.0019    1.0666   -0.9630 C.ar    1  UNL1       -0.0449
     32 C          -6.8774    0.2844   -0.9448 C.ar    1  UNL1        0.0588
     33 C          -6.5146   -0.2114   -2.2874 C.2     1  UNL1        0.2525
     34 O          -7.2962    0.0354   -3.2189 O.2     1  UNL1       -0.2696
     35 N          -5.3389   -0.9590   -2.6391 N.am    1  UNL1       -0.2663
     36 C          -5.3097   -1.5890   -3.9448 C.3     1  UNL1        0.0087
     37 C           1.5462   -0.8193    1.0139 C.ar    1  UNL1       -0.0141
     38 C           4.8482    0.5288   -0.2065 C.3     1  UNL1        0.0363
     39 C           5.9920    0.0981   -1.1412 C.3     1  UNL1        0.0291
     40 H          11.4071    0.9511   -0.9847 H       1  UNL1        0.0234
     41 H          11.2810    1.8770    0.5178 H       1  UNL1        0.0234
     42 H          10.1645    2.2484   -0.8921 H       1  UNL1        0.0234
     43 H           9.5393    0.5891    1.2491 H       1  UNL1        0.0356
     44 H          10.0126   -0.5575   -0.0592 H       1  UNL1        0.0356
     45 H           7.4725   -2.0771    0.1648 H       1  UNL1        0.0478
     46 H           7.8904   -0.8709    1.4619 H       1  UNL1        0.0478
     47 H           5.6802   -1.6229    2.1211 H       1  UNL1        0.0459
     48 H           5.2053   -1.9038    0.4209 H       1  UNL1        0.0459
     49 H           2.2937    2.3886    1.5173 H       1  UNL1        0.0637
     50 H           0.0784    2.6584    0.4245 H       1  UNL1        0.0619
     51 H          -1.1557    0.7267   -0.2713 H       1  UNL1        0.0636
     52 H          -0.1488   -2.7381    0.1269 H       1  UNL1        0.1550
     53 H          -3.2145   -1.5269   -3.6396 H       1  UNL1        0.0851
     54 H          -4.3163   -0.4942    2.4795 H       1  UNL1        0.0432
     55 H          -4.1914   -2.1152    1.7999 H       1  UNL1        0.0432
     56 H          -5.7964   -1.5953    2.3104 H       1  UNL1        0.0432
     57 H          -6.1941    0.4032    2.3199 H       1  UNL1        0.0636
     58 H          -8.2435    1.8377    2.3262 H       1  UNL1        0.0621
     59 H          -9.6092    3.1887   -0.6769 H       1  UNL1        0.0278
     60 H          -9.8221    3.0181    1.1420 H       1  UNL1        0.0278
     61 H         -10.5789    1.8414   -0.0658 H       1  UNL1        0.0278
     62 H          -8.5064    1.2497   -1.8930 H       1  UNL1        0.0628
     63 H          -6.3950   -1.7350   -4.2229 H       1  UNL1        0.0433
     64 H          -4.8883   -0.9641   -4.7343 H       1  UNL1        0.0433
     65 H          -4.9038   -2.6268   -3.9106 H       1  UNL1        0.0433
     66 H           1.9241   -1.8139    1.1632 H       1  UNL1        0.0656
     67 H           3.9117    0.1331   -0.6030 H       1  UNL1        0.0459
     68 H           4.8708    1.6397   -0.2294 H       1  UNL1        0.0459
     69 H           5.6936   -0.9216   -1.5167 H       1  UNL1        0.0478
     70 H           6.0983    0.7813   -1.9952 H       1  UNL1        0.0478
@<TRIPOS>BOND
     1     1     2    1
     2     2     3    1
     3     3     4    2
     4     3     5   am
     5     5     6    1
     6     6     7    1
     7     7     8    1
     8     8     9    1
     9     9    10    2
    10     9    11    2
    11     9    12    1
    12    12    13   ar
    13    13    14   ar
    14    14    15   ar
    15    15    16   ar
    16    16    17    1
    17    17    18    1
    18    18    19   ar
    19    19    20   ar
    20    20    21   ar
    21    21    22   ar
    22    22    23   ar
    23    22    24    1
    24    24    25    1
    25    24    26    1
    26    26    27   ar
    27    27    28   ar
    28    28    29   ar
    29    29    30    1
    30    29    31   ar
    31    31    32   ar
    32    32    33    1
    33    33    34    2
    34    33    35   am
    35    35    36    1
    36    16    37   ar
    37     8    38    1
    38    38    39    1
    39    39     5    1
    40    37    12   ar
    41    23    18   ar
    42    32    26   ar
    43    35    21    1
    44     1    40    1
    45     1    41    1
    46     1    42    1
    47     2    43    1
    48     2    44    1
    49     6    45    1
    50     6    46    1
    51     7    47    1
    52     7    48    1
    53    13    49    1
    54    14    50    1
    55    15    51    1
    56    17    52    1
    57    20    53    1
    58    25    54    1
    59    25    55    1
    60    25    56    1
    61    27    57    1
    62    28    58    1
    63    30    59    1
    64    30    60    1
    65    30    61    1
    66    31    62    1
    67    36    63    1
    68    36    64    1
    69    36    65    1
    70    37    66    1
    71    38    67    1
    72    38    68    1
    73    39    69    1
    74    39    70    1
