
     RDKit          3D

 70 74  0  0  0  0  0  0  0  0999 V2000
   10.6798    1.4459   -0.3165 C   0  0  0  0  0  0  0  0  0  0  0  0
    9.6344    0.4740    0.1555 C   0  0  0  0  0  0  0  0  0  0  0  0
    8.3931    0.6487   -0.5975 C   0  0  0  0  0  0  0  0  0  0  0  0
    8.3370    1.5337   -1.5212 O   0  0  0  0  0  0  0  0  0  0  0  0
    7.2090   -0.0902   -0.3974 N   0  0  0  0  0  0  0  0  0  0  0  0
    7.1967   -1.1129    0.6312 C   0  0  0  0  0  0  0  0  0  0  0  0
    5.7555   -1.1999    1.1006 C   0  0  0  0  0  0  0  0  0  0  0  0
    5.1443    0.1149    1.1503 N   0  0  0  0  0  0  0  0  0  0  0  0
    3.8139    0.0695    2.1892 S   0  0  0  0  0  6  0  0  0  0  0  0
    3.9806    1.2122    3.1828 O   0  0  0  0  0  0  0  0  0  0  0  0
    3.8165   -1.1953    3.0037 O   0  0  0  0  0  0  0  0  0  0  0  0
    2.2847    0.2759    1.4263 C   0  0  0  0  0  0  0  0  0  0  0  0
    1.7475    1.5222    1.2089 C   0  0  0  0  0  0  0  0  0  0  0  0
    0.5100    1.6856    0.5992 C   0  0  0  0  0  0  0  0  0  0  0  0
   -0.1961    0.5793    0.2033 C   0  0  0  0  0  0  0  0  0  0  0  0
    0.3150   -0.6900    0.4065 C   0  0  0  0  0  0  0  0  0  0  0  0
   -0.4903   -1.7762   -0.0186 N   0  0  0  0  0  0  0  0  0  0  0  0
   -1.7512   -1.5777   -0.6370 C   0  0  0  0  0  0  0  0  0  0  0  0
   -1.8776   -1.6732   -1.9711 N   0  0  0  0  0  0  0  0  0  0  0  0
   -3.0724   -1.4593   -2.5524 C   0  0  0  0  0  0  0  0  0  0  0  0
   -4.1938   -1.1393   -1.8162 C   0  0  0  0  0  0  0  0  0  0  0  0
   -4.0421   -1.0452   -0.4400 C   0  0  0  0  0  0  0  0  0  0  0  0
   -2.8437   -1.2622    0.1259 N   0  0  0  0  0  0  0  0  0  0  0  0
   -5.0580   -0.7139    0.4962 N   0  0  0  0  0  0  0  0  0  0  0  0
   -4.8602   -1.2029    1.8201 C   0  0  0  0  0  0  0  0  0  0  0  0
   -6.2273    0.0496    0.2545 C   0  0  0  0  0  0  0  0  0  0  0  0
   -6.7276    0.6083    1.4008 C   0  0  0  0  0  0  0  0  0  0  0  0
   -7.8654    1.4049    1.4094 C   0  0  0  0  0  0  0  0  0  0  0  0
   -8.5008    1.6287    0.2043 C   0  0  0  0  0  0  0  0  0  0  0  0
   -9.7181    2.4813    0.1970 C   0  0  0  0  0  0  0  0  0  0  0  0
   -8.0019    1.0666   -0.9630 C   0  0  0  0  0  0  0  0  0  0  0  0
   -6.8774    0.2844   -0.9448 C   0  0  0  0  0  0  0  0  0  0  0  0
   -6.5146   -0.2114   -2.2874 C   0  0  0  0  0  0  0  0  0  0  0  0
   -7.2962    0.0354   -3.2189 O   0  0  0  0  0  0  0  0  0  0  0  0
   -5.3389   -0.9590   -2.6391 N   0  0  0  0  0  0  0  0  0  0  0  0
   -5.3097   -1.5890   -3.9448 C   0  0  0  0  0  0  0  0  0  0  0  0
    1.5462   -0.8193    1.0139 C   0  0  0  0  0  0  0  0  0  0  0  0
    4.8482    0.5288   -0.2065 C   0  0  0  0  0  0  0  0  0  0  0  0
    5.9920    0.0981   -1.1412 C   0  0  0  0  0  0  0  0  0  0  0  0
   11.4071    0.9511   -0.9847 H   0  0  0  0  0  0  0  0  0  0  0  0
   11.2810    1.8770    0.5178 H   0  0  0  0  0  0  0  0  0  0  0  0
   10.1645    2.2484   -0.8921 H   0  0  0  0  0  0  0  0  0  0  0  0
    9.5393    0.5891    1.2491 H   0  0  0  0  0  0  0  0  0  0  0  0
   10.0126   -0.5575   -0.0592 H   0  0  0  0  0  0  0  0  0  0  0  0
    7.4725   -2.0771    0.1648 H   0  0  0  0  0  0  0  0  0  0  0  0
    7.8904   -0.8709    1.4619 H   0  0  0  0  0  0  0  0  0  0  0  0
    5.6802   -1.6229    2.1211 H   0  0  0  0  0  0  0  0  0  0  0  0
    5.2053   -1.9038    0.4209 H   0  0  0  0  0  0  0  0  0  0  0  0
    2.2937    2.3886    1.5173 H   0  0  0  0  0  0  0  0  0  0  0  0
    0.0784    2.6584    0.4245 H   0  0  0  0  0  0  0  0  0  0  0  0
   -1.1557    0.7267   -0.2713 H   0  0  0  0  0  0  0  0  0  0  0  0
   -0.1488   -2.7381    0.1269 H   0  0  0  0  0  0  0  0  0  0  0  0
   -3.2145   -1.5269   -3.6396 H   0  0  0  0  0  0  0  0  0  0  0  0
   -4.3163   -0.4942    2.4795 H   0  0  0  0  0  0  0  0  0  0  0  0
   -4.1914   -2.1152    1.7999 H   0  0  0  0  0  0  0  0  0  0  0  0
   -5.7964   -1.5953    2.3104 H   0  0  0  0  0  0  0  0  0  0  0  0
   -6.1941    0.4032    2.3199 H   0  0  0  0  0  0  0  0  0  0  0  0
   -8.2435    1.8377    2.3262 H   0  0  0  0  0  0  0  0  0  0  0  0
   -9.6092    3.1887   -0.6769 H   0  0  0  0  0  0  0  0  0  0  0  0
   -9.8221    3.0181    1.1420 H   0  0  0  0  0  0  0  0  0  0  0  0
  -10.5789    1.8414   -0.0658 H   0  0  0  0  0  0  0  0  0  0  0  0
   -8.5064    1.2497   -1.8930 H   0  0  0  0  0  0  0  0  0  0  0  0
   -6.3950   -1.7350   -4.2229 H   0  0  0  0  0  0  0  0  0  0  0  0
   -4.8883   -0.9641   -4.7343 H   0  0  0  0  0  0  0  0  0  0  0  0
   -4.9038   -2.6268   -3.9106 H   0  0  0  0  0  0  0  0  0  0  0  0
    1.9241   -1.8139    1.1632 H   0  0  0  0  0  0  0  0  0  0  0  0
    3.9117    0.1331   -0.6030 H   0  0  0  0  0  0  0  0  0  0  0  0
    4.8708    1.6397   -0.2294 H   0  0  0  0  0  0  0  0  0  0  0  0
    5.6936   -0.9216   -1.5167 H   0  0  0  0  0  0  0  0  0  0  0  0
    6.0983    0.7813   -1.9952 H   0  0  0  0  0  0  0  0  0  0  0  0
  1  2  1  0
  2  3  1  0
  3  4  2  0
  3  5  1  0
  5  6  1  0
  6  7  1  0
  7  8  1  0
  8  9  1  0
  9 10  2  0
  9 11  2  0
  9 12  1  0
 12 13  2  0
 13 14  1  0
 14 15  2  0
 15 16  1  0
 16 17  1  0
 17 18  1  0
 18 19  2  0
 19 20  1  0
 20 21  2  0
 21 22  1  0
 22 23  2  0
 22 24  1  0
 24 25  1  0
 24 26  1  0
 26 27  2  0
 27 28  1  0
 28 29  2  0
 29 30  1  0
 29 31  1  0
 31 32  2  0
 32 33  1  0
 33 34  2  0
 33 35  1  0
 35 36  1  0
 16 37  2  0
  8 38  1  0
 38 39  1  0
 39  5  1  0
 37 12  1  0
 23 18  1  0
 32 26  1  0
 35 21  1  0
  1 40  1  0
  1 41  1  0
  1 42  1  0
  2 43  1  0
  2 44  1  0
  6 45  1  0
  6 46  1  0
  7 47  1  0
  7 48  1  0
 13 49  1  0
 14 50  1  0
 15 51  1  0
 17 52  1  0
 20 53  1  0
 25 54  1  0
 25 55  1  0
 25 56  1  0
 27 57  1  0
 28 58  1  0
 30 59  1  0
 30 60  1  0
 30 61  1  0
 31 62  1  0
 36 63  1  0
 36 64  1  0
 36 65  1  0
 37 66  1  0
 38 67  1  0
 38 68  1  0
 39 69  1  0
 39 70  1  0
M  END
$$$$
