
     RDKit          3D

 57 62  0  0  0  0  0  0  0  0999 V2000
   -4.0091   -2.2451    3.3764 C   0  0  0  0  0  0  0  0  0  0  0  0
   -3.7300   -1.6889    2.0930 O   0  0  0  0  0  0  0  0  0  0  0  0
   -4.0452   -2.3746    0.9239 C   0  0  0  0  0  0  0  0  0  0  0  0
   -4.6309   -3.6007    0.9442 N   0  0  0  0  0  0  0  0  0  0  0  0
   -4.9421   -4.2767   -0.1659 C   0  0  0  0  0  0  0  0  0  0  0  0
   -4.6681   -3.7303   -1.4130 C   0  0  0  0  0  0  0  0  0  0  0  0
   -4.0780   -2.4952   -1.4365 C   0  0  0  0  0  0  0  0  0  0  0  0
   -3.7638   -1.8120   -0.2798 C   0  0  0  0  0  0  0  0  0  0  0  0
   -3.1436   -0.5166   -0.4244 N   0  0  0  0  0  0  0  0  0  0  0  0
   -3.7344    0.6594   -0.4505 N   0  0  0  0  0  0  0  0  0  0  0  0
   -2.8637    1.6467   -0.5967 C   0  0  0  0  0  0  0  0  0  0  0  0
   -3.1728    3.0935   -0.6816 C   0  0  0  0  0  0  0  0  0  0  0  0
   -1.5932    1.0651   -0.6716 C   0  0  0  0  0  0  0  0  0  0  0  0
   -1.8262   -0.2882   -0.5599 C   0  0  0  0  0  0  0  0  0  0  0  0
   -0.5088   -0.9341   -0.6575 C   0  0  0  0  0  0  0  0  0  0  0  0
   -0.3844   -2.1919   -0.5884 O   0  0  0  0  0  0  0  0  0  0  0  0
    0.4942    0.0514   -0.8284 N   0  0  0  0  0  0  0  0  0  0  0  0
    1.8668   -0.2118   -0.9862 C   0  0  0  0  0  0  0  0  0  0  0  0
    2.4791   -0.3672   -2.2123 C   0  0  0  0  0  0  0  0  0  0  0  0
    3.8234   -0.6374   -2.3600 C   0  0  0  0  0  0  0  0  0  0  0  0
    4.4466   -0.7984   -3.7061 C   0  0  0  0  0  0  0  0  0  0  0  0
    4.5670   -0.7524   -1.2060 C   0  0  0  0  0  0  0  0  0  0  0  0
    5.8471   -0.9986   -0.9534 N   0  0  0  0  0  0  0  0  0  0  0  0
    6.0192   -0.9960    0.3584 N   0  0  0  0  0  0  0  0  0  0  0  0
    4.8737   -0.7520    0.9805 N   0  0  0  0  0  0  0  0  0  0  0  0
    4.6195   -0.6616    2.4127 C   0  0  0  0  0  0  0  0  0  0  0  0
    3.9527   -0.5965    0.0213 C   0  0  0  0  0  0  0  0  0  0  0  0
    2.6373   -0.3337    0.1105 N   0  0  0  0  0  0  0  0  0  0  0  0
   -0.1413    1.3329   -0.8149 C   0  0  0  0  0  0  0  0  0  0  0  0
    0.4093    2.2477    0.2068 C   0  0  0  0  0  0  0  0  0  0  0  0
   -0.3022    2.7603    1.2674 C   0  0  0  0  0  0  0  0  0  0  0  0
    0.2786    3.6459    2.1843 C   0  0  0  0  0  0  0  0  0  0  0  0
    1.5918    4.0425    2.0628 C   0  0  0  0  0  0  0  0  0  0  0  0
    2.3231    5.1561    3.2156 Cl  0  0  0  0  0  0  0  0  0  0  0  0
    2.3058    3.5301    1.0017 C   0  0  0  0  0  0  0  0  0  0  0  0
    1.7306    2.6588    0.1009 C   0  0  0  0  0  0  0  0  0  0  0  0
   -3.3776   -1.7452    4.1218 H   0  0  0  0  0  0  0  0  0  0  0  0
   -5.0597   -2.0917    3.6789 H   0  0  0  0  0  0  0  0  0  0  0  0
   -3.7665   -3.3480    3.3531 H   0  0  0  0  0  0  0  0  0  0  0  0
   -5.4090   -5.2544   -0.1750 H   0  0  0  0  0  0  0  0  0  0  0  0
   -4.8893   -4.2139   -2.3406 H   0  0  0  0  0  0  0  0  0  0  0  0
   -3.8528   -2.0453   -2.4165 H   0  0  0  0  0  0  0  0  0  0  0  0
   -4.1529    3.2902   -1.1558 H   0  0  0  0  0  0  0  0  0  0  0  0
   -2.4120    3.5772   -1.3432 H   0  0  0  0  0  0  0  0  0  0  0  0
   -3.1935    3.5774    0.3198 H   0  0  0  0  0  0  0  0  0  0  0  0
    1.8979   -0.2776   -3.1219 H   0  0  0  0  0  0  0  0  0  0  0  0
    5.0758    0.0485   -3.9936 H   0  0  0  0  0  0  0  0  0  0  0  0
    4.9908   -1.7774   -3.7302 H   0  0  0  0  0  0  0  0  0  0  0  0
    3.6257   -0.8928   -4.4357 H   0  0  0  0  0  0  0  0  0  0  0  0
    5.6122   -0.6090    2.9281 H   0  0  0  0  0  0  0  0  0  0  0  0
    4.1091    0.3109    2.6130 H   0  0  0  0  0  0  0  0  0  0  0  0
    4.0067   -1.5153    2.7588 H   0  0  0  0  0  0  0  0  0  0  0  0
    0.0454    1.7564   -1.8592 H   0  0  0  0  0  0  0  0  0  0  0  0
   -1.3358    2.4499    1.3834 H   0  0  0  0  0  0  0  0  0  0  0  0
   -0.3125    4.0262    3.0025 H   0  0  0  0  0  0  0  0  0  0  0  0
    3.3542    3.8373    0.8923 H   0  0  0  0  0  0  0  0  0  0  0  0
    2.3158    2.2662   -0.7473 H   0  0  0  0  0  0  0  0  0  0  0  0
  1  2  1  0
  2  3  1  0
  3  4  2  0
  4  5  1  0
  5  6  2  0
  6  7  1  0
  7  8  2  0
  8  9  1  0
  9 10  1  0
 10 11  2  0
 11 12  1  0
 11 13  1  0
 13 14  2  0
 14 15  1  0
 15 16  2  0
 15 17  1  0
 17 18  1  0
 18 19  2  0
 19 20  1  0
 20 21  1  0
 20 22  2  0
 22 23  1  0
 23 24  2  0
 24 25  1  0
 25 26  1  0
 25 27  1  0
 27 28  2  0
 17 29  1  0
 29 30  1  0
 30 31  2  0
 31 32  1  0
 32 33  2  0
 33 34  1  0
 33 35  1  0
 35 36  2  0
  8  3  1  0
 14  9  1  0
 28 18  1  0
 36 30  1  0
 29 13  1  0
 27 22  1  0
  1 37  1  0
  1 38  1  0
  1 39  1  0
  5 40  1  0
  6 41  1  0
  7 42  1  0
 12 43  1  0
 12 44  1  0
 12 45  1  0
 19 46  1  0
 21 47  1  0
 21 48  1  0
 21 49  1  0
 26 50  1  0
 26 51  1  0
 26 52  1  0
 29 53  1  0
 31 54  1  0
 32 55  1  0
 35 56  1  0
 36 57  1  0
M  END
$$$$
