@<TRIPOS>MOLECULE
*****
 57 62 0 0 0
SMALL
GASTEIGER

@<TRIPOS>ATOM
      1 C          -4.0091   -2.2451    3.3764 C.3     1  UNL1        0.0805
      2 O          -3.7300   -1.6889    2.0930 O.3     1  UNL1       -0.4782
      3 C          -4.0452   -2.3746    0.9239 C.ar    1  UNL1        0.2408
      4 N          -4.6309   -3.6007    0.9442 N.ar    1  UNL1       -0.2195
      5 C          -4.9421   -4.2767   -0.1659 C.ar    1  UNL1        0.0315
      6 C          -4.6681   -3.7303   -1.4130 C.ar    1  UNL1       -0.0413
      7 C          -4.0780   -2.4952   -1.4365 C.ar    1  UNL1       -0.0296
      8 C          -3.7638   -1.8120   -0.2798 C.ar    1  UNL1        0.1275
      9 N          -3.1436   -0.5166   -0.4244 N.ar    1  UNL1       -0.2219
     10 N          -3.7344    0.6594   -0.4505 N.ar    1  UNL1       -0.1704
     11 C          -2.8637    1.6467   -0.5967 C.ar    1  UNL1        0.0664
     12 C          -3.1728    3.0935   -0.6816 C.3     1  UNL1       -0.0202
     13 C          -1.5932    1.0651   -0.6716 C.ar    1  UNL1        0.0309
     14 C          -1.8262   -0.2882   -0.5599 C.ar    1  UNL1        0.1353
     15 C          -0.5088   -0.9341   -0.6575 C.2     1  UNL1        0.2715
     16 O          -0.3844   -2.1919   -0.5884 O.2     1  UNL1       -0.2679
     17 N           0.4942    0.0514   -0.8284 N.am    1  UNL1       -0.2389
     18 C           1.8668   -0.2118   -0.9862 C.ar    1  UNL1        0.1313
     19 C           2.4791   -0.3672   -2.2123 C.ar    1  UNL1       -0.0161
     20 C           3.8234   -0.6374   -2.3600 C.ar    1  UNL1       -0.0164
     21 C           4.4466   -0.7984   -3.7061 C.3     1  UNL1       -0.0374
     22 C           4.5670   -0.7524   -1.2060 C.ar    1  UNL1        0.1345
     23 N           5.8471   -0.9986   -0.9534 N.ar    1  UNL1       -0.1276
     24 N           6.0192   -0.9960    0.3584 N.ar    1  UNL1       -0.0635
     25 N           4.8737   -0.7520    0.9805 N.ar    1  UNL1       -0.2297
     26 C           4.6195   -0.6616    2.4127 C.3     1  UNL1        0.0341
     27 C           3.9527   -0.5965    0.0213 C.ar    1  UNL1        0.1803
     28 N           2.6373   -0.3337    0.1105 N.ar    1  UNL1       -0.2108
     29 C          -0.1413    1.3329   -0.8149 C.3     1  UNL1        0.0867
     30 C           0.4093    2.2477    0.2068 C.ar    1  UNL1       -0.0220
     31 C          -0.3022    2.7603    1.2674 C.ar    1  UNL1       -0.0551
     32 C           0.2786    3.6459    2.1843 C.ar    1  UNL1       -0.0431
     33 C           1.5918    4.0425    2.0628 C.ar    1  UNL1        0.0410
     34 CL          2.3231    5.1561    3.2156 Cl      1  UNL1       -0.0835
     35 C           2.3058    3.5301    1.0017 C.ar    1  UNL1       -0.0431
     36 C           1.7306    2.6588    0.1009 C.ar    1  UNL1       -0.0551
     37 H          -3.3776   -1.7452    4.1218 H       1  UNL1        0.0660
     38 H          -5.0597   -2.0917    3.6789 H       1  UNL1        0.0660
     39 H          -3.7665   -3.3480    3.3531 H       1  UNL1        0.0660
     40 H          -5.4090   -5.2544   -0.1750 H       1  UNL1        0.0831
     41 H          -4.8893   -4.2139   -2.3406 H       1  UNL1        0.0633
     42 H          -3.8528   -2.0453   -2.4165 H       1  UNL1        0.0641
     43 H          -4.1529    3.2902   -1.1558 H       1  UNL1        0.0293
     44 H          -2.4120    3.5772   -1.3432 H       1  UNL1        0.0293
     45 H          -3.1935    3.5774    0.3198 H       1  UNL1        0.0293
     46 H           1.8979   -0.2776   -3.1219 H       1  UNL1        0.0655
     47 H           5.0758    0.0485   -3.9936 H       1  UNL1        0.0278
     48 H           4.9908   -1.7774   -3.7302 H       1  UNL1        0.0278
     49 H           3.6257   -0.8928   -4.4357 H       1  UNL1        0.0278
     50 H           5.6122   -0.6090    2.9281 H       1  UNL1        0.0474
     51 H           4.1091    0.3109    2.6130 H       1  UNL1        0.0474
     52 H           4.0067   -1.5153    2.7588 H       1  UNL1        0.0474
     53 H           0.0454    1.7564   -1.8592 H       1  UNL1        0.0606
     54 H          -1.3358    2.4499    1.3834 H       1  UNL1        0.0621
     55 H          -0.3125    4.0262    3.0025 H       1  UNL1        0.0632
     56 H           3.3542    3.8373    0.8923 H       1  UNL1        0.0632
     57 H           2.3158    2.2662   -0.7473 H       1  UNL1        0.0621
@<TRIPOS>BOND
     1     1     2    1
     2     2     3    1
     3     3     4   ar
     4     4     5   ar
     5     5     6   ar
     6     6     7   ar
     7     7     8   ar
     8     8     9    1
     9     9    10   ar
    10    10    11   ar
    11    11    12    1
    12    11    13   ar
    13    13    14   ar
    14    14    15    1
    15    15    16    2
    16    15    17   am
    17    17    18    1
    18    18    19   ar
    19    19    20   ar
    20    20    21    1
    21    20    22   ar
    22    22    23   ar
    23    23    24   ar
    24    24    25   ar
    25    25    26    1
    26    25    27   ar
    27    27    28   ar
    28    17    29    1
    29    29    30    1
    30    30    31   ar
    31    31    32   ar
    32    32    33   ar
    33    33    34    1
    34    33    35   ar
    35    35    36   ar
    36     8     3   ar
    37    14     9   ar
    38    28    18   ar
    39    36    30   ar
    40    29    13    1
    41    27    22   ar
    42     1    37    1
    43     1    38    1
    44     1    39    1
    45     5    40    1
    46     6    41    1
    47     7    42    1
    48    12    43    1
    49    12    44    1
    50    12    45    1
    51    19    46    1
    52    21    47    1
    53    21    48    1
    54    21    49    1
    55    26    50    1
    56    26    51    1
    57    26    52    1
    58    29    53    1
    59    31    54    1
    60    32    55    1
    61    35    56    1
    62    36    57    1
