@<TRIPOS>MOLECULE
*****
 50 50 0 0 0
SMALL
GASTEIGER

@<TRIPOS>ATOM
      1 C           5.3869   -3.0213    0.7968 C.3     1  UNL1       -0.0306
      2 C           5.3097   -1.5187    0.7662 C.3     1  UNL1        0.0900
      3 O           3.9809   -1.1246    0.5501 O.3     1  UNL1       -0.4617
      4 C           3.7180    0.2442    0.4918 C.2     1  UNL1        0.3350
      5 O           4.6559    1.0646    0.6311 O.2     1  UNL1       -0.2453
      6 C           2.3754    0.7584    0.2720 C.2     1  UNL1        0.0367
      7 C           1.3724   -0.0697    0.1224 C.2     1  UNL1       -0.0438
      8 C          -0.0329    0.3144   -0.1058 C.3     1  UNL1        0.0976
      9 O          -0.8070   -0.3902    0.8241 O.3     1  UNL1       -0.3675
     10 C          -1.6729   -1.2929    0.1309 C.3     1  UNL1        0.0590
     11 C          -1.2457   -2.6625    0.5767 C.3     1  UNL1       -0.0294
     12 C          -2.0188   -3.7941   -0.0382 C.3     1  UNL1       -0.0629
     13 C          -3.0445   -0.8884    0.5402 C.3     1  UNL1       -0.0294
     14 C          -4.1764   -1.6524   -0.0379 C.3     1  UNL1       -0.0629
     15 C          -0.2279    1.7990   -0.0090 C.3     1  UNL1        0.0682
     16 N          -1.4114    2.2640   -0.7053 N.am    1  UNL1       -0.3084
     17 C          -2.4432    2.9793   -0.0463 C.2     1  UNL1        0.2103
     18 C          -3.6652    3.4739   -0.7062 C.3     1  UNL1        0.0122
     19 O          -2.2979    3.2022    1.1829 O.2     1  UNL1       -0.2761
     20 C           0.9620    2.4559   -0.6825 C.3     1  UNL1        0.0304
     21 N           0.7336    3.8547   -0.9504 N.3     1  UNL1       -0.3254
     22 C           2.1555    2.2213    0.2197 C.3     1  UNL1       -0.0041
     23 H           6.3507   -3.3404    0.3801 H       1  UNL1        0.0262
     24 H           5.3214   -3.3332    1.8660 H       1  UNL1        0.0262
     25 H           4.5184   -3.4305    0.2487 H       1  UNL1        0.0262
     26 H           5.9446   -1.1756   -0.1014 H       1  UNL1        0.0695
     27 H           5.6979   -1.1134    1.7183 H       1  UNL1        0.0695
     28 H           1.5970   -1.1376    0.1708 H       1  UNL1        0.0603
     29 H          -0.3024   -0.0207   -1.1446 H       1  UNL1        0.0660
     30 H          -1.4957   -1.1884   -0.9438 H       1  UNL1        0.0596
     31 H          -0.1695   -2.8252    0.2928 H       1  UNL1        0.0287
     32 H          -1.2536   -2.7722    1.6836 H       1  UNL1        0.0287
     33 H          -2.6680   -4.2506    0.7489 H       1  UNL1        0.0231
     34 H          -2.6415   -3.5356   -0.8909 H       1  UNL1        0.0231
     35 H          -1.3489   -4.6194   -0.3851 H       1  UNL1        0.0231
     36 H          -3.1831    0.1903    0.2390 H       1  UNL1        0.0287
     37 H          -3.1331   -0.9490    1.6524 H       1  UNL1        0.0287
     38 H          -4.3538   -2.5960    0.4877 H       1  UNL1        0.0231
     39 H          -5.1043   -1.0265    0.1622 H       1  UNL1        0.0231
     40 H          -4.1559   -1.7255   -1.1456 H       1  UNL1        0.0231
     41 H          -0.2771    2.0882    1.0687 H       1  UNL1        0.0542
     42 H          -1.5035    2.0648   -1.7213 H       1  UNL1        0.1491
     43 H          -3.7694    4.5746   -0.5205 H       1  UNL1        0.0322
     44 H          -4.5562    3.0055   -0.2114 H       1  UNL1        0.0322
     45 H          -3.6508    3.3218   -1.7890 H       1  UNL1        0.0322
     46 H           1.1381    1.9202   -1.6337 H       1  UNL1        0.0481
     47 H           0.3424    4.3709   -0.1526 H       1  UNL1        0.1185
     48 H           0.0791    3.9166   -1.7647 H       1  UNL1        0.1185
     49 H           3.0355    2.7679   -0.1746 H       1  UNL1        0.0331
     50 H           1.9351    2.6020    1.2350 H       1  UNL1        0.0331
@<TRIPOS>BOND
     1     1     2    1
     2     2     3    1
     3     3     4    1
     4     4     5    2
     5     4     6    1
     6     6     7    2
     7     7     8    1
     8     8     9    1
     9     9    10    1
    10    10    11    1
    11    11    12    1
    12    10    13    1
    13    13    14    1
    14     8    15    1
    15    15    16    1
    16    16    17   am
    17    17    18    1
    18    17    19    2
    19    15    20    1
    20    20    21    1
    21    20    22    1
    22    22     6    1
    23     1    23    1
    24     1    24    1
    25     1    25    1
    26     2    26    1
    27     2    27    1
    28     7    28    1
    29     8    29    1
    30    10    30    1
    31    11    31    1
    32    11    32    1
    33    12    33    1
    34    12    34    1
    35    12    35    1
    36    13    36    1
    37    13    37    1
    38    14    38    1
    39    14    39    1
    40    14    40    1
    41    15    41    1
    42    16    42    1
    43    18    43    1
    44    18    44    1
    45    18    45    1
    46    20    46    1
    47    21    47    1
    48    21    48    1
    49    22    49    1
    50    22    50    1
