
     RDKit          3D

 50 50  0  0  0  0  0  0  0  0999 V2000
    5.3869   -3.0213    0.7968 C   0  0  0  0  0  0  0  0  0  0  0  0
    5.3097   -1.5187    0.7662 C   0  0  0  0  0  0  0  0  0  0  0  0
    3.9809   -1.1246    0.5501 O   0  0  0  0  0  0  0  0  0  0  0  0
    3.7180    0.2442    0.4918 C   0  0  0  0  0  0  0  0  0  0  0  0
    4.6559    1.0646    0.6311 O   0  0  0  0  0  0  0  0  0  0  0  0
    2.3754    0.7584    0.2720 C   0  0  0  0  0  0  0  0  0  0  0  0
    1.3724   -0.0697    0.1224 C   0  0  0  0  0  0  0  0  0  0  0  0
   -0.0329    0.3144   -0.1058 C   0  0  1  0  0  0  0  0  0  0  0  0
   -0.8070   -0.3902    0.8241 O   0  0  0  0  0  0  0  0  0  0  0  0
   -1.6729   -1.2929    0.1309 C   0  0  0  0  0  0  0  0  0  0  0  0
   -1.2457   -2.6625    0.5767 C   0  0  0  0  0  0  0  0  0  0  0  0
   -2.0188   -3.7941   -0.0382 C   0  0  0  0  0  0  0  0  0  0  0  0
   -3.0445   -0.8884    0.5402 C   0  0  0  0  0  0  0  0  0  0  0  0
   -4.1764   -1.6524   -0.0379 C   0  0  0  0  0  0  0  0  0  0  0  0
   -0.2279    1.7990   -0.0090 C   0  0  2  0  0  0  0  0  0  0  0  0
   -1.4114    2.2640   -0.7053 N   0  0  0  0  0  0  0  0  0  0  0  0
   -2.4432    2.9793   -0.0463 C   0  0  0  0  0  0  0  0  0  0  0  0
   -3.6652    3.4739   -0.7062 C   0  0  0  0  0  0  0  0  0  0  0  0
   -2.2979    3.2022    1.1829 O   0  0  0  0  0  0  0  0  0  0  0  0
    0.9620    2.4559   -0.6825 C   0  0  1  0  0  0  0  0  0  0  0  0
    0.7336    3.8547   -0.9504 N   0  0  0  0  0  0  0  0  0  0  0  0
    2.1555    2.2213    0.2197 C   0  0  0  0  0  0  0  0  0  0  0  0
    6.3507   -3.3404    0.3801 H   0  0  0  0  0  0  0  0  0  0  0  0
    5.3214   -3.3332    1.8660 H   0  0  0  0  0  0  0  0  0  0  0  0
    4.5184   -3.4305    0.2487 H   0  0  0  0  0  0  0  0  0  0  0  0
    5.9446   -1.1756   -0.1014 H   0  0  0  0  0  0  0  0  0  0  0  0
    5.6979   -1.1134    1.7183 H   0  0  0  0  0  0  0  0  0  0  0  0
    1.5970   -1.1376    0.1708 H   0  0  0  0  0  0  0  0  0  0  0  0
   -0.3024   -0.0207   -1.1446 H   0  0  0  0  0  0  0  0  0  0  0  0
   -1.4957   -1.1884   -0.9438 H   0  0  0  0  0  0  0  0  0  0  0  0
   -0.1695   -2.8252    0.2928 H   0  0  0  0  0  0  0  0  0  0  0  0
   -1.2536   -2.7722    1.6836 H   0  0  0  0  0  0  0  0  0  0  0  0
   -2.6680   -4.2506    0.7489 H   0  0  0  0  0  0  0  0  0  0  0  0
   -2.6415   -3.5356   -0.8909 H   0  0  0  0  0  0  0  0  0  0  0  0
   -1.3489   -4.6194   -0.3851 H   0  0  0  0  0  0  0  0  0  0  0  0
   -3.1831    0.1903    0.2390 H   0  0  0  0  0  0  0  0  0  0  0  0
   -3.1331   -0.9490    1.6524 H   0  0  0  0  0  0  0  0  0  0  0  0
   -4.3538   -2.5960    0.4877 H   0  0  0  0  0  0  0  0  0  0  0  0
   -5.1043   -1.0265    0.1622 H   0  0  0  0  0  0  0  0  0  0  0  0
   -4.1559   -1.7255   -1.1456 H   0  0  0  0  0  0  0  0  0  0  0  0
   -0.2771    2.0882    1.0687 H   0  0  0  0  0  0  0  0  0  0  0  0
   -1.5035    2.0648   -1.7213 H   0  0  0  0  0  0  0  0  0  0  0  0
   -3.7694    4.5746   -0.5205 H   0  0  0  0  0  0  0  0  0  0  0  0
   -4.5562    3.0055   -0.2114 H   0  0  0  0  0  0  0  0  0  0  0  0
   -3.6508    3.3218   -1.7890 H   0  0  0  0  0  0  0  0  0  0  0  0
    1.1381    1.9202   -1.6337 H   0  0  0  0  0  0  0  0  0  0  0  0
    0.3424    4.3709   -0.1526 H   0  0  0  0  0  0  0  0  0  0  0  0
    0.0791    3.9166   -1.7647 H   0  0  0  0  0  0  0  0  0  0  0  0
    3.0355    2.7679   -0.1746 H   0  0  0  0  0  0  0  0  0  0  0  0
    1.9351    2.6020    1.2350 H   0  0  0  0  0  0  0  0  0  0  0  0
  1  2  1  0
  2  3  1  0
  3  4  1  0
  4  5  2  0
  4  6  1  0
  6  7  2  0
  7  8  1  0
  8  9  1  0
  9 10  1  0
 10 11  1  0
 11 12  1  0
 10 13  1  0
 13 14  1  0
  8 15  1  0
 15 16  1  0
 16 17  1  0
 17 18  1  0
 17 19  2  0
 15 20  1  0
 20 21  1  0
 20 22  1  0
 22  6  1  0
  1 23  1  0
  1 24  1  0
  1 25  1  0
  2 26  1  0
  2 27  1  0
  7 28  1  0
  8 29  1  6
 10 30  1  0
 11 31  1  0
 11 32  1  0
 12 33  1  0
 12 34  1  0
 12 35  1  0
 13 36  1  0
 13 37  1  0
 14 38  1  0
 14 39  1  0
 14 40  1  0
 15 41  1  1
 16 42  1  0
 18 43  1  0
 18 44  1  0
 18 45  1  0
 20 46  1  6
 21 47  1  0
 21 48  1  0
 22 49  1  0
 22 50  1  0
M  END
$$$$
