@<TRIPOS>MOLECULE
*****
 50 53 0 0 0
SMALL
GASTEIGER

@<TRIPOS>ATOM
      1 C           4.3125   -0.2560   -2.2558 C.ar    1  UNL1       -0.0617
      2 C           4.9074   -0.1109   -1.0234 C.ar    1  UNL1       -0.0612
      3 C           4.1814   -0.4550    0.0967 C.ar    1  UNL1       -0.0539
      4 C           2.8778   -0.9398    0.0188 C.ar    1  UNL1       -0.0144
      5 C           2.2392   -1.2606    1.2898 C.ar    1  UNL1        0.0238
      6 C           2.8808   -1.9610    2.2879 C.ar    1  UNL1       -0.0505
      7 C           2.2913   -2.2722    3.4945 C.ar    1  UNL1       -0.0610
      8 C           0.9857   -1.8354    3.6624 C.ar    1  UNL1       -0.0583
      9 C           0.3035   -1.1354    2.7007 C.ar    1  UNL1       -0.0193
     10 C           0.9285   -0.8435    1.5060 C.ar    1  UNL1        0.1291
     11 O           0.3456   -0.1538    0.4805 O.3     1  UNL1       -0.4833
     12 C          -0.9264    0.3875    0.3863 C.3     1  UNL1        0.1294
     13 C          -0.7349    1.8706    0.3970 C.ar    1  UNL1        0.0110
     14 C          -1.1337    2.6642   -0.6455 C.ar    1  UNL1       -0.0522
     15 C          -0.9684    4.0491   -0.6111 C.ar    1  UNL1       -0.0432
     16 C          -0.3838    4.5692    0.5246 C.ar    1  UNL1        0.0276
     17 N           0.0181    3.8085    1.5642 N.ar    1  UNL1       -0.2629
     18 C          -0.1582    2.4737    1.4954 C.ar    1  UNL1        0.0342
     19 C          -1.7930   -0.0329   -0.7259 C.3     1  UNL1        0.0027
     20 C          -2.0374   -1.5579   -0.7481 C.3     1  UNL1       -0.0339
     21 C          -2.7775   -1.7823   -2.0707 C.3     1  UNL1       -0.0037
     22 N          -4.1251   -1.2792   -1.8788 N.3     1  UNL1       -0.3159
     23 C          -4.1407    0.1402   -1.5697 C.3     1  UNL1       -0.0037
     24 C          -3.2139    0.4799   -0.4404 C.3     1  UNL1       -0.0339
     25 C           2.2976   -1.0802   -1.2003 C.ar    1  UNL1       -0.0539
     26 C           3.0234   -0.7347   -2.3447 C.ar    1  UNL1       -0.0612
     27 H           4.9100    0.0233   -3.1174 H       1  UNL1        0.0618
     28 H           5.9303    0.2691   -0.9571 H       1  UNL1        0.0618
     29 H           4.6848   -0.3267    1.0538 H       1  UNL1        0.0624
     30 H           3.9034   -2.2845    2.1149 H       1  UNL1        0.0625
     31 H           2.8324   -2.8246    4.2511 H       1  UNL1        0.0618
     32 H           0.5387   -2.0953    4.6307 H       1  UNL1        0.0619
     33 H          -0.7083   -0.8279    2.8997 H       1  UNL1        0.0654
     34 H          -1.4774    0.1738    1.3420 H       1  UNL1        0.0787
     35 H          -1.5637    2.2188   -1.5068 H       1  UNL1        0.0622
     36 H          -1.2945    4.6407   -1.4487 H       1  UNL1        0.0633
     37 H          -0.2628    5.6597    0.5319 H       1  UNL1        0.0829
     38 H           0.1734    1.8865    2.3439 H       1  UNL1        0.0833
     39 H          -1.4469    0.2016   -1.7407 H       1  UNL1        0.0341
     40 H          -2.7645   -1.8481    0.0394 H       1  UNL1        0.0281
     41 H          -1.1046   -2.1168   -0.7024 H       1  UNL1        0.0281
     42 H          -2.2716   -1.1292   -2.8292 H       1  UNL1        0.0424
     43 H          -2.8059   -2.8250   -2.3653 H       1  UNL1        0.0424
     44 H          -4.4903   -1.7611   -1.0031 H       1  UNL1        0.1219
     45 H          -5.1714    0.3734   -1.2321 H       1  UNL1        0.0424
     46 H          -3.8405    0.7546   -2.4453 H       1  UNL1        0.0424
     47 H          -3.5306   -0.1190    0.4650 H       1  UNL1        0.0281
     48 H          -3.2866    1.5089   -0.1526 H       1  UNL1        0.0281
     49 H           1.2878   -1.4563   -1.2518 H       1  UNL1        0.0624
     50 H           2.5590   -0.8477   -3.3107 H       1  UNL1        0.0618
@<TRIPOS>BOND
     1     1     2   ar
     2     2     3   ar
     3     3     4   ar
     4     4     5    1
     5     5     6   ar
     6     6     7   ar
     7     7     8   ar
     8     8     9   ar
     9     9    10   ar
    10    10    11    1
    11    11    12    1
    12    12    13    1
    13    13    14   ar
    14    14    15   ar
    15    15    16   ar
    16    16    17   ar
    17    17    18   ar
    18    12    19    1
    19    19    20    1
    20    20    21    1
    21    21    22    1
    22    22    23    1
    23    23    24    1
    24     4    25   ar
    25    25    26   ar
    26    26     1   ar
    27    10     5   ar
    28    18    13   ar
    29    24    19    1
    30     1    27    1
    31     2    28    1
    32     3    29    1
    33     6    30    1
    34     7    31    1
    35     8    32    1
    36     9    33    1
    37    12    34    1
    38    14    35    1
    39    15    36    1
    40    16    37    1
    41    18    38    1
    42    19    39    1
    43    20    40    1
    44    20    41    1
    45    21    42    1
    46    21    43    1
    47    22    44    1
    48    23    45    1
    49    23    46    1
    50    24    47    1
    51    24    48    1
    52    25    49    1
    53    26    50    1
