
     RDKit          3D

 63 69  0  0  0  0  0  0  0  0999 V2000
   -1.3590   -2.3718    0.2810 N   0  0  0  0  0  0  0  0  0  0  0  0
   -0.0483   -2.0087   -0.1236 C   0  0  0  0  0  0  0  0  0  0  0  0
    0.7563   -2.9183   -0.7480 N   0  0  0  0  0  0  0  0  0  0  0  0
    2.0082   -2.6262   -1.1196 C   0  0  0  0  0  0  0  0  0  0  0  0
    2.5150   -1.3543   -0.8639 C   0  0  0  0  0  0  0  0  0  0  0  0
    1.7631   -0.4443   -0.2600 N   0  0  0  0  0  0  0  0  0  0  0  0
    0.4924   -0.7571    0.1100 C   0  0  0  0  0  0  0  0  0  0  0  0
   -0.0259    0.3653    0.7057 C   0  0  0  0  0  0  0  0  0  0  0  0
   -1.3782    0.4798    1.2648 C   0  0  0  0  0  0  0  0  0  0  0  0
   -1.5454    0.8896    2.5829 C   0  0  0  0  0  0  0  0  0  0  0  0
   -2.8096    1.0425    3.1313 C   0  0  0  0  0  0  0  0  0  0  0  0
   -3.9224    0.7815    2.3504 C   0  0  0  0  0  0  0  0  0  0  0  0
   -5.2055    0.9133    2.8330 C   0  0  0  0  0  0  0  0  0  0  0  0
   -6.3024    0.6410    2.0158 C   0  0  0  0  0  0  0  0  0  0  0  0
   -6.1572    0.2348    0.7112 C   0  0  0  0  0  0  0  0  0  0  0  0
   -7.2632   -0.0664   -0.1907 C   0  0  0  0  0  0  0  0  0  0  0  0
   -7.0295   -0.4752   -1.5005 C   0  0  0  0  0  0  0  0  0  0  0  0
   -8.0418   -0.7667   -2.3867 C   0  0  0  0  0  0  0  0  0  0  0  0
   -9.3631   -0.6575   -1.9854 C   0  0  0  0  0  0  0  0  0  0  0  0
   -9.6100   -0.2544   -0.6940 C   0  0  0  0  0  0  0  0  0  0  0  0
   -8.5666    0.0389    0.1953 C   0  0  0  0  0  0  0  0  0  0  0  0
   -4.8726    0.1159    0.2679 N   0  0  0  0  0  0  0  0  0  0  0  0
   -3.8045    0.3729    1.0382 C   0  0  0  0  0  0  0  0  0  0  0  0
   -2.5103    0.2370    0.5397 C   0  0  0  0  0  0  0  0  0  0  0  0
    0.9342    1.2865    0.6744 N   0  0  0  0  0  0  0  0  0  0  0  0
    2.0567    0.8361    0.0881 C   0  0  0  0  0  0  0  0  0  0  0  0
    3.2866    1.5992   -0.1111 C   0  0  1  0  0  0  0  0  0  0  0  0
    4.5911    1.0324    0.3675 C   0  0  0  0  0  0  0  0  0  0  0  0
    5.2392    1.5484   -0.8611 C   0  0  1  0  0  0  0  0  0  0  0  0
    6.0485    0.6939   -1.7391 C   0  0  0  0  0  0  0  0  0  0  0  0
    7.1923    0.0511   -1.2930 N   0  0  0  0  0  0  0  0  0  0  0  0
    7.2288   -1.0183   -0.3824 C   0  0  0  0  0  0  0  0  0  0  0  0
    8.0254   -0.1145    0.5676 C   0  0  0  0  0  0  0  0  0  0  0  0
    8.2276    0.7844   -0.6325 C   0  0  0  0  0  0  0  0  0  0  0  0
    3.8418    1.7357   -1.4757 C   0  0  0  0  0  0  0  0  0  0  0  0
   -1.5783   -2.4559    1.2942 H   0  0  0  0  0  0  0  0  0  0  0  0
   -2.1235   -2.5613   -0.3976 H   0  0  0  0  0  0  0  0  0  0  0  0
    2.6238   -3.3633   -1.6125 H   0  0  0  0  0  0  0  0  0  0  0  0
    3.5202   -1.0980   -1.1543 H   0  0  0  0  0  0  0  0  0  0  0  0
   -0.7132    1.1067    3.2401 H   0  0  0  0  0  0  0  0  0  0  0  0
   -2.9562    1.3656    4.1718 H   0  0  0  0  0  0  0  0  0  0  0  0
   -5.3527    1.2315    3.8601 H   0  0  0  0  0  0  0  0  0  0  0  0
   -7.2910    0.7543    2.4272 H   0  0  0  0  0  0  0  0  0  0  0  0
   -5.9847   -0.5573   -1.8060 H   0  0  0  0  0  0  0  0  0  0  0  0
   -7.8250   -1.0827   -3.4009 H   0  0  0  0  0  0  0  0  0  0  0  0
  -10.1426   -0.8943   -2.7043 H   0  0  0  0  0  0  0  0  0  0  0  0
  -10.6363   -0.1667   -0.3763 H   0  0  0  0  0  0  0  0  0  0  0  0
   -8.8156    0.3539    1.2035 H   0  0  0  0  0  0  0  0  0  0  0  0
   -2.4422   -0.0581   -0.5010 H   0  0  0  0  0  0  0  0  0  0  0  0
    3.1719    2.6426    0.3126 H   0  0  0  0  0  0  0  0  0  0  0  0
    4.9629    1.5821    1.2950 H   0  0  0  0  0  0  0  0  0  0  0  0
    4.6118   -0.0209    0.6159 H   0  0  0  0  0  0  0  0  0  0  0  0
    5.6337    2.5817   -0.6732 H   0  0  0  0  0  0  0  0  0  0  0  0
    5.3637   -0.0610   -2.2122 H   0  0  0  0  0  0  0  0  0  0  0  0
    6.3478    1.3384   -2.6329 H   0  0  0  0  0  0  0  0  0  0  0  0
    6.3255   -1.4653    0.0192 H   0  0  0  0  0  0  0  0  0  0  0  0
    7.9006   -1.8377   -0.8023 H   0  0  0  0  0  0  0  0  0  0  0  0
    7.4428    0.3864    1.3385 H   0  0  0  0  0  0  0  0  0  0  0  0
    8.9517   -0.6303    0.9069 H   0  0  0  0  0  0  0  0  0  0  0  0
    9.2109    0.5504   -1.1081 H   0  0  0  0  0  0  0  0  0  0  0  0
    8.0875    1.8461   -0.4667 H   0  0  0  0  0  0  0  0  0  0  0  0
    3.7307    2.7577   -1.9495 H   0  0  0  0  0  0  0  0  0  0  0  0
    3.5841    1.0063   -2.2446 H   0  0  0  0  0  0  0  0  0  0  0  0
  1  2  1  0
  2  3  2  0
  3  4  1  0
  4  5  2  0
  5  6  1  0
  6  7  1  0
  7  8  2  0
  8  9  1  0
  9 10  2  0
 10 11  1  0
 11 12  2  0
 12 13  1  0
 13 14  2  0
 14 15  1  0
 15 16  1  0
 16 17  2  0
 17 18  1  0
 18 19  2  0
 19 20  1  0
 20 21  2  0
 15 22  2  0
 22 23  1  0
 23 24  2  0
  8 25  1  0
 25 26  2  0
 26 27  1  0
 27 28  1  0
 28 29  1  0
 29 30  1  0
 30 31  1  0
 31 32  1  0
 32 33  1  0
 33 34  1  0
 29 35  1  0
  7  2  1  0
 24  9  1  0
 35 27  1  0
 26  6  1  0
 34 31  1  0
 23 12  1  0
 21 16  1  0
  1 36  1  0
  1 37  1  0
  4 38  1  0
  5 39  1  0
 10 40  1  0
 11 41  1  0
 13 42  1  0
 14 43  1  0
 17 44  1  0
 18 45  1  0
 19 46  1  0
 20 47  1  0
 21 48  1  0
 24 49  1  0
 27 50  1  1
 28 51  1  0
 28 52  1  0
 29 53  1  1
 30 54  1  0
 30 55  1  0
 32 56  1  0
 32 57  1  0
 33 58  1  0
 33 59  1  0
 34 60  1  0
 34 61  1  0
 35 62  1  0
 35 63  1  0
M  END
$$$$
