@<TRIPOS>MOLECULE
*****
 63 69 0 0 0
SMALL
GASTEIGER

@<TRIPOS>ATOM
      1 N          -1.3590   -2.3718    0.2810 N.pl3   1  UNL1       -0.3414
      2 C          -0.0483   -2.0087   -0.1236 C.ar    1  UNL1        0.1424
      3 N           0.7563   -2.9183   -0.7480 N.ar    1  UNL1       -0.2371
      4 C           2.0082   -2.6262   -1.1196 C.ar    1  UNL1        0.0463
      5 C           2.5150   -1.3543   -0.8639 C.ar    1  UNL1        0.0297
      6 N           1.7631   -0.4443   -0.2600 N.ar    1  UNL1       -0.2982
      7 C           0.4924   -0.7571    0.1100 C.ar    1  UNL1        0.1135
      8 C          -0.0259    0.3653    0.7057 C.ar    1  UNL1        0.1002
      9 C          -1.3782    0.4798    1.2648 C.ar    1  UNL1        0.0046
     10 C          -1.5454    0.8896    2.5829 C.ar    1  UNL1       -0.0518
     11 C          -2.8096    1.0425    3.1313 C.ar    1  UNL1       -0.0519
     12 C          -3.9224    0.7815    2.3504 C.ar    1  UNL1        0.0005
     13 C          -5.2055    0.9133    2.8330 C.ar    1  UNL1       -0.0505
     14 C          -6.3024    0.6410    2.0158 C.ar    1  UNL1       -0.0351
     15 C          -6.1572    0.2348    0.7112 C.ar    1  UNL1        0.0717
     16 C          -7.2632   -0.0664   -0.1907 C.ar    1  UNL1        0.0004
     17 C          -7.0295   -0.4752   -1.5005 C.ar    1  UNL1       -0.0526
     18 C          -8.0418   -0.7667   -2.3867 C.ar    1  UNL1       -0.0611
     19 C          -9.3631   -0.6575   -1.9854 C.ar    1  UNL1       -0.0617
     20 C          -9.6100   -0.2544   -0.6940 C.ar    1  UNL1       -0.0611
     21 C          -8.5666    0.0389    0.1953 C.ar    1  UNL1       -0.0526
     22 N          -4.8726    0.1159    0.2679 N.ar    1  UNL1       -0.2467
     23 C          -3.8045    0.3729    1.0382 C.ar    1  UNL1        0.0723
     24 C          -2.5103    0.2370    0.5397 C.ar    1  UNL1       -0.0265
     25 N           0.9342    1.2865    0.6744 N.ar    1  UNL1       -0.2309
     26 C           2.0567    0.8361    0.0881 C.ar    1  UNL1        0.1181
     27 C           3.2866    1.5992   -0.1111 C.3     1  UNL1        0.0182
     28 C           4.5911    1.0324    0.3675 C.3     1  UNL1       -0.0393
     29 C           5.2392    1.5484   -0.8611 C.3     1  UNL1       -0.0270
     30 C           6.0485    0.6939   -1.7391 C.3     1  UNL1        0.0018
     31 N           7.1923    0.0511   -1.2930 N.3     1  UNL1       -0.3020
     32 C           7.2288   -1.0183   -0.3824 C.3     1  UNL1        0.0001
     33 C           8.0254   -0.1145    0.5676 C.3     1  UNL1       -0.0274
     34 C           8.2276    0.7844   -0.6325 C.3     1  UNL1        0.0001
     35 C           3.8418    1.7357   -1.4757 C.3     1  UNL1       -0.0393
     36 H          -1.5783   -2.4559    1.2942 H       1  UNL1        0.1438
     37 H          -2.1235   -2.5613   -0.3976 H       1  UNL1        0.1438
     38 H           2.6238   -3.3633   -1.6125 H       1  UNL1        0.0845
     39 H           3.5202   -1.0980   -1.1543 H       1  UNL1        0.0829
     40 H          -0.7132    1.1067    3.2401 H       1  UNL1        0.0624
     41 H          -2.9562    1.3656    4.1718 H       1  UNL1        0.0624
     42 H          -5.3527    1.2315    3.8601 H       1  UNL1        0.0625
     43 H          -7.2910    0.7543    2.4272 H       1  UNL1        0.0639
     44 H          -5.9847   -0.5573   -1.8060 H       1  UNL1        0.0624
     45 H          -7.8250   -1.0827   -3.4009 H       1  UNL1        0.0618
     46 H         -10.1426   -0.8943   -2.7043 H       1  UNL1        0.0618
     47 H         -10.6363   -0.1667   -0.3763 H       1  UNL1        0.0618
     48 H          -8.8156    0.3539    1.2035 H       1  UNL1        0.0624
     49 H          -2.4422   -0.0581   -0.5010 H       1  UNL1        0.0645
     50 H           3.1719    2.6426    0.3126 H       1  UNL1        0.0379
     51 H           4.9629    1.5821    1.2950 H       1  UNL1        0.0275
     52 H           4.6118   -0.0209    0.6159 H       1  UNL1        0.0275
     53 H           5.6337    2.5817   -0.6732 H       1  UNL1        0.0313
     54 H           5.3637   -0.0610   -2.2122 H       1  UNL1        0.0429
     55 H           6.3478    1.3384   -2.6329 H       1  UNL1        0.0429
     56 H           6.3255   -1.4653    0.0192 H       1  UNL1        0.0427
     57 H           7.9006   -1.8377   -0.8023 H       1  UNL1        0.0427
     58 H           7.4428    0.3864    1.3385 H       1  UNL1        0.0290
     59 H           8.9517   -0.6303    0.9069 H       1  UNL1        0.0290
     60 H           9.2109    0.5504   -1.1081 H       1  UNL1        0.0427
     61 H           8.0875    1.8461   -0.4667 H       1  UNL1        0.0427
     62 H           3.7307    2.7577   -1.9495 H       1  UNL1        0.0275
     63 H           3.5841    1.0063   -2.2446 H       1  UNL1        0.0275
@<TRIPOS>BOND
     1     1     2    1
     2     2     3   ar
     3     3     4   ar
     4     4     5   ar
     5     5     6   ar
     6     6     7   ar
     7     7     8   ar
     8     8     9    1
     9     9    10   ar
    10    10    11   ar
    11    11    12   ar
    12    12    13   ar
    13    13    14   ar
    14    14    15   ar
    15    15    16    1
    16    16    17   ar
    17    17    18   ar
    18    18    19   ar
    19    19    20   ar
    20    20    21   ar
    21    15    22   ar
    22    22    23   ar
    23    23    24   ar
    24     8    25   ar
    25    25    26   ar
    26    26    27    1
    27    27    28    1
    28    28    29    1
    29    29    30    1
    30    30    31    1
    31    31    32    1
    32    32    33    1
    33    33    34    1
    34    29    35    1
    35     7     2   ar
    36    24     9   ar
    37    35    27    1
    38    26     6   ar
    39    34    31    1
    40    23    12   ar
    41    21    16   ar
    42     1    36    1
    43     1    37    1
    44     4    38    1
    45     5    39    1
    46    10    40    1
    47    11    41    1
    48    13    42    1
    49    14    43    1
    50    17    44    1
    51    18    45    1
    52    19    46    1
    53    20    47    1
    54    21    48    1
    55    24    49    1
    56    27    50    1
    57    28    51    1
    58    28    52    1
    59    29    53    1
    60    30    54    1
    61    30    55    1
    62    32    56    1
    63    32    57    1
    64    33    58    1
    65    33    59    1
    66    34    60    1
    67    34    61    1
    68    35    62    1
    69    35    63    1
