
     RDKit          3D

 50 53  0  0  0  0  0  0  0  0999 V2000
    4.1611    2.2372   -0.2317 C   0  0  0  0  0  0  0  0  0  0  0  0
    5.0817    1.1449   -0.6355 C   0  0  0  0  0  0  0  0  0  0  0  0
    6.3655    1.5801   -1.0099 C   0  0  0  0  0  0  0  0  0  0  0  0
    7.2923    0.6705   -1.4542 C   0  0  0  0  0  0  0  0  0  0  0  0
    8.8959    1.1944   -1.9245 Cl  0  0  0  0  0  0  0  0  0  0  0  0
    6.9093   -0.6569   -1.5128 C   0  0  0  0  0  0  0  0  0  0  0  0
    5.6815   -1.0497   -1.1502 N   0  0  0  0  0  0  0  0  0  0  0  0
    4.7325   -0.1651   -0.7007 C   0  0  0  0  0  0  0  0  0  0  0  0
    3.4784   -0.6995   -0.2792 C   0  0  0  0  0  0  0  0  0  0  0  0
    3.0810   -1.8248   -0.8009 O   0  0  0  0  0  0  0  0  0  0  0  0
    2.5802   -0.1586    0.6643 N   0  0  0  0  0  0  0  0  0  0  0  0
    1.3424   -0.8357    0.9602 C   0  0  0  0  0  0  0  0  0  0  0  0
    1.3332   -1.7622    1.9731 C   0  0  0  0  0  0  0  0  0  0  0  0
    0.1714   -2.4536    2.3123 C   0  0  0  0  0  0  0  0  0  0  0  0
   -0.9847   -2.1929    1.6093 C   0  0  0  0  0  0  0  0  0  0  0  0
   -2.1570   -2.8496    1.9162 F   0  0  0  0  0  0  0  0  0  0  0  0
   -1.0024   -1.2604    0.5799 C   0  0  0  0  0  0  0  0  0  0  0  0
   -2.2882   -1.0436   -0.1377 C   0  0  1  0  0  0  0  0  0  0  0  0
   -2.6449   -2.3668   -0.7935 C   0  0  0  0  0  0  0  0  0  0  0  0
   -3.2228   -0.6211    0.8211 N   0  0  0  0  0  0  0  0  0  0  0  0
   -4.1396    0.2200    0.8478 C   0  0  0  0  0  0  0  0  0  0  0  0
   -4.9121    0.3712    2.0636 N   0  0  0  0  0  0  0  0  0  0  0  0
   -4.4460    1.0537   -0.3155 C   0  0  0  0  0  0  0  0  0  0  0  0
   -5.7627    1.6870   -0.3268 C   0  0  0  0  0  0  0  0  0  0  0  0
   -4.4844    2.5339   -0.2240 C   0  0  0  0  0  0  0  0  0  0  0  0
   -3.7571    0.3583   -1.7809 S   0  0  0  0  0  6  0  0  0  0  0  0
   -4.5222   -0.8757   -2.1424 O   0  0  0  0  0  0  0  0  0  0  0  0
   -3.7254    1.3619   -2.8959 O   0  0  0  0  0  0  0  0  0  0  0  0
   -2.0743   -0.0674   -1.2752 C   0  0  2  0  0  0  0  0  0  0  0  0
   -1.4867   -0.6585   -2.3446 F   0  0  0  0  0  0  0  0  0  0  0  0
    0.1729   -0.6060    0.2862 C   0  0  0  0  0  0  0  0  0  0  0  0
    3.1182    2.0582   -0.6006 H   0  0  0  0  0  0  0  0  0  0  0  0
    4.2393    2.4675    0.8416 H   0  0  0  0  0  0  0  0  0  0  0  0
    4.5349    3.1900   -0.7315 H   0  0  0  0  0  0  0  0  0  0  0  0
    6.6522    2.6203   -0.9595 H   0  0  0  0  0  0  0  0  0  0  0  0
    7.6641   -1.3514   -1.8690 H   0  0  0  0  0  0  0  0  0  0  0  0
    2.8247    0.7176    1.1706 H   0  0  0  0  0  0  0  0  0  0  0  0
    2.2156   -1.9940    2.5457 H   0  0  0  0  0  0  0  0  0  0  0  0
    0.1499   -3.1832    3.1046 H   0  0  0  0  0  0  0  0  0  0  0  0
   -2.3578   -2.3520   -1.8583 H   0  0  0  0  0  0  0  0  0  0  0  0
   -3.7246   -2.5993   -0.6762 H   0  0  0  0  0  0  0  0  0  0  0  0
   -2.0456   -3.1656   -0.3292 H   0  0  0  0  0  0  0  0  0  0  0  0
   -5.9260    0.1966    2.0220 H   0  0  0  0  0  0  0  0  0  0  0  0
   -4.4680    0.6455    2.9505 H   0  0  0  0  0  0  0  0  0  0  0  0
   -6.3168    1.7155   -1.2858 H   0  0  0  0  0  0  0  0  0  0  0  0
   -6.3587    1.6890    0.6029 H   0  0  0  0  0  0  0  0  0  0  0  0
   -4.2555    3.0106    0.7469 H   0  0  0  0  0  0  0  0  0  0  0  0
   -4.1853    3.0880   -1.1359 H   0  0  0  0  0  0  0  0  0  0  0  0
   -1.6068    0.8724   -0.9936 H   0  0  0  0  0  0  0  0  0  0  0  0
    0.1769    0.1090   -0.5005 H   0  0  0  0  0  0  0  0  0  0  0  0
  1  2  1  0
  2  3  2  0
  3  4  1  0
  4  5  1  0
  4  6  2  0
  6  7  1  0
  7  8  2  0
  8  9  1  0
  9 10  2  0
  9 11  1  0
 11 12  1  0
 12 13  2  0
 13 14  1  0
 14 15  2  0
 15 16  1  0
 15 17  1  0
 17 18  1  0
 18 19  1  6
 18 20  1  0
 20 21  2  0
 21 22  1  0
 21 23  1  0
 23 24  1  0
 24 25  1  0
 23 26  1  0
 26 27  2  0
 26 28  2  0
 26 29  1  0
 29 30  1  0
 17 31  2  0
  8  2  1  0
 31 12  1  0
 29 18  1  0
 25 23  1  0
  1 32  1  0
  1 33  1  0
  1 34  1  0
  3 35  1  0
  6 36  1  0
 11 37  1  0
 13 38  1  0
 14 39  1  0
 19 40  1  0
 19 41  1  0
 19 42  1  0
 22 43  1  0
 22 44  1  0
 24 45  1  0
 24 46  1  0
 25 47  1  0
 25 48  1  0
 29 49  1  1
 31 50  1  0
M  END
$$$$
