@<TRIPOS>MOLECULE
*****
 50 53 0 0 0
SMALL
GASTEIGER

@<TRIPOS>ATOM
      1 C           4.1611    2.2372   -0.2317 C.3     1  UNL1       -0.0375
      2 C           5.0817    1.1449   -0.6355 C.ar    1  UNL1       -0.0186
      3 C           6.3655    1.5801   -1.0099 C.ar    1  UNL1       -0.0368
      4 C           7.2923    0.6705   -1.4542 C.ar    1  UNL1        0.0593
      5 CL          8.8959    1.1944   -1.9245 Cl      1  UNL1       -0.0820
      6 C           6.9093   -0.6569   -1.5128 C.ar    1  UNL1        0.0467
      7 N           5.6815   -1.0497   -1.1502 N.ar    1  UNL1       -0.2486
      8 C           4.7325   -0.1651   -0.7007 C.ar    1  UNL1        0.1286
      9 C           3.4784   -0.6995   -0.2792 C.2     1  UNL1        0.2668
     10 O           3.0810   -1.8248   -0.8009 O.2     1  UNL1       -0.2682
     11 N           2.5802   -0.1586    0.6643 N.am    1  UNL1       -0.2802
     12 C           1.3424   -0.8357    0.9602 C.ar    1  UNL1        0.0343
     13 C           1.3332   -1.7622    1.9731 C.ar    1  UNL1       -0.0377
     14 C           0.1714   -2.4536    2.3123 C.ar    1  UNL1       -0.0243
     15 C          -0.9847   -2.1929    1.6093 C.ar    1  UNL1        0.1312
     16 F          -2.1570   -2.8496    1.9162 F       1  UNL1       -0.2050
     17 C          -1.0024   -1.2604    0.5799 C.ar    1  UNL1        0.0450
     18 C          -2.2882   -1.0436   -0.1377 C.3     1  UNL1        0.2272
     19 C          -2.6449   -2.3668   -0.7935 C.3     1  UNL1       -0.0082
     20 N          -3.2228   -0.6211    0.8211 N.2     1  UNL1       -0.0696
     21 C          -4.1396    0.2200    0.8478 C.2     1  UNL1        0.3075
     22 N          -4.9121    0.3712    2.0636 N.pl3   1  UNL1       -0.2488
     23 C          -4.4460    1.0537   -0.3155 C.3     1  UNL1        0.1919
     24 C          -5.7627    1.6870   -0.3268 C.3     1  UNL1       -0.0138
     25 C          -4.4844    2.5339   -0.2240 C.3     1  UNL1       -0.0138
     26 S          -3.7571    0.3583   -1.7809 S.O2    1  UNL1        0.0220
     27 O          -4.5222   -0.8757   -2.1424 O.2     1  UNL1       -0.1703
     28 O          -3.7254    1.3619   -2.8959 O.2     1  UNL1       -0.1703
     29 C          -2.0743   -0.0674   -1.2752 C.3     1  UNL1        0.2674
     30 F          -1.4867   -0.6585   -2.3446 F       1  UNL1       -0.2156
     31 C           0.1729   -0.6060    0.2862 C.ar    1  UNL1       -0.0300
     32 H           3.1182    2.0582   -0.6006 H       1  UNL1        0.0278
     33 H           4.2393    2.4675    0.8416 H       1  UNL1        0.0278
     34 H           4.5349    3.1900   -0.7315 H       1  UNL1        0.0278
     35 H           6.6522    2.6203   -0.9595 H       1  UNL1        0.0636
     36 H           7.6641   -1.3514   -1.8690 H       1  UNL1        0.0844
     37 H           2.8247    0.7176    1.1706 H       1  UNL1        0.1552
     38 H           2.2156   -1.9940    2.5457 H       1  UNL1        0.0637
     39 H           0.1499   -3.1832    3.1046 H       1  UNL1        0.0647
     40 H          -2.3578   -2.3520   -1.8583 H       1  UNL1        0.0280
     41 H          -3.7246   -2.5993   -0.6762 H       1  UNL1        0.0280
     42 H          -2.0456   -3.1656   -0.3292 H       1  UNL1        0.0280
     43 H          -5.9260    0.1966    2.0220 H       1  UNL1        0.2881
     44 H          -4.4680    0.6455    2.9505 H       1  UNL1        0.2881
     45 H          -6.3168    1.7155   -1.2858 H       1  UNL1        0.0293
     46 H          -6.3587    1.6890    0.6029 H       1  UNL1        0.0293
     47 H          -4.2555    3.0106    0.7469 H       1  UNL1        0.0293
     48 H          -4.1853    3.0880   -1.1359 H       1  UNL1        0.0293
     49 H          -1.6068    0.8724   -0.9936 H       1  UNL1        0.0951
     50 H           0.1769    0.1090   -0.5005 H       1  UNL1        0.0641
@<TRIPOS>BOND
     1     1     2    1
     2     2     3   ar
     3     3     4   ar
     4     4     5    1
     5     4     6   ar
     6     6     7   ar
     7     7     8   ar
     8     8     9    1
     9     9    10    2
    10     9    11   am
    11    11    12    1
    12    12    13   ar
    13    13    14   ar
    14    14    15   ar
    15    15    16    1
    16    15    17   ar
    17    17    18    1
    18    18    19    1
    19    18    20    1
    20    20    21    2
    21    21    22    1
    22    21    23    1
    23    23    24    1
    24    24    25    1
    25    23    26    1
    26    26    27    2
    27    26    28    2
    28    26    29    1
    29    29    30    1
    30    17    31   ar
    31     8     2   ar
    32    31    12   ar
    33    29    18    1
    34    25    23    1
    35     1    32    1
    36     1    33    1
    37     1    34    1
    38     3    35    1
    39     6    36    1
    40    11    37    1
    41    13    38    1
    42    14    39    1
    43    19    40    1
    44    19    41    1
    45    19    42    1
    46    22    43    1
    47    22    44    1
    48    24    45    1
    49    24    46    1
    50    25    47    1
    51    25    48    1
    52    29    49    1
    53    31    50    1
