@<TRIPOS>MOLECULE
*****
 43 45 0 0 0
SMALL
GASTEIGER

@<TRIPOS>ATOM
      1 CL         10.4888    0.3826    1.9962 Cl      1  UNL1       -0.0758
      2 C           9.0801   -0.5291    1.7486 C.ar    1  UNL1        0.0787
      3 C           8.4076   -1.7802    1.6655 C.ar    1  UNL1       -0.0355
      4 C           7.0870   -1.8693    1.3986 C.ar    1  UNL1       -0.0411
      5 C           6.3490   -0.6085    1.1953 C.ar    1  UNL1        0.0752
      6 S           7.6478    0.6715    1.4062 S.2     1  UNL1       -0.0722
      7 C           4.9410   -0.6222    0.9467 C.2     1  UNL1        0.2508
      8 O           4.3013   -1.6801    0.8459 O.2     1  UNL1       -0.2696
      9 N           4.3712    0.6966    0.8305 N.am    1  UNL1       -0.3094
     10 C           2.9294    0.8175    0.5582 C.3     1  UNL1        0.0275
     11 C           2.6096    0.1592   -0.7601 C.3     1  UNL1        0.0275
     12 N           1.1579    0.3153   -0.9672 N.am    1  UNL1       -0.3099
     13 C           0.1915   -0.2185   -0.0762 C.2     1  UNL1        0.2441
     14 O           0.5504   -0.8702    0.9647 O.2     1  UNL1       -0.2702
     15 C          -1.2470   -0.0420   -0.3198 C.ar    1  UNL1        0.0368
     16 C          -1.7801    0.6417   -1.3952 C.ar    1  UNL1       -0.0477
     17 C          -3.1452    0.7606   -1.5621 C.ar    1  UNL1       -0.0370
     18 C          -4.0405    0.2059   -0.6686 C.ar    1  UNL1        0.0495
     19 C          -3.5262   -0.4803    0.4121 C.ar    1  UNL1       -0.0370
     20 C          -2.1546   -0.6039    0.5860 C.ar    1  UNL1       -0.0477
     21 N          -5.4214    0.3998   -0.9631 N.ar    1  UNL1       -0.2842
     22 C          -6.1320   -0.7286   -1.1457 C.ar    1  UNL1        0.0132
     23 C          -7.4778   -0.7528   -1.4426 C.ar    1  UNL1       -0.0449
     24 C          -8.0906    0.4818   -1.5484 C.ar    1  UNL1       -0.0552
     25 C          -7.3815    1.6600   -1.3649 C.ar    1  UNL1        0.0033
     26 C          -6.0301    1.5905   -1.0691 C.ar    1  UNL1        0.2557
     27 O          -5.3355    2.6301   -0.8905 O.2     1  UNL1       -0.2673
     28 H           9.2708   -2.3525    1.9283 H       1  UNL1        0.0638
     29 H           6.7527   -2.8908    1.3731 H       1  UNL1        0.0631
     30 H           4.9532    1.5767    0.9345 H       1  UNL1        0.1491
     31 H           2.6895    1.9016    0.5460 H       1  UNL1        0.0477
     32 H           2.4396    0.3672    1.4316 H       1  UNL1        0.0477
     33 H           3.1753    0.5751   -1.5922 H       1  UNL1        0.0477
     34 H           2.7378   -0.9394   -0.6432 H       1  UNL1        0.0477
     35 H           0.8760    0.8561   -1.8302 H       1  UNL1        0.1491
     36 H          -1.1137    1.0832   -2.1044 H       1  UNL1        0.0626
     37 H          -3.4755    1.3198   -2.4445 H       1  UNL1        0.0638
     38 H          -4.2433   -0.9062    1.0987 H       1  UNL1        0.0638
     39 H          -1.7824   -1.1549    1.4564 H       1  UNL1        0.0626
     40 H          -5.6561   -1.7197   -1.0635 H       1  UNL1        0.0814
     41 H          -8.0634   -1.6417   -1.5923 H       1  UNL1        0.0632
     42 H          -9.1172    0.6421   -1.7714 H       1  UNL1        0.0620
     43 H          -7.7935    2.6561   -1.4321 H       1  UNL1        0.0672
@<TRIPOS>BOND
     1     1     2    1
     2     2     3   ar
     3     3     4   ar
     4     4     5   ar
     5     5     6   ar
     6     5     7    1
     7     7     8    2
     8     7     9   am
     9     9    10    1
    10    10    11    1
    11    11    12    1
    12    12    13   am
    13    13    14    2
    14    13    15    1
    15    15    16   ar
    16    16    17   ar
    17    17    18   ar
    18    18    19   ar
    19    19    20   ar
    20    18    21    1
    21    21    22   ar
    22    22    23   ar
    23    23    24   ar
    24    24    25   ar
    25    25    26   ar
    26    26    27    2
    27     6     2   ar
    28    20    15   ar
    29    26    21   ar
    30     3    28    1
    31     4    29    1
    32     9    30    1
    33    10    31    1
    34    10    32    1
    35    11    33    1
    36    11    34    1
    37    12    35    1
    38    16    36    1
    39    17    37    1
    40    19    38    1
    41    20    39    1
    42    22    40    1
    43    23    41    1
    44    24    42    1
    45    25    43    1
