
     RDKit          3D

 43 45  0  0  0  0  0  0  0  0999 V2000
   10.4888    0.3826    1.9962 Cl  0  0  0  0  0  0  0  0  0  0  0  0
    9.0801   -0.5291    1.7486 C   0  0  0  0  0  0  0  0  0  0  0  0
    8.4076   -1.7802    1.6655 C   0  0  0  0  0  0  0  0  0  0  0  0
    7.0870   -1.8693    1.3986 C   0  0  0  0  0  0  0  0  0  0  0  0
    6.3490   -0.6085    1.1953 C   0  0  0  0  0  0  0  0  0  0  0  0
    7.6478    0.6715    1.4062 S   0  0  0  0  0  0  0  0  0  0  0  0
    4.9410   -0.6222    0.9467 C   0  0  0  0  0  0  0  0  0  0  0  0
    4.3013   -1.6801    0.8459 O   0  0  0  0  0  0  0  0  0  0  0  0
    4.3712    0.6966    0.8305 N   0  0  0  0  0  0  0  0  0  0  0  0
    2.9294    0.8175    0.5582 C   0  0  0  0  0  0  0  0  0  0  0  0
    2.6096    0.1592   -0.7601 C   0  0  0  0  0  0  0  0  0  0  0  0
    1.1579    0.3153   -0.9672 N   0  0  0  0  0  0  0  0  0  0  0  0
    0.1915   -0.2185   -0.0762 C   0  0  0  0  0  0  0  0  0  0  0  0
    0.5504   -0.8702    0.9647 O   0  0  0  0  0  0  0  0  0  0  0  0
   -1.2470   -0.0420   -0.3198 C   0  0  0  0  0  0  0  0  0  0  0  0
   -1.7801    0.6417   -1.3952 C   0  0  0  0  0  0  0  0  0  0  0  0
   -3.1452    0.7606   -1.5621 C   0  0  0  0  0  0  0  0  0  0  0  0
   -4.0405    0.2059   -0.6686 C   0  0  0  0  0  0  0  0  0  0  0  0
   -3.5262   -0.4803    0.4121 C   0  0  0  0  0  0  0  0  0  0  0  0
   -2.1546   -0.6039    0.5860 C   0  0  0  0  0  0  0  0  0  0  0  0
   -5.4214    0.3998   -0.9631 N   0  0  0  0  0  0  0  0  0  0  0  0
   -6.1320   -0.7286   -1.1457 C   0  0  0  0  0  0  0  0  0  0  0  0
   -7.4778   -0.7528   -1.4426 C   0  0  0  0  0  0  0  0  0  0  0  0
   -8.0906    0.4818   -1.5484 C   0  0  0  0  0  0  0  0  0  0  0  0
   -7.3815    1.6600   -1.3649 C   0  0  0  0  0  0  0  0  0  0  0  0
   -6.0301    1.5905   -1.0691 C   0  0  0  0  0  0  0  0  0  0  0  0
   -5.3355    2.6301   -0.8905 O   0  0  0  0  0  0  0  0  0  0  0  0
    9.2708   -2.3525    1.9283 H   0  0  0  0  0  0  0  0  0  0  0  0
    6.7527   -2.8908    1.3731 H   0  0  0  0  0  0  0  0  0  0  0  0
    4.9532    1.5767    0.9345 H   0  0  0  0  0  0  0  0  0  0  0  0
    2.6895    1.9016    0.5460 H   0  0  0  0  0  0  0  0  0  0  0  0
    2.4396    0.3672    1.4316 H   0  0  0  0  0  0  0  0  0  0  0  0
    3.1753    0.5751   -1.5922 H   0  0  0  0  0  0  0  0  0  0  0  0
    2.7378   -0.9394   -0.6432 H   0  0  0  0  0  0  0  0  0  0  0  0
    0.8760    0.8561   -1.8302 H   0  0  0  0  0  0  0  0  0  0  0  0
   -1.1137    1.0832   -2.1044 H   0  0  0  0  0  0  0  0  0  0  0  0
   -3.4755    1.3198   -2.4445 H   0  0  0  0  0  0  0  0  0  0  0  0
   -4.2433   -0.9062    1.0987 H   0  0  0  0  0  0  0  0  0  0  0  0
   -1.7824   -1.1549    1.4564 H   0  0  0  0  0  0  0  0  0  0  0  0
   -5.6561   -1.7197   -1.0635 H   0  0  0  0  0  0  0  0  0  0  0  0
   -8.0634   -1.6417   -1.5923 H   0  0  0  0  0  0  0  0  0  0  0  0
   -9.1172    0.6421   -1.7714 H   0  0  0  0  0  0  0  0  0  0  0  0
   -7.7935    2.6561   -1.4321 H   0  0  0  0  0  0  0  0  0  0  0  0
  1  2  1  0
  2  3  2  0
  3  4  1  0
  4  5  2  0
  5  6  1  0
  5  7  1  0
  7  8  2  0
  7  9  1  0
  9 10  1  0
 10 11  1  0
 11 12  1  0
 12 13  1  0
 13 14  2  0
 13 15  1  0
 15 16  2  0
 16 17  1  0
 17 18  2  0
 18 19  1  0
 19 20  2  0
 18 21  1  0
 21 22  1  0
 22 23  2  0
 23 24  1  0
 24 25  2  0
 25 26  1  0
 26 27  2  0
  6  2  1  0
 20 15  1  0
 26 21  1  0
  3 28  1  0
  4 29  1  0
  9 30  1  0
 10 31  1  0
 10 32  1  0
 11 33  1  0
 11 34  1  0
 12 35  1  0
 16 36  1  0
 17 37  1  0
 19 38  1  0
 20 39  1  0
 22 40  1  0
 23 41  1  0
 24 42  1  0
 25 43  1  0
M  END
$$$$
