
     RDKit          3D

 68 70  0  0  0  0  0  0  0  0999 V2000
   -3.2925    3.9050    0.3109 C   0  0  0  0  0  0  0  0  0  0  0  0
   -2.6189    2.5577    0.4563 C   0  0  0  0  0  0  0  0  0  0  0  0
   -3.6965    1.4905    0.3307 C   0  0  0  0  0  0  0  0  0  0  0  0
   -4.3350    1.6319   -1.0186 C   0  0  0  0  0  0  0  0  0  0  0  0
   -4.7362    1.8037    1.3853 C   0  0  0  0  0  0  0  0  0  0  0  0
   -3.1399    0.1355    0.5740 C   0  0  0  0  0  0  0  0  0  0  0  0
   -3.5914   -0.5699    1.5165 O   0  0  0  0  0  0  0  0  0  0  0  0
   -2.1312   -0.4148   -0.1886 O   0  0  0  0  0  0  0  0  0  0  0  0
   -1.5792   -1.6744   -0.0003 C   0  0  1  0  0  0  0  0  0  0  0  0
   -2.1468   -2.5367   -1.1420 C   0  0  0  0  0  0  0  0  0  0  0  0
   -2.0956   -3.9633   -0.5585 C   0  0  1  0  0  0  0  0  0  0  0  0
   -2.5981   -4.8803   -1.6452 C   0  0  0  0  0  0  0  0  0  0  0  0
   -0.6297   -4.1779   -0.3548 C   0  0  0  0  0  0  0  0  0  0  0  0
    0.2282   -3.2695    0.0184 C   0  0  0  0  0  0  0  0  0  0  0  0
    1.6374   -3.6462    0.1700 C   0  0  0  0  0  0  0  0  0  0  0  0
    2.5391   -2.7329    0.3499 C   0  0  0  0  0  0  0  0  0  0  0  0
    2.1479   -1.3012    0.4042 C   0  0  2  0  0  0  0  0  0  0  0  0
    1.9439   -1.0314    1.9011 C   0  0  0  0  0  0  0  0  0  0  0  0
    0.8808   -0.9978   -0.3589 C   0  0  2  0  0  0  0  0  0  0  0  0
    0.6448    0.4309   -0.4952 C   0  0  0  0  0  0  0  0  0  0  0  0
    1.5830    1.2659   -1.2363 C   0  0  0  0  0  0  0  0  0  0  0  0
    2.9818    1.5061   -0.9485 C   0  0  2  0  0  0  0  0  0  0  0  0
    3.3523    2.1030    0.3729 C   0  0  0  0  0  0  0  0  0  0  0  0
    4.8688    2.0763    0.4922 C   0  0  1  0  0  0  0  0  0  0  0  0
    5.2359    0.7557    0.7360 O   0  0  0  0  0  0  0  0  0  0  0  0
    5.5599    2.6755   -0.6841 C   0  0  0  0  0  0  0  0  0  0  0  0
    4.6204    3.2057   -1.7022 C   0  0  0  0  0  0  0  0  0  0  0  0
    4.9693    4.2025   -2.3625 O   0  0  0  0  0  0  0  0  0  0  0  0
    3.4170    2.5947   -1.8842 O   0  0  0  0  0  0  0  0  0  0  0  0
   -0.1787   -1.8404    0.2901 C   0  0  1  0  0  0  0  0  0  0  0  0
   -3.8126    4.1996    1.2500 H   0  0  0  0  0  0  0  0  0  0  0  0
   -4.0611    3.8246   -0.4868 H   0  0  0  0  0  0  0  0  0  0  0  0
   -2.5727    4.6905   -0.0149 H   0  0  0  0  0  0  0  0  0  0  0  0
   -1.9436    2.4296   -0.4321 H   0  0  0  0  0  0  0  0  0  0  0  0
   -2.0561    2.4747    1.3932 H   0  0  0  0  0  0  0  0  0  0  0  0
   -5.2597    2.2522   -0.9966 H   0  0  0  0  0  0  0  0  0  0  0  0
   -3.6236    1.9812   -1.8040 H   0  0  0  0  0  0  0  0  0  0  0  0
   -4.6867    0.6053   -1.3231 H   0  0  0  0  0  0  0  0  0  0  0  0
   -5.1173    0.8337    1.8029 H   0  0  0  0  0  0  0  0  0  0  0  0
   -4.2819    2.3596    2.2385 H   0  0  0  0  0  0  0  0  0  0  0  0
   -5.6186    2.3228    0.9679 H   0  0  0  0  0  0  0  0  0  0  0  0
   -2.1567   -2.0984    0.9032 H   0  0  0  0  0  0  0  0  0  0  0  0
   -1.5206   -2.5018   -2.0316 H   0  0  0  0  0  0  0  0  0  0  0  0
   -3.1961   -2.2422   -1.2906 H   0  0  0  0  0  0  0  0  0  0  0  0
   -2.6733   -4.0420    0.3628 H   0  0  0  0  0  0  0  0  0  0  0  0
   -1.7985   -5.1143   -2.3824 H   0  0  0  0  0  0  0  0  0  0  0  0
   -3.4414   -4.3849   -2.1884 H   0  0  0  0  0  0  0  0  0  0  0  0
   -3.0246   -5.8248   -1.2335 H   0  0  0  0  0  0  0  0  0  0  0  0
   -0.2509   -5.2037   -0.5401 H   0  0  0  0  0  0  0  0  0  0  0  0
    1.9434   -4.7039    0.1328 H   0  0  0  0  0  0  0  0  0  0  0  0
    3.5768   -2.9981    0.4630 H   0  0  0  0  0  0  0  0  0  0  0  0
    3.0193   -0.7302    0.1234 H   0  0  0  0  0  0  0  0  0  0  0  0
    2.9098   -0.6632    2.3479 H   0  0  0  0  0  0  0  0  0  0  0  0
    1.1986   -0.2798    2.1197 H   0  0  0  0  0  0  0  0  0  0  0  0
    1.7107   -1.9542    2.4617 H   0  0  0  0  0  0  0  0  0  0  0  0
    1.0547   -1.4090   -1.4031 H   0  0  0  0  0  0  0  0  0  0  0  0
   -0.3585    0.5835   -1.0662 H   0  0  0  0  0  0  0  0  0  0  0  0
    0.3220    0.9169    0.4943 H   0  0  0  0  0  0  0  0  0  0  0  0
    1.1155    2.3212   -1.4186 H   0  0  0  0  0  0  0  0  0  0  0  0
    1.5532    0.9214   -2.3487 H   0  0  0  0  0  0  0  0  0  0  0  0
    3.7259    0.7494   -1.2301 H   0  0  0  0  0  0  0  0  0  0  0  0
    3.0416    3.1867    0.4161 H   0  0  0  0  0  0  0  0  0  0  0  0
    2.9854    1.5522    1.2592 H   0  0  0  0  0  0  0  0  0  0  0  0
    5.1520    2.6372    1.4298 H   0  0  0  0  0  0  0  0  0  0  0  0
    5.8313    0.3804    0.0400 H   0  0  0  0  0  0  0  0  0  0  0  0
    6.1968    1.9117   -1.2207 H   0  0  0  0  0  0  0  0  0  0  0  0
    6.2678    3.4591   -0.3437 H   0  0  0  0  0  0  0  0  0  0  0  0
    0.0091   -1.7470    1.4082 H   0  0  0  0  0  0  0  0  0  0  0  0
  1  2  1  0
  2  3  1  0
  3  4  1  0
  3  5  1  0
  3  6  1  0
  6  7  2  0
  6  8  1  0
  8  9  1  0
  9 10  1  0
 10 11  1  0
 11 12  1  0
 11 13  1  0
 13 14  2  0
 14 15  1  0
 15 16  2  0
 16 17  1  0
 17 18  1  0
 17 19  1  0
 19 20  1  0
 20 21  1  0
 21 22  1  0
 22 23  1  0
 23 24  1  0
 24 25  1  0
 24 26  1  0
 26 27  1  0
 27 28  2  0
 27 29  1  0
 19 30  1  0
 30  9  1  0
 30 14  1  0
 29 22  1  0
  1 31  1  0
  1 32  1  0
  1 33  1  0
  2 34  1  0
  2 35  1  0
  4 36  1  0
  4 37  1  0
  4 38  1  0
  5 39  1  0
  5 40  1  0
  5 41  1  0
  9 42  1  1
 10 43  1  0
 10 44  1  0
 11 45  1  1
 12 46  1  0
 12 47  1  0
 12 48  1  0
 13 49  1  0
 15 50  1  0
 16 51  1  0
 17 52  1  6
 18 53  1  0
 18 54  1  0
 18 55  1  0
 19 56  1  6
 20 57  1  0
 20 58  1  0
 21 59  1  0
 21 60  1  0
 22 61  1  6
 23 62  1  0
 23 63  1  0
 24 64  1  1
 25 65  1  0
 26 66  1  0
 26 67  1  0
 30 68  1  1
M  END
$$$$
