@<TRIPOS>MOLECULE
*****
 68 70 0 0 0
SMALL
GASTEIGER

@<TRIPOS>ATOM
      1 C          -3.2925    3.9050    0.3109 C.3     1  UNL1       -0.0643
      2 C          -2.6189    2.5577    0.4563 C.3     1  UNL1       -0.0406
      3 C          -3.6965    1.4905    0.3307 C.3     1  UNL1        0.0619
      4 C          -4.3350    1.6319   -1.0186 C.3     1  UNL1       -0.0497
      5 C          -4.7362    1.8037    1.3853 C.3     1  UNL1       -0.0497
      6 C          -3.1399    0.1355    0.5740 C.2     1  UNL1        0.3130
      7 O          -3.5914   -0.5699    1.5165 O.2     1  UNL1       -0.2502
      8 O          -2.1312   -0.4148   -0.1886 O.3     1  UNL1       -0.4603
      9 C          -1.5792   -1.6744   -0.0003 C.3     1  UNL1        0.1106
     10 C          -2.1468   -2.5367   -1.1420 C.3     1  UNL1       -0.0090
     11 C          -2.0956   -3.9633   -0.5585 C.3     1  UNL1       -0.0218
     12 C          -2.5981   -4.8803   -1.6452 C.3     1  UNL1       -0.0588
     13 C          -0.6297   -4.1779   -0.3548 C.2     1  UNL1       -0.0775
     14 C           0.2282   -3.2695    0.0184 C.2     1  UNL1       -0.0444
     15 C           1.6374   -3.6462    0.1700 C.2     1  UNL1       -0.0621
     16 C           2.5391   -2.7329    0.3499 C.2     1  UNL1       -0.0806
     17 C           2.1479   -1.3012    0.4042 C.3     1  UNL1       -0.0219
     18 C           1.9439   -1.0314    1.9011 C.3     1  UNL1       -0.0587
     19 C           0.8808   -0.9978   -0.3589 C.3     1  UNL1       -0.0247
     20 C           0.6448    0.4309   -0.4952 C.3     1  UNL1       -0.0457
     21 C           1.5830    1.2659   -1.2363 C.3     1  UNL1       -0.0153
     22 C           2.9818    1.5061   -0.9485 C.3     1  UNL1        0.1054
     23 C           3.3523    2.1030    0.3729 C.3     1  UNL1        0.0109
     24 C           4.8688    2.0763    0.4922 C.3     1  UNL1        0.0686
     25 O           5.2359    0.7557    0.7360 O.3     1  UNL1       -0.3911
     26 C           5.5599    2.6755   -0.6841 C.3     1  UNL1        0.0710
     27 C           4.6204    3.2057   -1.7022 C.2     1  UNL1        0.3098
     28 O           4.9693    4.2025   -2.3625 O.2     1  UNL1       -0.2507
     29 O           3.4170    2.5947   -1.8842 O.3     1  UNL1       -0.4612
     30 C          -0.1787   -1.8404    0.2901 C.3     1  UNL1        0.0243
     31 H          -3.8126    4.1996    1.2500 H       1  UNL1        0.0230
     32 H          -4.0611    3.8246   -0.4868 H       1  UNL1        0.0230
     33 H          -2.5727    4.6905   -0.0149 H       1  UNL1        0.0230
     34 H          -1.9436    2.4296   -0.4321 H       1  UNL1        0.0273
     35 H          -2.0561    2.4747    1.3932 H       1  UNL1        0.0273
     36 H          -5.2597    2.2522   -0.9966 H       1  UNL1        0.0240
     37 H          -3.6236    1.9812   -1.8040 H       1  UNL1        0.0240
     38 H          -4.6867    0.6053   -1.3231 H       1  UNL1        0.0240
     39 H          -5.1173    0.8337    1.8029 H       1  UNL1        0.0240
     40 H          -4.2819    2.3596    2.2385 H       1  UNL1        0.0240
     41 H          -5.6186    2.3228    0.9679 H       1  UNL1        0.0240
     42 H          -2.1567   -2.0984    0.9032 H       1  UNL1        0.0740
     43 H          -1.5206   -2.5018   -2.0316 H       1  UNL1        0.0307
     44 H          -3.1961   -2.2422   -1.2906 H       1  UNL1        0.0307
     45 H          -2.6733   -4.0420    0.3628 H       1  UNL1        0.0342
     46 H          -1.7985   -5.1143   -2.3824 H       1  UNL1        0.0235
     47 H          -3.4414   -4.3849   -2.1884 H       1  UNL1        0.0235
     48 H          -3.0246   -5.8248   -1.2335 H       1  UNL1        0.0235
     49 H          -0.2509   -5.2037   -0.5401 H       1  UNL1        0.0578
     50 H           1.9434   -4.7039    0.1328 H       1  UNL1        0.0617
     51 H           3.5768   -2.9981    0.4630 H       1  UNL1        0.0575
     52 H           3.0193   -0.7302    0.1234 H       1  UNL1        0.0343
     53 H           2.9098   -0.6632    2.3479 H       1  UNL1        0.0235
     54 H           1.1986   -0.2798    2.1197 H       1  UNL1        0.0235
     55 H           1.7107   -1.9542    2.4617 H       1  UNL1        0.0235
     56 H           1.0547   -1.4090   -1.4031 H       1  UNL1        0.0313
     57 H          -0.3585    0.5835   -1.0662 H       1  UNL1        0.0269
     58 H           0.3220    0.9169    0.4943 H       1  UNL1        0.0269
     59 H           1.1155    2.3212   -1.4186 H       1  UNL1        0.0301
     60 H           1.5532    0.9214   -2.3487 H       1  UNL1        0.0301
     61 H           3.7259    0.7494   -1.2301 H       1  UNL1        0.0734
     62 H           3.0416    3.1867    0.4161 H       1  UNL1        0.0326
     63 H           2.9854    1.5522    1.2592 H       1  UNL1        0.0326
     64 H           5.1520    2.6372    1.4298 H       1  UNL1        0.0600
     65 H           5.8313    0.3804    0.0400 H       1  UNL1        0.2098
     66 H           6.1968    1.9117   -1.2207 H       1  UNL1        0.0403
     67 H           6.2678    3.4591   -0.3437 H       1  UNL1        0.0403
     68 H           0.0091   -1.7470    1.4082 H       1  UNL1        0.0388
@<TRIPOS>BOND
     1     1     2    1
     2     2     3    1
     3     3     4    1
     4     3     5    1
     5     3     6    1
     6     6     7    2
     7     6     8    1
     8     8     9    1
     9     9    10    1
    10    10    11    1
    11    11    12    1
    12    11    13    1
    13    13    14    2
    14    14    15    1
    15    15    16    2
    16    16    17    1
    17    17    18    1
    18    17    19    1
    19    19    20    1
    20    20    21    1
    21    21    22    1
    22    22    23    1
    23    23    24    1
    24    24    25    1
    25    24    26    1
    26    26    27    1
    27    27    28    2
    28    27    29    1
    29    19    30    1
    30    30     9    1
    31    30    14    1
    32    29    22    1
    33     1    31    1
    34     1    32    1
    35     1    33    1
    36     2    34    1
    37     2    35    1
    38     4    36    1
    39     4    37    1
    40     4    38    1
    41     5    39    1
    42     5    40    1
    43     5    41    1
    44     9    42    1
    45    10    43    1
    46    10    44    1
    47    11    45    1
    48    12    46    1
    49    12    47    1
    50    12    48    1
    51    13    49    1
    52    15    50    1
    53    16    51    1
    54    17    52    1
    55    18    53    1
    56    18    54    1
    57    18    55    1
    58    19    56    1
    59    20    57    1
    60    20    58    1
    61    21    59    1
    62    21    60    1
    63    22    61    1
    64    23    62    1
    65    23    63    1
    66    24    64    1
    67    25    65    1
    68    26    66    1
    69    26    67    1
    70    30    68    1
