
     RDKit          3D

144147  0  0  0  0  0  0  0  0999 V2000
    5.6103    0.0503    0.4502 C   0  0  2  0  0  0  0  0  0  0  0  0
    4.4699   -0.2093   -0.4353 C   0  0  0  0  0  0  0  0  0  0  0  0
    3.9679    0.8781   -1.3299 C   0  0  1  0  0  0  0  0  0  0  0  0
    4.9231    1.3983   -2.3301 C   0  0  0  0  0  0  0  0  0  0  0  0
    2.7019    0.3575   -2.0247 C   0  0  2  0  0  0  0  0  0  0  0  0
    2.1064    1.3742   -2.8892 C   0  0  0  0  0  0  0  0  0  0  0  0
    1.7388    2.6801   -2.2467 C   0  0  0  0  0  0  0  0  0  0  0  0
    1.6985    2.9012   -1.0327 O   0  0  0  0  0  0  0  0  0  0  0  0
    1.3870    3.8411   -3.1555 C   0  0  2  0  0  0  0  0  0  0  0  0
    2.6820    4.1336   -3.9188 C   0  0  0  0  0  0  0  0  0  0  0  0
    1.0203    5.0095   -2.3342 C   0  0  0  0  0  0  0  0  0  0  0  0
   -0.0474    5.8342   -2.3986 C   0  0  0  0  0  0  0  0  0  0  0  0
   -0.9089    5.3658   -3.5321 C   0  0  0  0  0  0  0  0  0  0  0  0
   -0.2573    7.0116   -1.5292 C   0  0  1  0  0  0  0  0  0  0  0  0
    0.0590    8.2017   -2.1809 O   0  0  0  0  0  0  0  0  0  0  0  0
   -1.6091    7.1019   -0.8826 C   0  0  1  0  0  0  0  0  0  0  0  0
   -2.5528    7.3812   -1.8772 O   0  0  0  0  0  0  0  0  0  0  0  0
   -3.0832    8.6570   -1.7410 C   0  0  0  0  0  0  0  0  0  0  0  0
   -1.9715    6.0132    0.0139 C   0  0  0  0  0  0  0  0  0  0  0  0
   -1.0670    5.8429    0.8422 O   0  0  0  0  0  0  0  0  0  0  0  0
   -3.1761    5.1268    0.0913 C   0  0  2  0  0  0  0  0  0  0  0  0
   -3.3700    4.3924   -1.2205 C   0  0  0  0  0  0  0  0  0  0  0  0
   -4.4023    5.8556    0.5623 C   0  0  0  0  0  0  0  0  0  0  0  0
   -5.5445    4.8727    0.6768 C   0  0  2  0  0  0  0  0  0  0  0  0
   -6.7655    5.6049    1.1796 C   0  0  0  0  0  0  0  0  0  0  0  0
   -5.1571    3.7903    1.6113 C   0  0  0  0  0  0  0  0  0  0  0  0
   -5.0977    2.5819    1.1732 C   0  0  0  0  0  0  0  0  0  0  0  0
   -4.7574    1.3845    1.8503 C   0  0  0  0  0  0  0  0  0  0  0  0
   -4.6184    0.1264    1.6821 C   0  0  0  0  0  0  0  0  0  0  0  0
   -4.3099   -1.1822    2.1757 C   0  0  0  0  0  0  0  0  0  0  0  0
   -4.2839   -2.3542    1.5373 C   0  0  0  0  0  0  0  0  0  0  0  0
   -4.6536   -1.9981    0.1487 C   0  0  0  0  0  0  0  0  0  0  0  0
   -3.8645   -3.4382    2.4512 C   0  0  2  0  0  0  0  0  0  0  0  0
   -4.7092   -4.6874    2.3794 C   0  0  0  0  0  0  0  0  0  0  0  0
   -4.5750   -5.3726    1.0392 C   0  0  2  0  0  0  0  0  0  0  0  0
   -4.7781   -6.8619    1.1576 C   0  0  0  0  0  0  0  0  0  0  0  0
   -3.5403   -7.6429    1.4578 C   0  0  0  0  0  0  0  0  0  0  0  0
   -2.2978   -7.0472    0.8632 C   0  0  1  0  0  0  0  0  0  0  0  0
   -1.2866   -8.0218    0.3783 C   0  0  0  0  0  0  0  0  0  0  0  0
   -2.7270   -6.0391   -0.1915 C   0  0  1  0  0  0  0  0  0  0  0  0
   -3.6381   -6.6568   -1.0499 O   0  0  0  0  0  0  0  0  0  0  0  0
   -3.3420   -5.0242    0.4926 O   0  0  0  0  0  0  0  0  0  0  0  0
   -1.5571   -5.6132   -0.9554 C   0  0  0  0  0  0  0  0  0  0  0  0
   -1.3623   -6.3561   -1.9819 O   0  0  0  0  0  0  0  0  0  0  0  0
   -0.7815   -4.4821   -0.5145 C   0  0  0  0  0  0  0  0  0  0  0  0
   -0.9545   -3.6825    0.3980 O   0  0  0  0  0  0  0  0  0  0  0  0
    0.4098   -3.7788   -0.8189 N   0  0  0  0  0  0  0  0  0  0  0  0
    1.1476   -4.4120   -1.8592 C   0  0  0  0  0  0  0  0  0  0  0  0
    2.5047   -4.8453   -1.3475 C   0  0  0  0  0  0  0  0  0  0  0  0
    3.0983   -3.9980   -0.2890 C   0  0  0  0  0  0  0  0  0  0  0  0
    2.1599   -3.2739    0.6148 C   0  0  0  0  0  0  0  0  0  0  0  0
    1.0891   -2.6076   -0.2954 C   0  0  1  0  0  0  0  0  0  0  0  0
    1.8575   -1.8067   -1.2426 C   0  0  0  0  0  0  0  0  0  0  0  0
    2.5155   -2.2521   -2.2001 O   0  0  0  0  0  0  0  0  0  0  0  0
    1.9384   -0.3928   -1.1503 O   0  0  0  0  0  0  0  0  0  0  0  0
   -3.8345   -3.0351    3.8054 O   0  0  0  0  0  0  0  0  0  0  0  0
   -2.5778   -3.1629    4.3647 C   0  0  0  0  0  0  0  0  0  0  0  0
    6.8859    0.3942   -0.2151 C   0  0  0  0  0  0  0  0  0  0  0  0
    8.0785   -0.3670    0.3565 C   0  0  0  0  0  0  0  0  0  0  0  0
    8.1279   -0.3337    1.8702 C   0  0  1  0  0  0  0  0  0  0  0  0
    8.5627    0.8832    2.3783 O   0  0  0  0  0  0  0  0  0  0  0  0
    6.8024   -0.7827    2.4544 C   0  0  1  0  0  0  0  0  0  0  0  0
    5.8556   -1.1935    1.3343 C   0  0  0  0  0  0  0  0  0  0  0  0
    7.0304   -1.8017    3.3637 O   0  0  0  0  0  0  0  0  0  0  0  0
    6.6333   -1.4247    4.6571 C   0  0  0  0  0  0  0  0  0  0  0  0
    5.3478    0.8352    1.2506 H   0  0  0  0  0  0  0  0  0  0  0  0
    4.7005   -1.1180   -1.0555 H   0  0  0  0  0  0  0  0  0  0  0  0
    3.6034   -0.5380    0.2065 H   0  0  0  0  0  0  0  0  0  0  0  0
    3.6461    1.7178   -0.6709 H   0  0  0  0  0  0  0  0  0  0  0  0
    5.3041    0.5558   -2.9626 H   0  0  0  0  0  0  0  0  0  0  0  0
    5.7402    2.0322   -1.9218 H   0  0  0  0  0  0  0  0  0  0  0  0
    4.4086    2.0647   -3.0402 H   0  0  0  0  0  0  0  0  0  0  0  0
    3.1526   -0.4142   -2.7532 H   0  0  0  0  0  0  0  0  0  0  0  0
    2.7481    1.5988   -3.7548 H   0  0  0  0  0  0  0  0  0  0  0  0
    1.1563    0.9846   -3.4009 H   0  0  0  0  0  0  0  0  0  0  0  0
    0.6489    3.4829   -3.8624 H   0  0  0  0  0  0  0  0  0  0  0  0
    3.5541    4.2353   -3.2524 H   0  0  0  0  0  0  0  0  0  0  0  0
    2.5989    5.1040   -4.4645 H   0  0  0  0  0  0  0  0  0  0  0  0
    2.9071    3.3786   -4.6845 H   0  0  0  0  0  0  0  0  0  0  0  0
    1.8097    5.1473   -1.5740 H   0  0  0  0  0  0  0  0  0  0  0  0
   -0.3476    5.3851   -4.4932 H   0  0  0  0  0  0  0  0  0  0  0  0
   -1.2576    4.3285   -3.4199 H   0  0  0  0  0  0  0  0  0  0  0  0
   -1.7985    6.0085   -3.6768 H   0  0  0  0  0  0  0  0  0  0  0  0
    0.5491    6.9273   -0.7272 H   0  0  0  0  0  0  0  0  0  0  0  0
    0.9340    8.5471   -1.9620 H   0  0  0  0  0  0  0  0  0  0  0  0
   -1.5800    8.0465   -0.2671 H   0  0  0  0  0  0  0  0  0  0  0  0
   -2.2972    9.4472   -1.7994 H   0  0  0  0  0  0  0  0  0  0  0  0
   -3.5277    8.7244   -0.7280 H   0  0  0  0  0  0  0  0  0  0  0  0
   -3.9087    8.8536   -2.4594 H   0  0  0  0  0  0  0  0  0  0  0  0
   -3.0045    4.3157    0.8569 H   0  0  0  0  0  0  0  0  0  0  0  0
   -2.4157    3.8117   -1.4087 H   0  0  0  0  0  0  0  0  0  0  0  0
   -4.2406    3.7540   -1.2753 H   0  0  0  0  0  0  0  0  0  0  0  0
   -3.3573    5.1923   -2.0189 H   0  0  0  0  0  0  0  0  0  0  0  0
   -4.7227    6.6411   -0.1715 H   0  0  0  0  0  0  0  0  0  0  0  0
   -4.1840    6.2604    1.5601 H   0  0  0  0  0  0  0  0  0  0  0  0
   -5.8374    4.4681   -0.3178 H   0  0  0  0  0  0  0  0  0  0  0  0
   -6.5300    6.1853    2.1168 H   0  0  0  0  0  0  0  0  0  0  0  0
   -7.0952    6.3613    0.4337 H   0  0  0  0  0  0  0  0  0  0  0  0
   -7.6491    4.9402    1.3090 H   0  0  0  0  0  0  0  0  0  0  0  0
   -4.9453    4.0872    2.6317 H   0  0  0  0  0  0  0  0  0  0  0  0
   -5.2726    2.1530    0.2082 H   0  0  0  0  0  0  0  0  0  0  0  0
   -4.5384    1.6740    2.8938 H   0  0  0  0  0  0  0  0  0  0  0  0
   -4.8663    0.0449    0.6365 H   0  0  0  0  0  0  0  0  0  0  0  0
   -4.1415   -0.7724    3.1584 H   0  0  0  0  0  0  0  0  0  0  0  0
   -4.6216   -2.9274   -0.4653 H   0  0  0  0  0  0  0  0  0  0  0  0
   -5.7014   -1.6490    0.0518 H   0  0  0  0  0  0  0  0  0  0  0  0
   -3.9036   -1.3360   -0.3450 H   0  0  0  0  0  0  0  0  0  0  0  0
   -2.8170   -3.7284    2.2496 H   0  0  0  0  0  0  0  0  0  0  0  0
   -5.7900   -4.4536    2.5800 H   0  0  0  0  0  0  0  0  0  0  0  0
   -4.3596   -5.4064    3.1444 H   0  0  0  0  0  0  0  0  0  0  0  0
   -5.3648   -4.9793    0.3797 H   0  0  0  0  0  0  0  0  0  0  0  0
   -5.4548   -6.9866    2.0578 H   0  0  0  0  0  0  0  0  0  0  0  0
   -5.3824   -7.2374    0.3173 H   0  0  0  0  0  0  0  0  0  0  0  0
   -3.6614   -8.6680    1.0570 H   0  0  0  0  0  0  0  0  0  0  0  0
   -3.3966   -7.7795    2.5745 H   0  0  0  0  0  0  0  0  0  0  0  0
   -1.8206   -6.4089    1.6649 H   0  0  0  0  0  0  0  0  0  0  0  0
   -0.2573   -7.6477    0.6498 H   0  0  0  0  0  0  0  0  0  0  0  0
   -1.3878   -8.9520    0.9846 H   0  0  0  0  0  0  0  0  0  0  0  0
   -1.3347   -8.2873   -0.6878 H   0  0  0  0  0  0  0  0  0  0  0  0
   -3.1959   -7.4079   -1.5453 H   0  0  0  0  0  0  0  0  0  0  0  0
    1.1755   -3.8783   -2.8311 H   0  0  0  0  0  0  0  0  0  0  0  0
    0.6445   -5.3867   -2.1347 H   0  0  0  0  0  0  0  0  0  0  0  0
    2.4576   -5.9250   -1.0053 H   0  0  0  0  0  0  0  0  0  0  0  0
    3.1897   -4.8829   -2.2260 H   0  0  0  0  0  0  0  0  0  0  0  0
    3.9000   -3.3083   -0.6676 H   0  0  0  0  0  0  0  0  0  0  0  0
    3.6864   -4.6965    0.3880 H   0  0  0  0  0  0  0  0  0  0  0  0
    1.6160   -4.0246    1.2561 H   0  0  0  0  0  0  0  0  0  0  0  0
    2.6860   -2.5026    1.1719 H   0  0  0  0  0  0  0  0  0  0  0  0
    0.4195   -1.9837    0.3345 H   0  0  0  0  0  0  0  0  0  0  0  0
   -2.6222   -2.8126    5.4304 H   0  0  0  0  0  0  0  0  0  0  0  0
   -2.2187   -4.2047    4.3793 H   0  0  0  0  0  0  0  0  0  0  0  0
   -1.8992   -2.4549    3.8606 H   0  0  0  0  0  0  0  0  0  0  0  0
    6.8459    0.0823   -1.2761 H   0  0  0  0  0  0  0  0  0  0  0  0
    7.1377    1.4785   -0.1836 H   0  0  0  0  0  0  0  0  0  0  0  0
    8.1293   -1.4099   -0.0175 H   0  0  0  0  0  0  0  0  0  0  0  0
    8.9872    0.1371   -0.0296 H   0  0  0  0  0  0  0  0  0  0  0  0
    8.8849   -1.1004    2.1544 H   0  0  0  0  0  0  0  0  0  0  0  0
    9.5411    0.8261    2.5192 H   0  0  0  0  0  0  0  0  0  0  0  0
    6.3725    0.0771    2.9953 H   0  0  0  0  0  0  0  0  0  0  0  0
    4.9134   -1.5551    1.7750 H   0  0  0  0  0  0  0  0  0  0  0  0
    6.3416   -1.9881    0.7488 H   0  0  0  0  0  0  0  0  0  0  0  0
    5.5312   -1.2029    4.5532 H   0  0  0  0  0  0  0  0  0  0  0  0
    6.7169   -2.2758    5.3487 H   0  0  0  0  0  0  0  0  0  0  0  0
    7.1190   -0.5126    5.0074 H   0  0  0  0  0  0  0  0  0  0  0  0
  1  2  1  0
  2  3  1  0
  3  4  1  0
  3  5  1  0
  5  6  1  0
  6  7  1  0
  7  8  2  0
  7  9  1  0
  9 10  1  0
  9 11  1  0
 11 12  2  0
 12 13  1  0
 12 14  1  0
 14 15  1  0
 14 16  1  0
 16 17  1  0
 17 18  1  0
 16 19  1  0
 19 20  2  0
 19 21  1  0
 21 22  1  0
 21 23  1  0
 23 24  1  0
 24 25  1  0
 24 26  1  0
 26 27  2  0
 27 28  1  0
 28 29  2  0
 29 30  1  0
 30 31  2  0
 31 32  1  0
 31 33  1  0
 33 34  1  0
 34 35  1  0
 35 36  1  0
 36 37  1  0
 37 38  1  0
 38 39  1  0
 38 40  1  0
 40 41  1  6
 40 42  1  0
 40 43  1  0
 43 44  2  0
 43 45  1  0
 45 46  2  0
 45 47  1  0
 47 48  1  0
 48 49  1  0
 49 50  1  0
 50 51  1  0
 51 52  1  0
 52 53  1  0
 53 54  2  0
 53 55  1  0
 33 56  1  0
 56 57  1  0
  1 58  1  0
 58 59  1  0
 59 60  1  0
 60 61  1  0
 60 62  1  0
 62 63  1  0
 62 64  1  0
 64 65  1  0
 63  1  1  0
 55  5  1  0
 42 35  1  0
 52 47  1  0
  1 66  1  1
  2 67  1  0
  2 68  1  0
  3 69  1  1
  4 70  1  0
  4 71  1  0
  4 72  1  0
  5 73  1  6
  6 74  1  0
  6 75  1  0
  9 76  1  6
 10 77  1  0
 10 78  1  0
 10 79  1  0
 11 80  1  0
 13 81  1  0
 13 82  1  0
 13 83  1  0
 14 84  1  1
 15 85  1  0
 16 86  1  1
 18 87  1  0
 18 88  1  0
 18 89  1  0
 21 90  1  1
 22 91  1  0
 22 92  1  0
 22 93  1  0
 23 94  1  0
 23 95  1  0
 24 96  1  6
 25 97  1  0
 25 98  1  0
 25 99  1  0
 26100  1  0
 27101  1  0
 28102  1  0
 29103  1  0
 30104  1  0
 32105  1  0
 32106  1  0
 32107  1  0
 33108  1  6
 34109  1  0
 34110  1  0
 35111  1  6
 36112  1  0
 36113  1  0
 37114  1  0
 37115  1  0
 38116  1  1
 39117  1  0
 39118  1  0
 39119  1  0
 41120  1  0
 48121  1  0
 48122  1  0
 49123  1  0
 49124  1  0
 50125  1  0
 50126  1  0
 51127  1  0
 51128  1  0
 52129  1  1
 57130  1  0
 57131  1  0
 57132  1  0
 58133  1  0
 58134  1  0
 59135  1  0
 59136  1  0
 60137  1  1
 61138  1  0
 62139  1  1
 63140  1  0
 63141  1  0
 65142  1  0
 65143  1  0
 65144  1  0
M  END
$$$$
