@<TRIPOS>MOLECULE
*****
 19 19 0 0 0
SMALL
GASTEIGER

@<TRIPOS>ATOM
      1 O           2.4490    0.4042   -0.5266 O.3     1  UNL1       -0.3918
      2 C           1.2544    0.3080    0.1998 C.3     1  UNL1        0.0553
      3 C           0.7571   -1.1042    0.0648 C.3     1  UNL1       -0.0269
      4 C          -0.5876   -1.1922    0.7515 C.3     1  UNL1       -0.0507
      5 C          -1.5137   -0.3430   -0.1167 C.3     1  UNL1       -0.0529
      6 C          -1.0849    1.0882    0.1787 C.3     1  UNL1       -0.0507
      7 C           0.2817    1.2373   -0.4767 C.3     1  UNL1       -0.0269
      8 H           2.2793    0.0022   -1.4224 H       1  UNL1        0.2098
      9 H           1.4266    0.5490    1.2628 H       1  UNL1        0.0593
     10 H           0.5706   -1.3214   -1.0125 H       1  UNL1        0.0290
     11 H           1.4463   -1.8506    0.4741 H       1  UNL1        0.0290
     12 H          -0.4914   -0.7068    1.7561 H       1  UNL1        0.0266
     13 H          -0.9571   -2.2188    0.8760 H       1  UNL1        0.0266
     14 H          -1.2922   -0.4886   -1.2048 H       1  UNL1        0.0265
     15 H          -2.5734   -0.5268    0.0921 H       1  UNL1        0.0265
     16 H          -0.9562    1.1878    1.2858 H       1  UNL1        0.0266
     17 H          -1.8025    1.8367   -0.1723 H       1  UNL1        0.0266
     18 H           0.1804    0.8555   -1.5186 H       1  UNL1        0.0290
     19 H           0.6137    2.2833   -0.4911 H       1  UNL1        0.0290
@<TRIPOS>BOND
     1     1     2    1
     2     2     3    1
     3     3     4    1
     4     4     5    1
     5     5     6    1
     6     6     7    1
     7     7     2    1
     8     1     8    1
     9     2     9    1
    10     3    10    1
    11     3    11    1
    12     4    12    1
    13     4    13    1
    14     5    14    1
    15     5    15    1
    16     6    16    1
    17     6    17    1
    18     7    18    1
    19     7    19    1
