
     RDKit          3D

 19 19  0  0  0  0  0  0  0  0999 V2000
    2.4490    0.4042   -0.5266 O   0  0  0  0  0  0  0  0  0  0  0  0
    1.2544    0.3080    0.1998 C   0  0  0  0  0  0  0  0  0  0  0  0
    0.7571   -1.1042    0.0648 C   0  0  0  0  0  0  0  0  0  0  0  0
   -0.5876   -1.1922    0.7515 C   0  0  0  0  0  0  0  0  0  0  0  0
   -1.5137   -0.3430   -0.1167 C   0  0  0  0  0  0  0  0  0  0  0  0
   -1.0849    1.0882    0.1787 C   0  0  0  0  0  0  0  0  0  0  0  0
    0.2817    1.2373   -0.4767 C   0  0  0  0  0  0  0  0  0  0  0  0
    2.2793    0.0022   -1.4224 H   0  0  0  0  0  0  0  0  0  0  0  0
    1.4266    0.5490    1.2628 H   0  0  0  0  0  0  0  0  0  0  0  0
    0.5706   -1.3214   -1.0125 H   0  0  0  0  0  0  0  0  0  0  0  0
    1.4463   -1.8506    0.4741 H   0  0  0  0  0  0  0  0  0  0  0  0
   -0.4914   -0.7068    1.7561 H   0  0  0  0  0  0  0  0  0  0  0  0
   -0.9571   -2.2188    0.8760 H   0  0  0  0  0  0  0  0  0  0  0  0
   -1.2922   -0.4886   -1.2048 H   0  0  0  0  0  0  0  0  0  0  0  0
   -2.5734   -0.5268    0.0921 H   0  0  0  0  0  0  0  0  0  0  0  0
   -0.9562    1.1878    1.2858 H   0  0  0  0  0  0  0  0  0  0  0  0
   -1.8025    1.8367   -0.1723 H   0  0  0  0  0  0  0  0  0  0  0  0
    0.1804    0.8555   -1.5186 H   0  0  0  0  0  0  0  0  0  0  0  0
    0.6137    2.2833   -0.4911 H   0  0  0  0  0  0  0  0  0  0  0  0
  1  2  1  0
  2  3  1  0
  3  4  1  0
  4  5  1  0
  5  6  1  0
  6  7  1  0
  7  2  1  0
  1  8  1  0
  2  9  1  0
  3 10  1  0
  3 11  1  0
  4 12  1  0
  4 13  1  0
  5 14  1  0
  5 15  1  0
  6 16  1  0
  6 17  1  0
  7 18  1  0
  7 19  1  0
M  END
$$$$
