@<TRIPOS>MOLECULE
*****
 57 59 0 0 0
SMALL
GASTEIGER

@<TRIPOS>ATOM
      1 C           1.5639    2.1415   -2.0328 C.3     1  UNL1       -0.0425
      2 C           2.1244    0.8225   -1.5950 C.3     1  UNL1        0.0456
      3 N           1.1069   -0.1414   -1.2590 N.am    1  UNL1       -0.3075
      4 C           0.9201   -1.3509   -1.9480 C.2     1  UNL1        0.2307
      5 O           1.6820   -1.6073   -2.9062 O.2     1  UNL1       -0.2741
      6 C          -0.1210   -2.3631   -1.6274 C.3     1  UNL1        0.0873
      7 C           0.5071   -3.6850   -1.2375 C.3     1  UNL1       -0.0288
      8 C          -0.5622   -4.7452   -1.1297 C.3     1  UNL1       -0.0500
      9 C          -1.8990   -4.2110   -0.7383 C.3     1  UNL1       -0.0401
     10 C          -1.6807   -2.9692    0.1219 C.3     1  UNL1       -0.0003
     11 N          -0.9963   -1.9443   -0.5869 N.3     1  UNL1       -0.2883
     12 C          -1.9126   -0.9178   -1.0172 C.3     1  UNL1        0.0338
     13 C          -2.4667   -0.0936    0.1389 C.3     1  UNL1        0.1023
     14 O          -3.3464    0.8838   -0.3912 O.3     1  UNL1       -0.4907
     15 C          -4.0121    1.7930    0.4242 C.ar    1  UNL1        0.1206
     16 C          -4.8602    2.7332   -0.1204 C.ar    1  UNL1       -0.0199
     17 C          -5.5330    3.6465    0.6687 C.ar    1  UNL1       -0.0583
     18 C          -5.3804    3.6529    2.0500 C.ar    1  UNL1       -0.0615
     19 C          -4.5301    2.7086    2.5834 C.ar    1  UNL1       -0.0583
     20 C          -3.8547    1.7924    1.7935 C.ar    1  UNL1       -0.0199
     21 C           3.1410    0.9812   -0.5132 C.ar    1  UNL1       -0.0274
     22 C           3.5806    2.2226   -0.0891 C.ar    1  UNL1       -0.0560
     23 C           4.5198    2.3590    0.9104 C.ar    1  UNL1       -0.0475
     24 C           5.0676    1.2573    1.5372 C.ar    1  UNL1        0.0589
     25 C           6.0685    1.4070    2.6019 C.2     1  UNL1        0.3368
     26 O           6.5808    0.4244    3.1834 O.2     1  UNL1       -0.2451
     27 O           6.4431    2.6893    2.9581 O.3     1  UNL1       -0.4771
     28 C           4.6367    0.0173    1.1220 C.ar    1  UNL1       -0.0475
     29 C           3.6992   -0.1076    0.1240 C.ar    1  UNL1       -0.0560
     30 H           0.8310    1.9479   -2.8367 H       1  UNL1        0.0251
     31 H           1.1812    2.7626   -1.2043 H       1  UNL1        0.0251
     32 H           2.3966    2.7167   -2.5000 H       1  UNL1        0.0251
     33 H           2.6848    0.3953   -2.4721 H       1  UNL1        0.0545
     34 H           0.4913    0.0836   -0.4612 H       1  UNL1        0.1493
     35 H          -0.7073   -2.5320   -2.5512 H       1  UNL1        0.0558
     36 H           0.9629   -3.5355   -0.2203 H       1  UNL1        0.0285
     37 H           1.2543   -4.0311   -1.9674 H       1  UNL1        0.0285
     38 H          -0.6227   -5.2716   -2.1278 H       1  UNL1        0.0266
     39 H          -0.2177   -5.5685   -0.4345 H       1  UNL1        0.0266
     40 H          -2.5050   -4.9221   -0.1539 H       1  UNL1        0.0278
     41 H          -2.4552   -3.9641   -1.6766 H       1  UNL1        0.0278
     42 H          -1.1383   -3.3335    1.0286 H       1  UNL1        0.0427
     43 H          -2.6992   -2.6685    0.4426 H       1  UNL1        0.0427
     44 H          -2.7770   -1.4043   -1.5672 H       1  UNL1        0.0460
     45 H          -1.4793   -0.2167   -1.7561 H       1  UNL1        0.0460
     46 H          -3.0371   -0.7365    0.8323 H       1  UNL1        0.0709
     47 H          -1.6187    0.3438    0.6949 H       1  UNL1        0.0709
     48 H          -4.9768    2.7237   -1.2118 H       1  UNL1        0.0654
     49 H          -6.1990    4.3829    0.2215 H       1  UNL1        0.0619
     50 H          -5.9153    4.3756    2.6539 H       1  UNL1        0.0618
     51 H          -4.4042    2.7081    3.6715 H       1  UNL1        0.0619
     52 H          -3.1883    1.0559    2.2426 H       1  UNL1        0.0654
     53 H           3.1676    3.1189   -0.5634 H       1  UNL1        0.0621
     54 H           4.8706    3.3387    1.2475 H       1  UNL1        0.0626
     55 H           7.2286    2.7794    3.5930 H       1  UNL1        0.2954
     56 H           5.0424   -0.8610    1.5864 H       1  UNL1        0.0626
     57 H           3.3435   -1.0839   -0.2213 H       1  UNL1        0.0621
@<TRIPOS>BOND
     1     1     2    1
     2     2     3    1
     3     3     4   am
     4     4     5    2
     5     4     6    1
     6     6     7    1
     7     7     8    1
     8     8     9    1
     9     9    10    1
    10    10    11    1
    11    11    12    1
    12    12    13    1
    13    13    14    1
    14    14    15    1
    15    15    16   ar
    16    16    17   ar
    17    17    18   ar
    18    18    19   ar
    19    19    20   ar
    20     2    21    1
    21    21    22   ar
    22    22    23   ar
    23    23    24   ar
    24    24    25    1
    25    25    26    2
    26    25    27    1
    27    24    28   ar
    28    28    29   ar
    29    11     6    1
    30    20    15   ar
    31    29    21   ar
    32     1    30    1
    33     1    31    1
    34     1    32    1
    35     2    33    1
    36     3    34    1
    37     6    35    1
    38     7    36    1
    39     7    37    1
    40     8    38    1
    41     8    39    1
    42     9    40    1
    43     9    41    1
    44    10    42    1
    45    10    43    1
    46    12    44    1
    47    12    45    1
    48    13    46    1
    49    13    47    1
    50    16    48    1
    51    17    49    1
    52    18    50    1
    53    19    51    1
    54    20    52    1
    55    22    53    1
    56    23    54    1
    57    27    55    1
    58    28    56    1
    59    29    57    1
