@<TRIPOS>MOLECULE
*****
 44 45 0 0 0
SMALL
GASTEIGER

@<TRIPOS>ATOM
      1 C          -1.2066    0.6649    1.5879 C.3     1  UNL1       -0.0619
      2 C          -0.7006    0.3903    0.1973 C.3     1  UNL1       -0.0370
      3 C          -1.6054   -0.6385   -0.4263 C.3     1  UNL1       -0.0247
      4 C          -2.9986   -0.2297   -0.5294 C.ar    1  UNL1       -0.0434
      5 C          -3.4989    0.4363   -1.6425 C.ar    1  UNL1       -0.0549
      6 C          -4.8299    0.8043   -1.6950 C.ar    1  UNL1       -0.0163
      7 C          -5.6948    0.5264   -0.6577 C.ar    1  UNL1        0.1582
      8 O          -7.0460    0.9024   -0.7160 O.3     1  UNL1       -0.5033
      9 C          -5.1976   -0.1306    0.4384 C.ar    1  UNL1        0.1585
     10 O          -6.0562   -0.4271    1.5108 O.3     1  UNL1       -0.5033
     11 C          -3.8614   -0.5096    0.5109 C.ar    1  UNL1       -0.0133
     12 C           0.7222   -0.1056    0.1782 C.3     1  UNL1       -0.0370
     13 C           0.9228   -1.3764    0.9310 C.3     1  UNL1       -0.0619
     14 C           1.6844    0.9842    0.6052 C.3     1  UNL1       -0.0247
     15 C           3.0916    0.5125    0.5919 C.ar    1  UNL1       -0.0434
     16 C           3.6662   -0.0610    1.7079 C.ar    1  UNL1       -0.0549
     17 C           4.9887   -0.5002    1.6838 C.ar    1  UNL1       -0.0163
     18 C           5.7574   -0.3745    0.5480 C.ar    1  UNL1        0.1582
     19 O           7.0922   -0.8118    0.5060 O.3     1  UNL1       -0.5033
     20 C           5.1958    0.1930   -0.5633 C.ar    1  UNL1        0.1585
     21 O           5.9892    0.3098   -1.6975 O.3     1  UNL1       -0.5033
     22 C           3.8693    0.6345   -0.5418 C.ar    1  UNL1       -0.0133
     23 H          -0.5888    1.4458    2.0609 H       1  UNL1        0.0233
     24 H          -2.2429    1.0867    1.4606 H       1  UNL1        0.0233
     25 H          -1.3263   -0.2378    2.1991 H       1  UNL1        0.0233
     26 H          -0.7100    1.3540   -0.3518 H       1  UNL1        0.0304
     27 H          -1.5535   -1.5498    0.2056 H       1  UNL1        0.0316
     28 H          -1.1640   -0.9471   -1.4148 H       1  UNL1        0.0316
     29 H          -2.8172    0.6405   -2.4294 H       1  UNL1        0.0621
     30 H          -5.2152    1.3186   -2.5550 H       1  UNL1        0.0655
     31 H          -7.6377    0.6995    0.0534 H       1  UNL1        0.2923
     32 H          -6.8969   -0.9408    1.2597 H       1  UNL1        0.2923
     33 H          -3.4703   -1.0345    1.3899 H       1  UNL1        0.0658
     34 H           0.9623   -0.3166   -0.8973 H       1  UNL1        0.0304
     35 H           0.6167   -1.3267    1.9881 H       1  UNL1        0.0233
     36 H           0.3758   -2.1899    0.3702 H       1  UNL1        0.0233
     37 H           1.9938   -1.6530    0.8479 H       1  UNL1        0.0233
     38 H           1.3996    1.2856    1.6453 H       1  UNL1        0.0316
     39 H           1.5749    1.8949   -0.0176 H       1  UNL1        0.0316
     40 H           3.1166   -0.1892    2.6327 H       1  UNL1        0.0621
     41 H           5.4457   -0.9514    2.5570 H       1  UNL1        0.0655
     42 H           7.8387   -0.1824    0.2040 H       1  UNL1        0.2923
     43 H           6.5207   -0.4725   -2.0875 H       1  UNL1        0.2923
     44 H           3.4940    1.0725   -1.4577 H       1  UNL1        0.0658
@<TRIPOS>BOND
     1     1     2    1
     2     2     3    1
     3     3     4    1
     4     4     5   ar
     5     5     6   ar
     6     6     7   ar
     7     7     8    1
     8     7     9   ar
     9     9    10    1
    10     9    11   ar
    11     2    12    1
    12    12    13    1
    13    12    14    1
    14    14    15    1
    15    15    16   ar
    16    16    17   ar
    17    17    18   ar
    18    18    19    1
    19    18    20   ar
    20    20    21    1
    21    20    22   ar
    22    11     4   ar
    23    22    15   ar
    24     1    23    1
    25     1    24    1
    26     1    25    1
    27     2    26    1
    28     3    27    1
    29     3    28    1
    30     5    29    1
    31     6    30    1
    32     8    31    1
    33    10    32    1
    34    11    33    1
    35    12    34    1
    36    13    35    1
    37    13    36    1
    38    13    37    1
    39    14    38    1
    40    14    39    1
    41    16    40    1
    42    17    41    1
    43    19    42    1
    44    21    43    1
    45    22    44    1
