
     RDKit          3D

 44 45  0  0  0  0  0  0  0  0999 V2000
   -1.2066    0.6649    1.5879 C   0  0  0  0  0  0  0  0  0  0  0  0
   -0.7006    0.3903    0.1973 C   0  0  0  0  0  0  0  0  0  0  0  0
   -1.6054   -0.6385   -0.4263 C   0  0  0  0  0  0  0  0  0  0  0  0
   -2.9986   -0.2297   -0.5294 C   0  0  0  0  0  0  0  0  0  0  0  0
   -3.4989    0.4363   -1.6425 C   0  0  0  0  0  0  0  0  0  0  0  0
   -4.8299    0.8043   -1.6950 C   0  0  0  0  0  0  0  0  0  0  0  0
   -5.6948    0.5264   -0.6577 C   0  0  0  0  0  0  0  0  0  0  0  0
   -7.0460    0.9024   -0.7160 O   0  0  0  0  0  0  0  0  0  0  0  0
   -5.1976   -0.1306    0.4384 C   0  0  0  0  0  0  0  0  0  0  0  0
   -6.0562   -0.4271    1.5108 O   0  0  0  0  0  0  0  0  0  0  0  0
   -3.8614   -0.5096    0.5109 C   0  0  0  0  0  0  0  0  0  0  0  0
    0.7222   -0.1056    0.1782 C   0  0  0  0  0  0  0  0  0  0  0  0
    0.9228   -1.3764    0.9310 C   0  0  0  0  0  0  0  0  0  0  0  0
    1.6844    0.9842    0.6052 C   0  0  0  0  0  0  0  0  0  0  0  0
    3.0916    0.5125    0.5919 C   0  0  0  0  0  0  0  0  0  0  0  0
    3.6662   -0.0610    1.7079 C   0  0  0  0  0  0  0  0  0  0  0  0
    4.9887   -0.5002    1.6838 C   0  0  0  0  0  0  0  0  0  0  0  0
    5.7574   -0.3745    0.5480 C   0  0  0  0  0  0  0  0  0  0  0  0
    7.0922   -0.8118    0.5060 O   0  0  0  0  0  0  0  0  0  0  0  0
    5.1958    0.1930   -0.5633 C   0  0  0  0  0  0  0  0  0  0  0  0
    5.9892    0.3098   -1.6975 O   0  0  0  0  0  0  0  0  0  0  0  0
    3.8693    0.6345   -0.5418 C   0  0  0  0  0  0  0  0  0  0  0  0
   -0.5888    1.4458    2.0609 H   0  0  0  0  0  0  0  0  0  0  0  0
   -2.2429    1.0867    1.4606 H   0  0  0  0  0  0  0  0  0  0  0  0
   -1.3263   -0.2378    2.1991 H   0  0  0  0  0  0  0  0  0  0  0  0
   -0.7100    1.3540   -0.3518 H   0  0  0  0  0  0  0  0  0  0  0  0
   -1.5535   -1.5498    0.2056 H   0  0  0  0  0  0  0  0  0  0  0  0
   -1.1640   -0.9471   -1.4148 H   0  0  0  0  0  0  0  0  0  0  0  0
   -2.8172    0.6405   -2.4294 H   0  0  0  0  0  0  0  0  0  0  0  0
   -5.2152    1.3186   -2.5550 H   0  0  0  0  0  0  0  0  0  0  0  0
   -7.6377    0.6995    0.0534 H   0  0  0  0  0  0  0  0  0  0  0  0
   -6.8969   -0.9408    1.2597 H   0  0  0  0  0  0  0  0  0  0  0  0
   -3.4703   -1.0345    1.3899 H   0  0  0  0  0  0  0  0  0  0  0  0
    0.9623   -0.3166   -0.8973 H   0  0  0  0  0  0  0  0  0  0  0  0
    0.6167   -1.3267    1.9881 H   0  0  0  0  0  0  0  0  0  0  0  0
    0.3758   -2.1899    0.3702 H   0  0  0  0  0  0  0  0  0  0  0  0
    1.9938   -1.6530    0.8479 H   0  0  0  0  0  0  0  0  0  0  0  0
    1.3996    1.2856    1.6453 H   0  0  0  0  0  0  0  0  0  0  0  0
    1.5749    1.8949   -0.0176 H   0  0  0  0  0  0  0  0  0  0  0  0
    3.1166   -0.1892    2.6327 H   0  0  0  0  0  0  0  0  0  0  0  0
    5.4457   -0.9514    2.5570 H   0  0  0  0  0  0  0  0  0  0  0  0
    7.8387   -0.1824    0.2040 H   0  0  0  0  0  0  0  0  0  0  0  0
    6.5207   -0.4725   -2.0875 H   0  0  0  0  0  0  0  0  0  0  0  0
    3.4940    1.0725   -1.4577 H   0  0  0  0  0  0  0  0  0  0  0  0
  1  2  1  0
  2  3  1  0
  3  4  1  0
  4  5  2  0
  5  6  1  0
  6  7  2  0
  7  8  1  0
  7  9  1  0
  9 10  1  0
  9 11  2  0
  2 12  1  0
 12 13  1  0
 12 14  1  0
 14 15  1  0
 15 16  2  0
 16 17  1  0
 17 18  2  0
 18 19  1  0
 18 20  1  0
 20 21  1  0
 20 22  2  0
 11  4  1  0
 22 15  1  0
  1 23  1  0
  1 24  1  0
  1 25  1  0
  2 26  1  0
  3 27  1  0
  3 28  1  0
  5 29  1  0
  6 30  1  0
  8 31  1  0
 10 32  1  0
 11 33  1  0
 12 34  1  0
 13 35  1  0
 13 36  1  0
 13 37  1  0
 14 38  1  0
 14 39  1  0
 16 40  1  0
 17 41  1  0
 19 42  1  0
 21 43  1  0
 22 44  1  0
M  END
$$$$
