@<TRIPOS>MOLECULE
*****
 62 64 0 0 0
SMALL
GASTEIGER

@<TRIPOS>ATOM
      1 C           0.4366   -1.0169   -1.4212 C.3     1  UNL1        0.0243
      2 C           1.7433   -0.3895   -1.7489 C.3     1  UNL1        0.1104
      3 C           2.4309   -0.9938   -2.9169 C.3     1  UNL1       -0.0116
      4 C           2.5249   -2.4785   -2.8868 C.3     1  UNL1       -0.0308
      5 C           1.5573   -3.0157   -1.9097 C.2     1  UNL1       -0.0803
      6 C           0.5875   -2.5042   -1.1872 C.2     1  UNL1       -0.0447
      7 C          -0.2798   -3.2008   -0.2473 C.2     1  UNL1       -0.0621
      8 C          -0.5485   -2.5622    0.9130 C.2     1  UNL1       -0.0806
      9 C           0.1412   -1.2198    0.9731 C.3     1  UNL1       -0.0219
     10 C          -0.1118   -0.6388    2.3100 C.3     1  UNL1       -0.0587
     11 C          -0.2482   -0.3906   -0.2055 C.3     1  UNL1       -0.0247
     12 C          -1.7343   -0.3813   -0.4740 C.3     1  UNL1       -0.0457
     13 C          -2.5681    0.2008    0.6158 C.3     1  UNL1       -0.0153
     14 C          -4.0165    0.1239    0.1514 C.3     1  UNL1        0.1054
     15 C          -4.2585    0.8853   -1.1167 C.3     1  UNL1        0.0109
     16 C          -5.7690    0.9868   -1.2838 C.3     1  UNL1        0.0686
     17 O          -6.2909   -0.3091   -1.2025 O.3     1  UNL1       -0.3911
     18 C          -6.3298    1.7795   -0.1397 C.3     1  UNL1        0.0710
     19 C          -5.4024    1.8960    1.0161 C.2     1  UNL1        0.3098
     20 O          -5.3293    3.0571    1.5479 O.2     1  UNL1       -0.2507
     21 O          -4.9052    0.6039    1.1176 O.3     1  UNL1       -0.4612
     22 O           2.6474   -0.3113   -0.6757 O.3     1  UNL1       -0.4605
     23 C           3.0631    0.9427   -0.1998 C.2     1  UNL1        0.3102
     24 O           2.6209    2.0117   -0.7407 O.2     1  UNL1       -0.2505
     25 C           4.0216    1.0125    0.9377 C.3     1  UNL1        0.0534
     26 C           5.3346    0.3249    0.6097 C.3     1  UNL1       -0.0523
     27 C           4.3126    2.4467    1.2440 C.3     1  UNL1       -0.0432
     28 C           5.2773    2.6540    2.3853 C.3     1  UNL1       -0.0645
     29 H          -0.2128   -0.9386   -2.3170 H       1  UNL1        0.0388
     30 H           1.5210    0.6821   -2.0291 H       1  UNL1        0.0740
     31 H           1.9059   -0.7080   -3.8603 H       1  UNL1        0.0304
     32 H           3.4664   -0.5448   -2.9465 H       1  UNL1        0.0304
     33 H           2.3884   -2.9087   -3.8999 H       1  UNL1        0.0309
     34 H           3.5401   -2.7852   -2.4901 H       1  UNL1        0.0309
     35 H           1.6832   -4.1009   -1.7627 H       1  UNL1        0.0575
     36 H          -0.5841   -4.1789   -0.6474 H       1  UNL1        0.0617
     37 H          -1.1999   -3.1702    1.5285 H       1  UNL1        0.0575
     38 H           1.2578   -1.3877    0.8609 H       1  UNL1        0.0343
     39 H          -0.3819    0.4438    2.2939 H       1  UNL1        0.0235
     40 H           0.8552   -0.6547    2.8921 H       1  UNL1        0.0235
     41 H          -0.7966   -1.2464    2.9585 H       1  UNL1        0.0235
     42 H           0.0998    0.6397   -0.0570 H       1  UNL1        0.0313
     43 H          -2.1055   -1.3801   -0.7941 H       1  UNL1        0.0269
     44 H          -1.8955    0.2621   -1.3892 H       1  UNL1        0.0269
     45 H          -2.5113   -0.3505    1.5673 H       1  UNL1        0.0301
     46 H          -2.3455    1.2609    0.8237 H       1  UNL1        0.0301
     47 H          -4.2555   -0.9531   -0.0255 H       1  UNL1        0.0734
     48 H          -3.8309    0.3613   -2.0194 H       1  UNL1        0.0326
     49 H          -3.8055    1.8894   -1.0662 H       1  UNL1        0.0326
     50 H          -6.0186    1.4188   -2.2753 H       1  UNL1        0.0600
     51 H          -6.9586   -0.3959   -0.4590 H       1  UNL1        0.2098
     52 H          -6.6064    2.7779   -0.5618 H       1  UNL1        0.0403
     53 H          -7.2916    1.3235    0.2043 H       1  UNL1        0.0403
     54 H           3.5399    0.5779    1.8318 H       1  UNL1        0.0410
     55 H           5.8127   -0.0939    1.5282 H       1  UNL1        0.0238
     56 H           6.0189    0.9942    0.0608 H       1  UNL1        0.0238
     57 H           5.0741   -0.5464   -0.0474 H       1  UNL1        0.0238
     58 H           4.7806    2.9387    0.3444 H       1  UNL1        0.0270
     59 H           3.3654    3.0082    1.4599 H       1  UNL1        0.0270
     60 H           6.1243    3.3233    2.1133 H       1  UNL1        0.0230
     61 H           4.7699    3.2012    3.2324 H       1  UNL1        0.0230
     62 H           5.6905    1.7278    2.8040 H       1  UNL1        0.0230
@<TRIPOS>BOND
     1     1     2    1
     2     2     3    1
     3     3     4    1
     4     4     5    1
     5     5     6    2
     6     6     7    1
     7     7     8    2
     8     8     9    1
     9     9    10    1
    10     9    11    1
    11    11    12    1
    12    12    13    1
    13    13    14    1
    14    14    15    1
    15    15    16    1
    16    16    17    1
    17    16    18    1
    18    18    19    1
    19    19    20    2
    20    19    21    1
    21     2    22    1
    22    22    23    1
    23    23    24    2
    24    23    25    1
    25    25    26    1
    26    25    27    1
    27    27    28    1
    28     6     1    1
    29    21    14    1
    30    11     1    1
    31     1    29    1
    32     2    30    1
    33     3    31    1
    34     3    32    1
    35     4    33    1
    36     4    34    1
    37     5    35    1
    38     7    36    1
    39     8    37    1
    40     9    38    1
    41    10    39    1
    42    10    40    1
    43    10    41    1
    44    11    42    1
    45    12    43    1
    46    12    44    1
    47    13    45    1
    48    13    46    1
    49    14    47    1
    50    15    48    1
    51    15    49    1
    52    16    50    1
    53    17    51    1
    54    18    52    1
    55    18    53    1
    56    25    54    1
    57    26    55    1
    58    26    56    1
    59    26    57    1
    60    27    58    1
    61    27    59    1
    62    28    60    1
    63    28    61    1
    64    28    62    1
