@<TRIPOS>MOLECULE
*****
 30 30 0 0 0
SMALL
GASTEIGER

@<TRIPOS>ATOM
      1 C           0.7655    0.1021    0.1144 C.3     1  UNL1        0.0943
      2 C           0.0631    0.7152   -1.0281 C.3     1  UNL1       -0.0020
      3 C          -1.3851    0.4132   -0.9903 C.ar    1  UNL1       -0.0452
      4 C          -2.1783   -0.5471   -1.5776 C.ar    1  UNL1       -0.0585
      5 C          -3.5217   -0.5947   -1.3334 C.ar    1  UNL1       -0.0615
      6 C          -4.1674    0.2910   -0.5040 C.ar    1  UNL1       -0.0617
      7 C          -3.3998    1.2613    0.0957 C.ar    1  UNL1       -0.0615
      8 C          -2.0212    1.3279   -0.1406 C.ar    1  UNL1       -0.0585
      9 N           2.1898    0.3652    0.1567 N.am    1  UNL1       -0.3053
     10 C           2.7038    0.8960    1.3743 C.2     1  UNL1        0.2105
     11 C           4.1147    1.2683    1.7244 C.3     1  UNL1        0.0122
     12 O           2.0242    1.1582    2.4237 O.2     1  UNL1       -0.2761
     13 C           0.6468   -1.3790    0.0706 C.2     1  UNL1        0.2557
     14 O           1.8540   -1.0792    0.1053 O.2     1  UNL1       -0.2859
     15 C           0.3941   -2.8363    0.0247 C.3     1  UNL1        0.4525
     16 F          -0.2482   -3.1658   -1.1436 F       1  UNL1       -0.1633
     17 F           1.5767   -3.5282    0.0732 F       1  UNL1       -0.1633
     18 F          -0.4300   -3.1754    1.0942 F       1  UNL1       -0.1633
     19 H           0.3202    0.4328    1.1000 H       1  UNL1        0.0584
     20 H           0.4039    0.2819   -2.0190 H       1  UNL1        0.0335
     21 H           0.2518    1.7995   -1.1641 H       1  UNL1        0.0335
     22 H          -1.5813   -1.1744   -2.2110 H       1  UNL1        0.0620
     23 H          -4.0108   -1.4086   -1.8689 H       1  UNL1        0.0618
     24 H          -5.2140    0.1384   -0.4042 H       1  UNL1        0.0618
     25 H          -3.9398    1.9404    0.7408 H       1  UNL1        0.0618
     26 H          -1.5796    2.1542    0.4145 H       1  UNL1        0.0620
     27 H           3.0119    0.2838   -0.4760 H       1  UNL1        0.1494
     28 H           4.1471    2.3547    1.9411 H       1  UNL1        0.0322
     29 H           4.4479    0.6309    2.5609 H       1  UNL1        0.0322
     30 H           4.7620    1.0735    0.8462 H       1  UNL1        0.0322
@<TRIPOS>BOND
     1     1     2    1
     2     2     3    1
     3     3     4   ar
     4     4     5   ar
     5     5     6   ar
     6     6     7   ar
     7     7     8   ar
     8     1     9    1
     9     9    10   am
    10    10    11    1
    11    10    12    2
    12     1    13    1
    13    13    14    2
    14    13    15    1
    15    15    16    1
    16    15    17    1
    17    15    18    1
    18     8     3   ar
    19     1    19    1
    20     2    20    1
    21     2    21    1
    22     4    22    1
    23     5    23    1
    24     6    24    1
    25     7    25    1
    26     8    26    1
    27     9    27    1
    28    11    28    1
    29    11    29    1
    30    11    30    1
