@<TRIPOS>MOLECULE
*****
 51 53 0 0 0
SMALL
GASTEIGER

@<TRIPOS>ATOM
      1 C           7.2243   -0.3639   -1.4670 C.3     1  UNL1       -0.0223
      2 C           6.3660    0.7126   -0.8724 C.3     1  UNL1        0.1836
      3 C           7.1296    1.4029    0.2322 C.3     1  UNL1       -0.0223
      4 F           6.1561    1.6492   -1.8888 F       1  UNL1       -0.2324
      5 C           5.0576    0.1718   -0.4130 C.ar    1  UNL1        0.2641
      6 N           4.0590    0.8446    0.1872 N.ar    1  UNL1       -0.1914
      7 C           3.0205   -0.0055    0.4563 C.ar    1  UNL1        0.1921
      8 C           1.7381    0.3321    1.1192 C.3     1  UNL1        0.0890
      9 C           1.6605   -0.3917    2.4710 C.3     1  UNL1       -0.0256
     10 C           1.0869   -1.7435    2.1040 C.3     1  UNL1       -0.0350
     11 C           0.6355   -1.6506    0.6632 C.3     1  UNL1        0.0155
     12 N           0.5900   -0.2166    0.4476 N.am    1  UNL1       -0.2912
     13 C          -0.3758    0.5350   -0.2691 C.2     1  UNL1        0.2176
     14 O          -0.2522    1.7783   -0.3342 O.2     1  UNL1       -0.2755
     15 C          -1.5239   -0.1092   -0.9396 C.3     1  UNL1        0.0396
     16 C          -2.8487    0.4198   -0.4135 C.3     1  UNL1        0.0172
     17 N          -2.8595    0.1134    1.0059 N.3     1  UNL1       -0.3265
     18 C          -3.9407   -0.3160   -1.1502 C.3     1  UNL1       -0.0092
     19 C          -5.2963    0.0818   -0.7382 C.ar    1  UNL1       -0.0078
     20 C          -6.0609   -0.7526    0.0791 C.ar    1  UNL1       -0.0176
     21 C          -7.3288   -0.4391    0.4946 C.ar    1  UNL1        0.1588
     22 F          -8.0729   -1.2680    1.2991 F       1  UNL1       -0.2025
     23 C          -7.9020    0.7386    0.1089 C.ar    1  UNL1        0.1611
     24 F          -9.1593    1.0477    0.5220 F       1  UNL1       -0.2024
     25 C          -7.1697    1.6008   -0.7089 C.ar    1  UNL1        0.0119
     26 C          -5.8952    1.2664   -1.1159 C.ar    1  UNL1        0.1295
     27 F          -5.2410    2.1449   -1.9065 F       1  UNL1       -0.2051
     28 N           3.4521   -1.1878   -0.0080 N.ar    1  UNL1       -0.0592
     29 O           4.6381   -1.0768   -0.5124 O.2     1  UNL1       -0.3346
     30 H           7.2144   -1.2866   -0.8498 H       1  UNL1        0.0265
     31 H           6.9614   -0.5867   -2.5194 H       1  UNL1        0.0265
     32 H           8.2756    0.0267   -1.4899 H       1  UNL1        0.0265
     33 H           7.8280    0.6464    0.6706 H       1  UNL1        0.0265
     34 H           7.6597    2.2711   -0.1574 H       1  UNL1        0.0265
     35 H           6.3805    1.6599    1.0308 H       1  UNL1        0.0265
     36 H           1.6661    1.4302    1.2627 H       1  UNL1        0.0583
     37 H           2.6402   -0.4668    2.9438 H       1  UNL1        0.0288
     38 H           0.9071    0.1540    3.0583 H       1  UNL1        0.0288
     39 H           0.1835   -1.9670    2.7249 H       1  UNL1        0.0281
     40 H           1.8794   -2.4992    2.2153 H       1  UNL1        0.0281
     41 H           1.3039   -2.1100   -0.0600 H       1  UNL1        0.0465
     42 H          -0.3693   -2.1138    0.5213 H       1  UNL1        0.0465
     43 H          -1.5309   -1.1946   -0.8710 H       1  UNL1        0.0374
     44 H          -1.5344    0.1533   -2.0371 H       1  UNL1        0.0374
     45 H          -2.8465    1.4997   -0.5573 H       1  UNL1        0.0466
     46 H          -2.1446    0.6989    1.4862 H       1  UNL1        0.1185
     47 H          -2.5198   -0.8852    1.1587 H       1  UNL1        0.1185
     48 H          -3.8152   -1.4001   -0.9283 H       1  UNL1        0.0329
     49 H          -3.7599   -0.1777   -2.2310 H       1  UNL1        0.0329
     50 H          -5.6183   -1.6952    0.3952 H       1  UNL1        0.0651
     51 H          -7.6484    2.5243   -0.9975 H       1  UNL1        0.0676
@<TRIPOS>BOND
     1     1     2    1
     2     2     3    1
     3     2     4    1
     4     2     5    1
     5     5     6   ar
     6     6     7   ar
     7     7     8    1
     8     8     9    1
     9     9    10    1
    10    10    11    1
    11    11    12    1
    12    12    13   am
    13    13    14    2
    14    13    15    1
    15    15    16    1
    16    16    17    1
    17    16    18    1
    18    18    19    1
    19    19    20   ar
    20    20    21   ar
    21    21    22    1
    22    21    23   ar
    23    23    24    1
    24    23    25   ar
    25    25    26   ar
    26    26    27    1
    27     7    28   ar
    28    28    29   ar
    29    29     5   ar
    30    12     8    1
    31    26    19   ar
    32     1    30    1
    33     1    31    1
    34     1    32    1
    35     3    33    1
    36     3    34    1
    37     3    35    1
    38     8    36    1
    39     9    37    1
    40     9    38    1
    41    10    39    1
    42    10    40    1
    43    11    41    1
    44    11    42    1
    45    15    43    1
    46    15    44    1
    47    16    45    1
    48    17    46    1
    49    17    47    1
    50    18    48    1
    51    18    49    1
    52    20    50    1
    53    25    51    1
