@<TRIPOS>MOLECULE
*****
 53 55 0 0 0
SMALL
GASTEIGER

@<TRIPOS>ATOM
      1 O           8.1727   -0.0531   -0.5872 O.2     1  UNL1       -0.2687
      2 C           7.6138    0.9870   -0.1753 C.2     1  UNL1        0.2593
      3 C           6.1906    0.9556    0.1602 C.2     1  UNL1        0.0027
      4 C           5.5097   -0.1560    0.0294 C.2     1  UNL1       -0.0496
      5 C           4.0968   -0.3210    0.3279 C.ar    1  UNL1       -0.0249
      6 C           3.3148    0.7135    0.7744 C.ar    1  UNL1       -0.0543
      7 C           1.9608    0.5283    1.0717 C.ar    1  UNL1       -0.0568
      8 C           1.4088   -0.7087    0.9134 C.ar    1  UNL1       -0.0333
      9 C          -0.0134   -1.0218    1.2010 C.3     1  UNL1        0.0241
     10 N          -0.7748   -0.8324    0.0270 N.3     1  UNL1       -0.2957
     11 C          -0.7777    0.4319   -0.5730 C.3     1  UNL1        0.0224
     12 C          -1.4969    0.5521   -1.8648 C.3     1  UNL1        0.0569
     13 O          -0.9832   -0.2822   -2.8599 O.3     1  UNL1       -0.3937
     14 C          -1.7264   -1.8056   -0.3042 C.3     1  UNL1        0.0033
     15 C          -2.8821   -1.9412    0.6220 C.3     1  UNL1       -0.0129
     16 C          -3.7261   -0.7545    0.7950 C.ar    1  UNL1       -0.0212
     17 C          -3.6283    0.0789    1.8899 C.ar    1  UNL1        0.0059
     18 N          -4.5311    1.0598    1.7229 N.ar    1  UNL1       -0.3604
     19 C          -5.1990    0.8899    0.5721 C.ar    1  UNL1        0.0467
     20 C          -6.2163    1.6310   -0.0323 C.ar    1  UNL1       -0.0378
     21 C          -6.7227    1.2163   -1.2275 C.ar    1  UNL1       -0.0598
     22 C          -6.2393    0.0762   -1.8419 C.ar    1  UNL1       -0.0611
     23 C          -5.2214   -0.6454   -1.2156 C.ar    1  UNL1       -0.0523
     24 C          -4.6993   -0.2432   -0.0108 C.ar    1  UNL1        0.0029
     25 C           2.1992   -1.7443    0.4646 C.ar    1  UNL1       -0.0568
     26 C           3.5216   -1.5626    0.1741 C.ar    1  UNL1       -0.0543
     27 N           8.4104    2.1407   -0.0600 N.am    1  UNL1       -0.1940
     28 O           9.7282    2.1092   -0.3866 O.3     1  UNL1       -0.2949
     29 H           5.6744    1.8485    0.5218 H       1  UNL1        0.0670
     30 H           6.0667   -1.0224   -0.3380 H       1  UNL1        0.0625
     31 H           3.7088    1.7135    0.9149 H       1  UNL1        0.0624
     32 H           1.3257    1.3278    1.4251 H       1  UNL1        0.0621
     33 H          -0.0573   -2.0165    1.6426 H       1  UNL1        0.0476
     34 H          -0.3183   -0.3058    2.0239 H       1  UNL1        0.0476
     35 H           0.3031    0.7047   -0.7866 H       1  UNL1        0.0449
     36 H          -1.1184    1.2681    0.0824 H       1  UNL1        0.0449
     37 H          -2.5739    0.4035   -1.7756 H       1  UNL1        0.0570
     38 H          -1.3735    1.6073   -2.2522 H       1  UNL1        0.0570
     39 H          -0.1406   -0.7211   -2.5693 H       1  UNL1        0.2095
     40 H          -1.2453   -2.8276   -0.3527 H       1  UNL1        0.0430
     41 H          -2.1146   -1.6163   -1.3194 H       1  UNL1        0.0430
     42 H          -2.5758   -2.3896    1.6125 H       1  UNL1        0.0326
     43 H          -3.5622   -2.7320    0.1816 H       1  UNL1        0.0326
     44 H          -2.9337   -0.0476    2.7386 H       1  UNL1        0.0810
     45 H          -4.6743    1.8423    2.4128 H       1  UNL1        0.1653
     46 H          -6.6114    2.5262    0.4263 H       1  UNL1        0.0638
     47 H          -7.5097    1.7939   -1.6916 H       1  UNL1        0.0618
     48 H          -6.6470   -0.2373   -2.7827 H       1  UNL1        0.0618
     49 H          -4.8607   -1.5222   -1.7016 H       1  UNL1        0.0624
     50 H           1.7872   -2.7290    0.3325 H       1  UNL1        0.0621
     51 H           4.1311   -2.3981   -0.1855 H       1  UNL1        0.0624
     52 H           7.9919    3.0383    0.2805 H       1  UNL1        0.1825
     53 H          10.0382    1.1929   -0.5742 H       1  UNL1        0.2414
@<TRIPOS>BOND
     1     1     2    2
     2     2     3    1
     3     3     4    2
     4     4     5    1
     5     5     6   ar
     6     6     7   ar
     7     7     8   ar
     8     8     9    1
     9     9    10    1
    10    10    11    1
    11    11    12    1
    12    12    13    1
    13    10    14    1
    14    14    15    1
    15    15    16    1
    16    16    17   ar
    17    17    18   ar
    18    18    19   ar
    19    19    20   ar
    20    20    21   ar
    21    21    22   ar
    22    22    23   ar
    23    23    24   ar
    24     8    25   ar
    25    25    26   ar
    26     2    27   am
    27    27    28    1
    28    26     5   ar
    29    24    16   ar
    30    24    19   ar
    31     3    29    1
    32     4    30    1
    33     6    31    1
    34     7    32    1
    35     9    33    1
    36     9    34    1
    37    11    35    1
    38    11    36    1
    39    12    37    1
    40    12    38    1
    41    13    39    1
    42    14    40    1
    43    14    41    1
    44    15    42    1
    45    15    43    1
    46    17    44    1
    47    18    45    1
    48    20    46    1
    49    21    47    1
    50    22    48    1
    51    23    49    1
    52    25    50    1
    53    26    51    1
    54    27    52    1
    55    28    53    1
