
     RDKit          3D

 53 55  0  0  0  0  0  0  0  0999 V2000
    8.1727   -0.0531   -0.5872 O   0  0  0  0  0  0  0  0  0  0  0  0
    7.6138    0.9870   -0.1753 C   0  0  0  0  0  0  0  0  0  0  0  0
    6.1906    0.9556    0.1602 C   0  0  0  0  0  0  0  0  0  0  0  0
    5.5097   -0.1560    0.0294 C   0  0  0  0  0  0  0  0  0  0  0  0
    4.0968   -0.3210    0.3279 C   0  0  0  0  0  0  0  0  0  0  0  0
    3.3148    0.7135    0.7744 C   0  0  0  0  0  0  0  0  0  0  0  0
    1.9608    0.5283    1.0717 C   0  0  0  0  0  0  0  0  0  0  0  0
    1.4088   -0.7087    0.9134 C   0  0  0  0  0  0  0  0  0  0  0  0
   -0.0134   -1.0218    1.2010 C   0  0  0  0  0  0  0  0  0  0  0  0
   -0.7748   -0.8324    0.0270 N   0  0  0  0  0  0  0  0  0  0  0  0
   -0.7777    0.4319   -0.5730 C   0  0  0  0  0  0  0  0  0  0  0  0
   -1.4969    0.5521   -1.8648 C   0  0  0  0  0  0  0  0  0  0  0  0
   -0.9832   -0.2822   -2.8599 O   0  0  0  0  0  0  0  0  0  0  0  0
   -1.7264   -1.8056   -0.3042 C   0  0  0  0  0  0  0  0  0  0  0  0
   -2.8821   -1.9412    0.6220 C   0  0  0  0  0  0  0  0  0  0  0  0
   -3.7261   -0.7545    0.7950 C   0  0  0  0  0  0  0  0  0  0  0  0
   -3.6283    0.0789    1.8899 C   0  0  0  0  0  0  0  0  0  0  0  0
   -4.5311    1.0598    1.7229 N   0  0  0  0  0  0  0  0  0  0  0  0
   -5.1990    0.8899    0.5721 C   0  0  0  0  0  0  0  0  0  0  0  0
   -6.2163    1.6310   -0.0323 C   0  0  0  0  0  0  0  0  0  0  0  0
   -6.7227    1.2163   -1.2275 C   0  0  0  0  0  0  0  0  0  0  0  0
   -6.2393    0.0762   -1.8419 C   0  0  0  0  0  0  0  0  0  0  0  0
   -5.2214   -0.6454   -1.2156 C   0  0  0  0  0  0  0  0  0  0  0  0
   -4.6993   -0.2432   -0.0108 C   0  0  0  0  0  0  0  0  0  0  0  0
    2.1992   -1.7443    0.4646 C   0  0  0  0  0  0  0  0  0  0  0  0
    3.5216   -1.5626    0.1741 C   0  0  0  0  0  0  0  0  0  0  0  0
    8.4104    2.1407   -0.0600 N   0  0  0  0  0  0  0  0  0  0  0  0
    9.7282    2.1092   -0.3866 O   0  0  0  0  0  0  0  0  0  0  0  0
    5.6744    1.8485    0.5218 H   0  0  0  0  0  0  0  0  0  0  0  0
    6.0667   -1.0224   -0.3380 H   0  0  0  0  0  0  0  0  0  0  0  0
    3.7088    1.7135    0.9149 H   0  0  0  0  0  0  0  0  0  0  0  0
    1.3257    1.3278    1.4251 H   0  0  0  0  0  0  0  0  0  0  0  0
   -0.0573   -2.0165    1.6426 H   0  0  0  0  0  0  0  0  0  0  0  0
   -0.3183   -0.3058    2.0239 H   0  0  0  0  0  0  0  0  0  0  0  0
    0.3031    0.7047   -0.7866 H   0  0  0  0  0  0  0  0  0  0  0  0
   -1.1184    1.2681    0.0824 H   0  0  0  0  0  0  0  0  0  0  0  0
   -2.5739    0.4035   -1.7756 H   0  0  0  0  0  0  0  0  0  0  0  0
   -1.3735    1.6073   -2.2522 H   0  0  0  0  0  0  0  0  0  0  0  0
   -0.1406   -0.7211   -2.5693 H   0  0  0  0  0  0  0  0  0  0  0  0
   -1.2453   -2.8276   -0.3527 H   0  0  0  0  0  0  0  0  0  0  0  0
   -2.1146   -1.6163   -1.3194 H   0  0  0  0  0  0  0  0  0  0  0  0
   -2.5758   -2.3896    1.6125 H   0  0  0  0  0  0  0  0  0  0  0  0
   -3.5622   -2.7320    0.1816 H   0  0  0  0  0  0  0  0  0  0  0  0
   -2.9337   -0.0476    2.7386 H   0  0  0  0  0  0  0  0  0  0  0  0
   -4.6743    1.8423    2.4128 H   0  0  0  0  0  0  0  0  0  0  0  0
   -6.6114    2.5262    0.4263 H   0  0  0  0  0  0  0  0  0  0  0  0
   -7.5097    1.7939   -1.6916 H   0  0  0  0  0  0  0  0  0  0  0  0
   -6.6470   -0.2373   -2.7827 H   0  0  0  0  0  0  0  0  0  0  0  0
   -4.8607   -1.5222   -1.7016 H   0  0  0  0  0  0  0  0  0  0  0  0
    1.7872   -2.7290    0.3325 H   0  0  0  0  0  0  0  0  0  0  0  0
    4.1311   -2.3981   -0.1855 H   0  0  0  0  0  0  0  0  0  0  0  0
    7.9919    3.0383    0.2805 H   0  0  0  0  0  0  0  0  0  0  0  0
   10.0382    1.1929   -0.5742 H   0  0  0  0  0  0  0  0  0  0  0  0
  1  2  2  0
  2  3  1  0
  3  4  2  0
  4  5  1  0
  5  6  2  0
  6  7  1  0
  7  8  2  0
  8  9  1  0
  9 10  1  0
 10 11  1  0
 11 12  1  0
 12 13  1  0
 10 14  1  0
 14 15  1  0
 15 16  1  0
 16 17  2  0
 17 18  1  0
 18 19  1  0
 19 20  2  0
 20 21  1  0
 21 22  2  0
 22 23  1  0
 23 24  2  0
  8 25  1  0
 25 26  2  0
  2 27  1  0
 27 28  1  0
 26  5  1  0
 24 16  1  0
 24 19  1  0
  3 29  1  0
  4 30  1  0
  6 31  1  0
  7 32  1  0
  9 33  1  0
  9 34  1  0
 11 35  1  0
 11 36  1  0
 12 37  1  0
 12 38  1  0
 13 39  1  0
 14 40  1  0
 14 41  1  0
 15 42  1  0
 15 43  1  0
 17 44  1  0
 18 45  1  0
 20 46  1  0
 21 47  1  0
 22 48  1  0
 23 49  1  0
 25 50  1  0
 26 51  1  0
 27 52  1  0
 28 53  1  0
M  END
$$$$
