@<TRIPOS>MOLECULE
*****
 50 53 0 0 0
SMALL
GASTEIGER

@<TRIPOS>ATOM
      1 N           7.5001    0.4662    0.8014 N.pl3   1  UNL1       -0.2466
      2 C           7.1072   -0.2124   -0.3892 C.2     1  UNL1        0.3082
      3 N           7.9427   -0.5553   -1.3208 N.2     1  UNL1       -0.0994
      4 C           5.6642   -0.5089   -0.5036 C.ar    1  UNL1        0.0668
      5 C           4.6999    0.2982    0.0754 C.ar    1  UNL1       -0.0214
      6 C           3.3684   -0.0243   -0.0620 C.ar    1  UNL1        0.0673
      7 C           3.0494   -1.1542   -0.7813 C.ar    1  UNL1        0.0895
      8 C           3.9720   -1.9875   -1.3751 C.ar    1  UNL1       -0.0334
      9 C           5.2965   -1.6372   -1.2191 C.ar    1  UNL1       -0.0448
     10 N           1.7086   -1.2528   -0.7722 N.ar    1  UNL1       -0.2276
     11 C           1.1788   -0.2303   -0.0765 C.ar    1  UNL1        0.1428
     12 N           2.2093    0.5135    0.3521 N.ar    1  UNL1       -0.3378
     13 C          -0.2385    0.0194    0.1638 C.ar    1  UNL1        0.0595
     14 C          -0.6131    1.1215    0.9030 C.ar    1  UNL1       -0.0442
     15 C          -1.9564    1.3496    1.1252 C.ar    1  UNL1       -0.0409
     16 C          -2.4627    2.5014    1.9040 C.3     1  UNL1        0.0126
     17 C          -2.7248    3.7144    1.0404 C.3     1  UNL1       -0.0313
     18 N          -3.2123    4.7717    1.8964 N.4     1  UNL1        0.2188
     19 C          -2.8634    0.4649    0.5980 C.ar    1  UNL1       -0.0471
     20 C          -2.5286   -0.6509   -0.1479 C.ar    1  UNL1        0.0245
     21 C          -1.1742   -0.8528   -0.3536 C.ar    1  UNL1        0.1351
     22 O          -0.7376   -1.9391   -1.0859 O.3     1  UNL1       -0.5054
     23 C          -3.4482   -1.5817   -0.7044 C.ar    1  UNL1       -0.0144
     24 C          -4.4574   -1.9723    0.1702 C.ar    1  UNL1       -0.0539
     25 C          -5.4401   -2.8817   -0.2239 C.ar    1  UNL1       -0.0612
     26 C          -5.4032   -3.3992   -1.5080 C.ar    1  UNL1       -0.0617
     27 C          -4.3951   -3.0164   -2.3992 C.ar    1  UNL1       -0.0612
     28 C          -3.4392   -2.1152   -1.9766 C.ar    1  UNL1       -0.0539
     29 H           7.5203   -0.2777    1.5280 H       1  UNL1        0.2884
     30 H           7.7524    1.4262    1.1183 H       1  UNL1        0.2884
     31 H           7.6552   -1.0508   -2.1898 H       1  UNL1        0.3633
     32 H           4.9924    1.1754    0.6314 H       1  UNL1        0.0647
     33 H           3.6662   -2.8618   -1.9284 H       1  UNL1        0.0640
     34 H           6.0704   -2.2546   -1.6640 H       1  UNL1        0.0627
     35 H           2.1877    1.3937    0.9272 H       1  UNL1        0.1674
     36 H           0.0740    1.8152    1.3177 H       1  UNL1        0.0628
     37 H          -1.7133    2.7546    2.6578 H       1  UNL1        0.0365
     38 H          -3.4026    2.1879    2.4080 H       1  UNL1        0.0365
     39 H          -3.5152    3.5207    0.2859 H       1  UNL1        0.0816
     40 H          -1.7997    4.0499    0.5649 H       1  UNL1        0.0816
     41 H          -4.2729    4.7344    1.9238 H       1  UNL1        0.1994
     42 H          -2.8848    5.6820    1.5042 H       1  UNL1        0.1994
     43 H          -2.8701    4.6058    2.8606 H       1  UNL1        0.1994
     44 H          -3.9352    0.6089    0.7505 H       1  UNL1        0.0628
     45 H          -0.2384   -2.6751   -0.5843 H       1  UNL1        0.2922
     46 H          -4.5474   -1.6010    1.2044 H       1  UNL1        0.0624
     47 H          -6.2310   -3.1947    0.4453 H       1  UNL1        0.0618
     48 H          -6.1458   -4.1042   -1.8479 H       1  UNL1        0.0618
     49 H          -4.3448   -3.4128   -3.4219 H       1  UNL1        0.0618
     50 H          -2.6198   -1.7708   -2.6226 H       1  UNL1        0.0624
@<TRIPOS>UNITY_ATOM_ATTR
18 1
charge 1
@<TRIPOS>BOND
     1     1     2    1
     2     2     3    2
     3     2     4    1
     4     4     5   ar
     5     5     6   ar
     6     6     7   ar
     7     7     8   ar
     8     8     9   ar
     9     7    10   ar
    10    10    11   ar
    11    11    12   ar
    12    11    13    1
    13    13    14   ar
    14    14    15   ar
    15    15    16    1
    16    16    17    1
    17    17    18    1
    18    15    19   ar
    19    19    20   ar
    20    20    21   ar
    21    21    22    1
    22    20    23    1
    23    23    24   ar
    24    24    25   ar
    25    25    26   ar
    26    26    27   ar
    27    27    28   ar
    28     9     4   ar
    29    21    13   ar
    30    28    23   ar
    31    12     6   ar
    32     1    29    1
    33     1    30    1
    34     3    31    1
    35     5    32    1
    36     8    33    1
    37     9    34    1
    38    12    35    1
    39    14    36    1
    40    16    37    1
    41    16    38    1
    42    17    39    1
    43    17    40    1
    44    18    41    1
    45    18    42    1
    46    18    43    1
    47    19    44    1
    48    22    45    1
    49    24    46    1
    50    25    47    1
    51    26    48    1
    52    27    49    1
    53    28    50    1
