@<TRIPOS>MOLECULE
*****
 53 57 0 0 0
SMALL
GASTEIGER

@<TRIPOS>ATOM
      1 C           3.7960    4.3844   -1.3159 C.3     1  UNL1        0.0788
      2 O           2.9424    3.3325   -0.9071 O.3     1  UNL1       -0.4951
      3 C           3.2127    2.0544   -1.4136 C.ar    1  UNL1        0.1208
      4 C           4.2643    1.8206   -2.2753 C.ar    1  UNL1       -0.0180
      5 C           4.5380    0.5670   -2.7787 C.ar    1  UNL1       -0.0343
      6 C           3.7502   -0.5257   -2.4299 C.ar    1  UNL1        0.0473
      7 N           3.7782   -1.8294   -2.7565 N.ar    1  UNL1       -0.3600
      8 C           2.7814   -2.4833   -2.1446 C.ar    1  UNL1        0.0119
      9 C           2.0869   -1.5352   -1.3898 C.ar    1  UNL1        0.0256
     10 C           0.9221   -1.7847   -0.5545 C.ar    1  UNL1        0.0789
     11 C           0.4417   -3.0852   -0.4903 C.ar    1  UNL1       -0.0076
     12 C          -0.6416   -3.4406    0.2578 C.ar    1  UNL1        0.0999
     13 N          -1.3069   -4.6051    0.4957 N.ar    1  UNL1       -0.1712
     14 N          -2.3077   -4.3735    1.3179 N.ar    1  UNL1       -0.2732
     15 C          -3.2321   -5.3751    1.7927 C.3     1  UNL1        0.0302
     16 C          -2.3176   -3.0580    1.6333 C.ar    1  UNL1        0.0380
     17 C          -1.2718   -2.4662    0.9694 C.ar    1  UNL1        0.0812
     18 C          -0.7864   -1.1585    0.9030 C.ar    1  UNL1        0.2265
     19 O          -1.4341   -0.1924    1.6261 O.3     1  UNL1       -0.4725
     20 C          -1.0712    1.1287    1.6570 C.3     1  UNL1        0.1037
     21 C          -0.6858    1.6226    3.0397 C.3     1  UNL1       -0.0274
     22 C          -2.1363    2.0746    1.1523 C.3     1  UNL1        0.0196
     23 C          -2.5210    1.7972   -0.2838 C.3     1  UNL1        0.0182
     24 N          -3.7508    2.5541   -0.4049 N.am    1  UNL1       -0.3149
     25 C          -4.3999    2.4245    0.8487 C.2     1  UNL1        0.2135
     26 O          -5.5943    2.7352    1.0595 O.2     1  UNL1       -0.2758
     27 C          -3.4630    1.8722    1.8607 C.3     1  UNL1        0.0315
     28 N           0.2983   -0.8438    0.1444 N.ar    1  UNL1       -0.2122
     29 C           2.6962   -0.2993   -1.5682 C.ar    1  UNL1        0.0123
     30 C           2.4330    0.9710   -1.0689 C.ar    1  UNL1       -0.0102
     31 H           3.7657    4.4449   -2.4174 H       1  UNL1        0.0660
     32 H           3.5355    5.3331   -0.8246 H       1  UNL1        0.0660
     33 H           4.8673    4.1648   -1.0436 H       1  UNL1        0.0660
     34 H           4.8771    2.6700   -2.5467 H       1  UNL1        0.0655
     35 H           5.3551    0.3803   -3.4494 H       1  UNL1        0.0639
     36 H           4.4833   -2.2759   -3.4020 H       1  UNL1        0.1654
     37 H           2.5238   -3.5348   -2.1931 H       1  UNL1        0.0814
     38 H           0.9273   -3.8710   -1.0468 H       1  UNL1        0.0661
     39 H          -3.6738   -5.9468    0.9560 H       1  UNL1        0.0473
     40 H          -2.7213   -6.1042    2.4516 H       1  UNL1        0.0473
     41 H          -4.0629   -4.8907    2.3551 H       1  UNL1        0.0473
     42 H          -3.0119   -2.5630    2.2819 H       1  UNL1        0.0834
     43 H          -0.1891    1.3067    1.0218 H       1  UNL1        0.0734
     44 H           0.2372    2.2291    3.0343 H       1  UNL1        0.0265
     45 H          -1.4841    2.2491    3.4828 H       1  UNL1        0.0265
     46 H          -0.5442    0.7703    3.7480 H       1  UNL1        0.0265
     47 H          -1.8106    3.1016    1.3050 H       1  UNL1        0.0356
     48 H          -1.7446    2.1343   -0.9993 H       1  UNL1        0.0466
     49 H          -2.7232    0.7066   -0.3893 H       1  UNL1        0.0466
     50 H          -4.0501    3.0690   -1.2578 H       1  UNL1        0.1487
     51 H          -3.6955    0.8080    2.0221 H       1  UNL1        0.0363
     52 H          -3.4855    2.4381    2.8094 H       1  UNL1        0.0363
     53 H           1.6035    1.0976   -0.4028 H       1  UNL1        0.0661
@<TRIPOS>BOND
     1     1     2    1
     2     2     3    1
     3     3     4   ar
     4     4     5   ar
     5     5     6   ar
     6     6     7   ar
     7     7     8   ar
     8     8     9   ar
     9     9    10    1
    10    10    11   ar
    11    11    12   ar
    12    12    13   ar
    13    13    14   ar
    14    14    15    1
    15    14    16   ar
    16    16    17   ar
    17    17    18   ar
    18    18    19    1
    19    19    20    1
    20    20    21    1
    21    20    22    1
    22    22    23    1
    23    23    24    1
    24    24    25   am
    25    25    26    2
    26    25    27    1
    27    18    28   ar
    28     9    29   ar
    29    29    30   ar
    30    30     3   ar
    31    29     6   ar
    32    28    10   ar
    33    17    12   ar
    34    27    22    1
    35     1    31    1
    36     1    32    1
    37     1    33    1
    38     4    34    1
    39     5    35    1
    40     7    36    1
    41     8    37    1
    42    11    38    1
    43    15    39    1
    44    15    40    1
    45    15    41    1
    46    16    42    1
    47    20    43    1
    48    21    44    1
    49    21    45    1
    50    21    46    1
    51    22    47    1
    52    23    48    1
    53    23    49    1
    54    24    50    1
    55    27    51    1
    56    27    52    1
    57    30    53    1
