@<TRIPOS>MOLECULE
*****
 56 58 0 0 0
SMALL
GASTEIGER

@<TRIPOS>ATOM
      1 C          -4.2546    0.1990    2.0870 C.3     1  UNL1       -0.0524
      2 C          -4.9770    1.1095    1.1579 C.3     1  UNL1       -0.0039
      3 N          -4.3906    1.2856   -0.1433 N.3     1  UNL1       -0.3014
      4 C          -5.1548    2.3539   -0.8036 C.3     1  UNL1       -0.0039
      5 C          -6.5406    1.9656   -1.1809 C.3     1  UNL1       -0.0524
      6 C          -4.5451    0.1426   -1.0054 C.3     1  UNL1        0.0145
      7 C          -3.7798   -1.0757   -0.6775 C.3     1  UNL1        0.0247
      8 N          -2.3315   -0.8517   -0.6936 N.am    1  UNL1       -0.3101
      9 C          -1.4180   -1.8882   -0.3792 C.2     1  UNL1        0.2461
     10 O          -1.9921   -2.9989   -0.0826 O.2     1  UNL1       -0.2701
     11 C           0.0100   -1.7955   -0.3652 C.ar    1  UNL1        0.0604
     12 C           0.8485   -2.7944    0.1401 C.ar    1  UNL1        0.0257
     13 C           0.4874   -4.0987    0.7550 C.3     1  UNL1       -0.0237
     14 N           2.1416   -2.4178    0.0011 N.ar    1  UNL1       -0.3578
     15 C           2.1978   -1.2333   -0.5645 C.ar    1  UNL1        0.0438
     16 C           3.3868   -0.4279   -0.8713 C.2     1  UNL1       -0.0253
     17 C           4.2974   -0.0775    0.0100 C.2     1  UNL1        0.0479
     18 C           4.2920   -0.4106    1.4258 C.2     1  UNL1        0.2490
     19 O           3.4354   -1.0776    2.0478 O.2     1  UNL1       -0.2698
     20 N           5.4786    0.1897    1.9678 N.am    1  UNL1       -0.2809
     21 C           6.1927    0.8651    0.9451 C.ar    1  UNL1        0.0417
     22 C           7.3802    1.5811    1.0107 C.ar    1  UNL1       -0.0372
     23 C           7.8872    2.1647   -0.1480 C.ar    1  UNL1       -0.0247
     24 C           7.2246    2.0377   -1.3486 C.ar    1  UNL1        0.1241
     25 F           7.7247    2.6126   -2.4736 F       1  UNL1       -0.2055
     26 C           6.0409    1.3144   -1.3721 C.ar    1  UNL1       -0.0168
     27 C           5.5156    0.7271   -0.2437 C.ar    1  UNL1        0.0111
     28 C           0.8705   -0.8245   -0.8040 C.ar    1  UNL1       -0.0134
     29 C           0.4946    0.4410   -1.4293 C.3     1  UNL1       -0.0370
     30 H          -3.2179   -0.0021    1.7767 H       1  UNL1        0.0242
     31 H          -4.7503   -0.7648    2.2913 H       1  UNL1        0.0242
     32 H          -4.1530    0.6824    3.1118 H       1  UNL1        0.0242
     33 H          -5.1401    2.0848    1.6799 H       1  UNL1        0.0424
     34 H          -5.9900    0.6616    1.0051 H       1  UNL1        0.0424
     35 H          -5.2291    3.1855   -0.0575 H       1  UNL1        0.0424
     36 H          -4.6073    2.6705   -1.7239 H       1  UNL1        0.0424
     37 H          -7.1201    2.9191   -1.2949 H       1  UNL1        0.0242
     38 H          -6.5962    1.4826   -2.1877 H       1  UNL1        0.0242
     39 H          -7.1009    1.3441   -0.4934 H       1  UNL1        0.0242
     40 H          -5.6404   -0.1512   -0.9254 H       1  UNL1        0.0442
     41 H          -4.4093    0.4213   -2.0750 H       1  UNL1        0.0442
     42 H          -3.9350   -1.7942   -1.5290 H       1  UNL1        0.0475
     43 H          -4.0543   -1.5823    0.2336 H       1  UNL1        0.0475
     44 H          -1.9257    0.0671   -0.9299 H       1  UNL1        0.1491
     45 H          -0.4898   -4.1462    1.2197 H       1  UNL1        0.0292
     46 H           1.2266   -4.2704    1.5938 H       1  UNL1        0.0292
     47 H           0.6927   -4.9415    0.0395 H       1  UNL1        0.0292
     48 H           2.9878   -3.0060    0.2933 H       1  UNL1        0.1656
     49 H           3.5332   -0.0966   -1.8873 H       1  UNL1        0.0646
     50 H           5.7101    0.0981    2.9708 H       1  UNL1        0.1552
     51 H           7.9318    1.7069    1.9309 H       1  UNL1        0.0637
     52 H           8.8096    2.7292   -0.1291 H       1  UNL1        0.0647
     53 H           5.5005    1.1975   -2.2925 H       1  UNL1        0.0653
     54 H           1.4406    0.9342   -1.8322 H       1  UNL1        0.0278
     55 H           0.1025    1.2221   -0.7524 H       1  UNL1        0.0278
     56 H          -0.0984    0.3308   -2.3851 H       1  UNL1        0.0278
@<TRIPOS>BOND
     1     1     2    1
     2     2     3    1
     3     3     4    1
     4     4     5    1
     5     3     6    1
     6     6     7    1
     7     7     8    1
     8     8     9   am
     9     9    10    2
    10     9    11    1
    11    11    12   ar
    12    12    13    1
    13    12    14   ar
    14    14    15   ar
    15    15    16    1
    16    16    17    2
    17    17    18    1
    18    18    19    2
    19    18    20   am
    20    20    21    1
    21    21    22   ar
    22    22    23   ar
    23    23    24   ar
    24    24    25    1
    25    24    26   ar
    26    26    27   ar
    27    15    28   ar
    28    28    29    1
    29    28    11   ar
    30    27    17    1
    31    27    21   ar
    32     1    30    1
    33     1    31    1
    34     1    32    1
    35     2    33    1
    36     2    34    1
    37     4    35    1
    38     4    36    1
    39     5    37    1
    40     5    38    1
    41     5    39    1
    42     6    40    1
    43     6    41    1
    44     7    42    1
    45     7    43    1
    46     8    44    1
    47    13    45    1
    48    13    46    1
    49    13    47    1
    50    14    48    1
    51    16    49    1
    52    20    50    1
    53    22    51    1
    54    23    52    1
    55    26    53    1
    56    29    54    1
    57    29    55    1
    58    29    56    1
