
     RDKit          3D

 56 58  0  0  0  0  0  0  0  0999 V2000
   -4.2546    0.1990    2.0870 C   0  0  0  0  0  0  0  0  0  0  0  0
   -4.9770    1.1095    1.1579 C   0  0  0  0  0  0  0  0  0  0  0  0
   -4.3906    1.2856   -0.1433 N   0  0  0  0  0  0  0  0  0  0  0  0
   -5.1548    2.3539   -0.8036 C   0  0  0  0  0  0  0  0  0  0  0  0
   -6.5406    1.9656   -1.1809 C   0  0  0  0  0  0  0  0  0  0  0  0
   -4.5451    0.1426   -1.0054 C   0  0  0  0  0  0  0  0  0  0  0  0
   -3.7798   -1.0757   -0.6775 C   0  0  0  0  0  0  0  0  0  0  0  0
   -2.3315   -0.8517   -0.6936 N   0  0  0  0  0  0  0  0  0  0  0  0
   -1.4180   -1.8882   -0.3792 C   0  0  0  0  0  0  0  0  0  0  0  0
   -1.9921   -2.9989   -0.0826 O   0  0  0  0  0  0  0  0  0  0  0  0
    0.0100   -1.7955   -0.3652 C   0  0  0  0  0  0  0  0  0  0  0  0
    0.8485   -2.7944    0.1401 C   0  0  0  0  0  0  0  0  0  0  0  0
    0.4874   -4.0987    0.7550 C   0  0  0  0  0  0  0  0  0  0  0  0
    2.1416   -2.4178    0.0011 N   0  0  0  0  0  0  0  0  0  0  0  0
    2.1978   -1.2333   -0.5645 C   0  0  0  0  0  0  0  0  0  0  0  0
    3.3868   -0.4279   -0.8713 C   0  0  0  0  0  0  0  0  0  0  0  0
    4.2974   -0.0775    0.0100 C   0  0  0  0  0  0  0  0  0  0  0  0
    4.2920   -0.4106    1.4258 C   0  0  0  0  0  0  0  0  0  0  0  0
    3.4354   -1.0776    2.0478 O   0  0  0  0  0  0  0  0  0  0  0  0
    5.4786    0.1897    1.9678 N   0  0  0  0  0  0  0  0  0  0  0  0
    6.1927    0.8651    0.9451 C   0  0  0  0  0  0  0  0  0  0  0  0
    7.3802    1.5811    1.0107 C   0  0  0  0  0  0  0  0  0  0  0  0
    7.8872    2.1647   -0.1480 C   0  0  0  0  0  0  0  0  0  0  0  0
    7.2246    2.0377   -1.3486 C   0  0  0  0  0  0  0  0  0  0  0  0
    7.7247    2.6126   -2.4736 F   0  0  0  0  0  0  0  0  0  0  0  0
    6.0409    1.3144   -1.3721 C   0  0  0  0  0  0  0  0  0  0  0  0
    5.5156    0.7271   -0.2437 C   0  0  0  0  0  0  0  0  0  0  0  0
    0.8705   -0.8245   -0.8040 C   0  0  0  0  0  0  0  0  0  0  0  0
    0.4946    0.4410   -1.4293 C   0  0  0  0  0  0  0  0  0  0  0  0
   -3.2179   -0.0021    1.7767 H   0  0  0  0  0  0  0  0  0  0  0  0
   -4.7503   -0.7648    2.2913 H   0  0  0  0  0  0  0  0  0  0  0  0
   -4.1530    0.6824    3.1118 H   0  0  0  0  0  0  0  0  0  0  0  0
   -5.1401    2.0848    1.6799 H   0  0  0  0  0  0  0  0  0  0  0  0
   -5.9900    0.6616    1.0051 H   0  0  0  0  0  0  0  0  0  0  0  0
   -5.2291    3.1855   -0.0575 H   0  0  0  0  0  0  0  0  0  0  0  0
   -4.6073    2.6705   -1.7239 H   0  0  0  0  0  0  0  0  0  0  0  0
   -7.1201    2.9191   -1.2949 H   0  0  0  0  0  0  0  0  0  0  0  0
   -6.5962    1.4826   -2.1877 H   0  0  0  0  0  0  0  0  0  0  0  0
   -7.1009    1.3441   -0.4934 H   0  0  0  0  0  0  0  0  0  0  0  0
   -5.6404   -0.1512   -0.9254 H   0  0  0  0  0  0  0  0  0  0  0  0
   -4.4093    0.4213   -2.0750 H   0  0  0  0  0  0  0  0  0  0  0  0
   -3.9350   -1.7942   -1.5290 H   0  0  0  0  0  0  0  0  0  0  0  0
   -4.0543   -1.5823    0.2336 H   0  0  0  0  0  0  0  0  0  0  0  0
   -1.9257    0.0671   -0.9299 H   0  0  0  0  0  0  0  0  0  0  0  0
   -0.4898   -4.1462    1.2197 H   0  0  0  0  0  0  0  0  0  0  0  0
    1.2266   -4.2704    1.5938 H   0  0  0  0  0  0  0  0  0  0  0  0
    0.6927   -4.9415    0.0395 H   0  0  0  0  0  0  0  0  0  0  0  0
    2.9878   -3.0060    0.2933 H   0  0  0  0  0  0  0  0  0  0  0  0
    3.5332   -0.0966   -1.8873 H   0  0  0  0  0  0  0  0  0  0  0  0
    5.7101    0.0981    2.9708 H   0  0  0  0  0  0  0  0  0  0  0  0
    7.9318    1.7069    1.9309 H   0  0  0  0  0  0  0  0  0  0  0  0
    8.8096    2.7292   -0.1291 H   0  0  0  0  0  0  0  0  0  0  0  0
    5.5005    1.1975   -2.2925 H   0  0  0  0  0  0  0  0  0  0  0  0
    1.4406    0.9342   -1.8322 H   0  0  0  0  0  0  0  0  0  0  0  0
    0.1025    1.2221   -0.7524 H   0  0  0  0  0  0  0  0  0  0  0  0
   -0.0984    0.3308   -2.3851 H   0  0  0  0  0  0  0  0  0  0  0  0
  1  2  1  0
  2  3  1  0
  3  4  1  0
  4  5  1  0
  3  6  1  0
  6  7  1  0
  7  8  1  0
  8  9  1  0
  9 10  2  0
  9 11  1  0
 11 12  2  0
 12 13  1  0
 12 14  1  0
 14 15  1  0
 15 16  1  0
 16 17  2  0
 17 18  1  0
 18 19  2  0
 18 20  1  0
 20 21  1  0
 21 22  2  0
 22 23  1  0
 23 24  2  0
 24 25  1  0
 24 26  1  0
 26 27  2  0
 15 28  2  0
 28 29  1  0
 28 11  1  0
 27 17  1  0
 27 21  1  0
  1 30  1  0
  1 31  1  0
  1 32  1  0
  2 33  1  0
  2 34  1  0
  4 35  1  0
  4 36  1  0
  5 37  1  0
  5 38  1  0
  5 39  1  0
  6 40  1  0
  6 41  1  0
  7 42  1  0
  7 43  1  0
  8 44  1  0
 13 45  1  0
 13 46  1  0
 13 47  1  0
 14 48  1  0
 16 49  1  0
 20 50  1  0
 22 51  1  0
 23 52  1  0
 26 53  1  0
 29 54  1  0
 29 55  1  0
 29 56  1  0
M  END
$$$$
