@<TRIPOS>MOLECULE
*****
 38 39 0 0 0
SMALL
GASTEIGER

@<TRIPOS>ATOM
      1 O           0.8227    1.1950    1.9277 O.3     1  UNL1       -0.3890
      2 C          -0.1039    0.3856    1.2891 C.3     1  UNL1        0.0877
      3 C          -1.4746    1.0678    1.1692 C.3     1  UNL1        0.0214
      4 C          -1.9471    0.5731   -0.1585 C.3     1  UNL1        0.1422
      5 O          -1.0522   -0.4383   -0.5655 O.3     1  UNL1       -0.3483
      6 C           0.1610    0.1662   -0.1629 C.3     1  UNL1        0.1108
      7 C           1.3630   -0.6620   -0.4754 C.3     1  UNL1        0.0878
      8 O           2.5739   -0.1351   -0.1113 O.3     1  UNL1       -0.2837
      9 P           3.7574   -1.2787   -0.5824 P.3     1  UNL1        0.4834
     10 O           3.8972   -2.5230    0.5303 O.3     1  UNL1       -0.3022
     11 O           3.2704   -1.8613   -1.8969 O.2     1  UNL1       -0.2269
     12 O           5.2292   -0.5218   -0.9002 O.3     1  UNL1       -0.1862
     13 P           5.3743    0.9501   -0.0948 P.3     1  UNL1        0.4808
     14 O           6.4509    1.9172   -0.9704 O.3     1  UNL1       -0.3023
     15 O           5.9706    0.7449    1.4738 O.3     1  UNL1       -0.3023
     16 O           4.0420    1.6174   -0.0044 O.2     1  UNL1       -0.2271
     17 N          -3.3072    0.1370   -0.2022 N.ar    1  UNL1       -0.2740
     18 C          -4.1670    0.5980   -1.1575 C.ar    1  UNL1        0.0170
     19 C          -5.4839    0.1923   -1.2206 C.ar    1  UNL1        0.0192
     20 C          -6.0024   -0.7079   -0.3132 C.ar    1  UNL1        0.2539
     21 O          -7.1698   -1.1335   -0.2862 O.2     1  UNL1       -0.2677
     22 N          -5.1097   -1.1328    0.6108 N.ar    1  UNL1       -0.2749
     23 C          -3.8045   -0.7415    0.6870 C.ar    1  UNL1        0.3313
     24 O          -3.0845   -1.2209    1.6044 O.2     1  UNL1       -0.2464
     25 H           1.3035    0.6298    2.5867 H       1  UNL1        0.2099
     26 H          -0.2816   -0.5781    1.7929 H       1  UNL1        0.0621
     27 H          -2.1282    0.8718    2.0192 H       1  UNL1        0.0335
     28 H          -1.2355    2.1690    1.1035 H       1  UNL1        0.0335
     29 H          -1.8055    1.3742   -0.9314 H       1  UNL1        0.0840
     30 H           0.1748    1.1510   -0.6695 H       1  UNL1        0.0646
     31 H           1.2351   -1.6990   -0.1188 H       1  UNL1        0.0592
     32 H           1.3868   -0.7505   -1.5961 H       1  UNL1        0.0592
     33 H           4.8428   -2.8552    0.6122 H       1  UNL1        0.2220
     34 H           5.9494    2.6334   -1.4012 H       1  UNL1        0.2220
     35 H           5.8200   -0.1791    1.8083 H       1  UNL1        0.2220
     36 H          -3.8554    1.2996   -1.9050 H       1  UNL1        0.0813
     37 H          -6.1603    0.5692   -1.9898 H       1  UNL1        0.0686
     38 H          -5.4519   -1.8238    1.3316 H       1  UNL1        0.1734
@<TRIPOS>BOND
     1     1     2    1
     2     2     3    1
     3     3     4    1
     4     4     5    1
     5     5     6    1
     6     6     7    1
     7     7     8    1
     8     8     9    1
     9     9    10    1
    10     9    11    2
    11     9    12    1
    12    12    13    1
    13    13    14    1
    14    13    15    1
    15    13    16    2
    16     4    17    1
    17    17    18   ar
    18    18    19   ar
    19    19    20   ar
    20    20    21    2
    21    20    22   ar
    22    22    23   ar
    23    23    24    2
    24     6     2    1
    25    23    17   ar
    26     1    25    1
    27     2    26    1
    28     3    27    1
    29     3    28    1
    30     4    29    1
    31     6    30    1
    32     7    31    1
    33     7    32    1
    34    10    33    1
    35    14    34    1
    36    15    35    1
    37    18    36    1
    38    19    37    1
    39    22    38    1
