@<TRIPOS>MOLECULE
*****
 43 45 0 0 0
SMALL
GASTEIGER

@<TRIPOS>ATOM
      1 C          -4.6029   -1.1946    1.1742 C.3     1  UNL1       -0.0444
      2 C          -3.8378   -0.5973   -0.0124 C.3     1  UNL1        0.0316
      3 C          -4.6417   -0.8721   -1.2580 C.3     1  UNL1       -0.0444
      4 N          -2.5459   -1.2299   -0.0514 N.ar    1  UNL1       -0.3138
      5 C          -2.3488   -2.5515   -0.1161 C.ar    1  UNL1        0.0985
      6 N          -1.0260   -2.7853   -0.1361 N.ar    1  UNL1       -0.2304
      7 C          -0.3566   -1.6183   -0.0846 C.ar    1  UNL1        0.1501
      8 C          -1.3351   -0.6454   -0.0315 C.ar    1  UNL1        0.1447
      9 N          -0.9357    0.6583    0.0284 N.ar    1  UNL1       -0.3121
     10 C           0.3841    1.0057    0.0362 C.ar    1  UNL1        0.1965
     11 N           0.6952    2.4074    0.1014 N.pl3   1  UNL1       -0.3127
     12 C          -0.4190    3.3320    0.1531 C.3     1  UNL1        0.0349
     13 C           0.1443    4.7561    0.2176 C.3     1  UNL1        0.0597
     14 O           0.9136    5.0108   -0.8999 O.3     1  UNL1       -0.3935
     15 N           1.3494    0.0676   -0.0152 N.ar    1  UNL1       -0.1946
     16 C           0.9726   -1.2209   -0.0745 C.ar    1  UNL1        0.1857
     17 N           1.8098   -2.1906   -0.1265 N.2     1  UNL1       -0.2264
     18 C           3.2099   -1.9340   -0.1236 C.ar    1  UNL1        0.0677
     19 C           3.7592   -2.2807    1.1107 C.ar    1  UNL1       -0.0362
     20 C           5.1245   -2.1183    1.3555 C.ar    1  UNL1       -0.0584
     21 C           5.9319   -1.6038    0.3468 C.ar    1  UNL1       -0.0433
     22 C           5.3717   -1.2722   -0.8513 C.ar    1  UNL1        0.0430
     23 CL          6.3076   -0.6152   -2.1879 Cl      1  UNL1       -0.0835
     24 C           4.0275   -1.4255   -1.1107 C.ar    1  UNL1       -0.0179
     25 H          -4.1828   -0.7710    2.1094 H       1  UNL1        0.0249
     26 H          -5.6617   -0.9397    1.0200 H       1  UNL1        0.0249
     27 H          -4.4819   -2.2907    1.0924 H       1  UNL1        0.0249
     28 H          -3.7840    0.4857    0.1829 H       1  UNL1        0.0523
     29 H          -5.6353   -1.3135   -1.0220 H       1  UNL1        0.0249
     30 H          -4.8645    0.0665   -1.8178 H       1  UNL1        0.0249
     31 H          -4.1398   -1.5632   -1.9690 H       1  UNL1        0.0249
     32 H          -3.0427   -3.3741   -0.1509 H       1  UNL1        0.1029
     33 H          -1.7084    1.3600    0.0672 H       1  UNL1        0.1700
     34 H           1.6940    2.7080    0.1091 H       1  UNL1        0.1489
     35 H          -1.0687    3.2787   -0.7537 H       1  UNL1        0.0484
     36 H          -1.0006    3.0919    1.0484 H       1  UNL1        0.0484
     37 H          -0.6620    5.4964    0.3152 H       1  UNL1        0.0573
     38 H           0.8052    4.7762    1.1240 H       1  UNL1        0.0573
     39 H           0.4587    5.6249   -1.5451 H       1  UNL1        0.2095
     40 H           3.2372   -2.6902    1.9750 H       1  UNL1        0.0639
     41 H           5.5950   -2.3728    2.2958 H       1  UNL1        0.0619
     42 H           7.0121   -1.4565    0.4888 H       1  UNL1        0.0632
     43 H           3.4782   -1.1988   -2.0142 H       1  UNL1        0.0653
@<TRIPOS>BOND
     1     1     2    1
     2     2     3    1
     3     2     4    1
     4     4     5   ar
     5     5     6   ar
     6     6     7   ar
     7     7     8   ar
     8     8     9   ar
     9     9    10   ar
    10    10    11    1
    11    11    12    1
    12    12    13    1
    13    13    14    1
    14    10    15   ar
    15    15    16   ar
    16    16    17    2
    17    17    18    1
    18    18    19   ar
    19    19    20   ar
    20    20    21   ar
    21    21    22   ar
    22    22    23    1
    23    22    24   ar
    24     8     4   ar
    25    24    18   ar
    26    16     7   ar
    27     1    25    1
    28     1    26    1
    29     1    27    1
    30     2    28    1
    31     3    29    1
    32     3    30    1
    33     3    31    1
    34     5    32    1
    35     9    33    1
    36    11    34    1
    37    12    35    1
    38    12    36    1
    39    13    37    1
    40    13    38    1
    41    14    39    1
    42    19    40    1
    43    20    41    1
    44    21    42    1
    45    24    43    1
