
     RDKit          3D

 46 49  0  0  0  0  0  0  0  0999 V2000
    7.9144    0.0271   -0.6336 O   0  0  0  0  0  0  0  0  0  0  0  0
    6.9646    0.7952   -0.4389 N   0  0  0  0  0  4  0  0  0  0  0  0
    7.1822    2.1412   -0.4373 O   0  0  0  0  0  1  0  0  0  0  0  0
    5.6608    0.2976   -0.2187 C   0  0  0  0  0  0  0  0  0  0  0  0
    4.6037    1.1649   -0.0017 C   0  0  0  0  0  0  0  0  0  0  0  0
    3.3292    0.6964    0.2143 C   0  0  0  0  0  0  0  0  0  0  0  0
    3.1068   -0.6691    0.2136 C   0  0  0  0  0  0  0  0  0  0  0  0
    1.7404   -1.2407    0.4426 C   0  0  0  0  0  0  0  0  0  0  0  0
    0.9894   -1.4300   -0.7518 N   0  0  0  0  0  0  0  0  0  0  0  0
   -0.0285   -0.8272   -1.1377 N   0  0  0  0  0  0  0  0  0  0  0  0
   -0.7285    0.2076   -0.5132 C   0  0  0  0  0  0  0  0  0  0  0  0
   -0.5708    1.4670   -0.9577 N   0  0  0  0  0  0  0  0  0  0  0  0
   -1.2089    2.5149   -0.4019 C   0  0  0  0  0  0  0  0  0  0  0  0
   -1.0460    3.8099   -0.8629 C   0  0  0  0  0  0  0  0  0  0  0  0
   -1.7057    4.8874   -0.2898 C   0  0  0  0  0  0  0  0  0  0  0  0
   -2.5501    4.6436    0.7758 C   0  0  0  0  0  0  0  0  0  0  0  0
   -2.7133    3.3392    1.2391 C   0  0  0  0  0  0  0  0  0  0  0  0
   -2.0537    2.2822    0.6619 C   0  0  0  0  0  0  0  0  0  0  0  0
   -2.2027    1.0321    1.0941 N   0  0  0  0  0  0  0  0  0  0  0  0
   -1.5617   -0.0417    0.5395 C   0  0  0  0  0  0  0  0  0  0  0  0
   -1.8346   -1.3717    1.1148 C   0  0  0  0  0  0  0  0  0  0  0  0
   -2.7791   -2.1613    0.3001 C   0  0  0  0  0  0  0  0  0  0  0  0
   -4.1268   -1.9328    0.4957 C   0  0  0  0  0  0  0  0  0  0  0  0
   -5.0143   -2.6701   -0.2567 C   0  0  0  0  0  0  0  0  0  0  0  0
   -4.5828   -3.6043   -1.1738 C   0  0  0  0  0  0  0  0  0  0  0  0
   -3.2328   -3.8086   -1.3451 C   0  0  0  0  0  0  0  0  0  0  0  0
   -2.3147   -3.0836   -0.6040 C   0  0  0  0  0  0  0  0  0  0  0  0
    4.1696   -1.5258   -0.0040 C   0  0  0  0  0  0  0  0  0  0  0  0
    5.4420   -1.0806   -0.2204 C   0  0  0  0  0  0  0  0  0  0  0  0
    4.7369    2.2519    0.0063 H   0  0  0  0  0  0  0  0  0  0  0  0
    2.4912    1.3726    0.3860 H   0  0  0  0  0  0  0  0  0  0  0  0
    1.2410   -0.5463    1.1612 H   0  0  0  0  0  0  0  0  0  0  0  0
    1.9212   -2.2041    1.0018 H   0  0  0  0  0  0  0  0  0  0  0  0
   -0.3897    3.9943   -1.6903 H   0  0  0  0  0  0  0  0  0  0  0  0
   -1.5759    5.8932   -0.6519 H   0  0  0  0  0  0  0  0  0  0  0  0
   -3.0632    5.4857    1.2197 H   0  0  0  0  0  0  0  0  0  0  0  0
   -3.3730    3.1406    2.0729 H   0  0  0  0  0  0  0  0  0  0  0  0
   -0.9302   -2.0012    1.2451 H   0  0  0  0  0  0  0  0  0  0  0  0
   -2.2441   -1.2558    2.1540 H   0  0  0  0  0  0  0  0  0  0  0  0
   -4.4777   -1.1883    1.2270 H   0  0  0  0  0  0  0  0  0  0  0  0
   -6.0675   -2.5053   -0.1167 H   0  0  0  0  0  0  0  0  0  0  0  0
   -5.3029   -4.1549   -1.7377 H   0  0  0  0  0  0  0  0  0  0  0  0
   -2.8749   -4.5386   -2.0613 H   0  0  0  0  0  0  0  0  0  0  0  0
   -1.2402   -3.2757   -0.7607 H   0  0  0  0  0  0  0  0  0  0  0  0
    4.0093   -2.6001   -0.0071 H   0  0  0  0  0  0  0  0  0  0  0  0
    6.2915   -1.7268   -0.3934 H   0  0  0  0  0  0  0  0  0  0  0  0
  1  2  2  0
  2  3  1  0
  2  4  1  0
  4  5  2  0
  5  6  1  0
  6  7  2  0
  7  8  1  0
  8  9  1  0
  9 10  2  3
 10 11  1  0
 11 12  2  0
 12 13  1  0
 13 14  2  0
 14 15  1  0
 15 16  2  0
 16 17  1  0
 17 18  2  0
 18 19  1  0
 19 20  2  0
 20 21  1  0
 21 22  1  0
 22 23  2  0
 23 24  1  0
 24 25  2  0
 25 26  1  0
 26 27  2  0
  7 28  1  0
 28 29  2  0
 29  4  1  0
 20 11  1  0
 27 22  1  0
 18 13  1  0
  5 30  1  0
  6 31  1  0
  8 32  1  0
  8 33  1  0
 14 34  1  0
 15 35  1  0
 16 36  1  0
 17 37  1  0
 21 38  1  0
 21 39  1  0
 23 40  1  0
 24 41  1  0
 25 42  1  0
 26 43  1  0
 27 44  1  0
 28 45  1  0
 29 46  1  0
M  CHG  2   2   1   3  -1
M  END
$$$$
