@<TRIPOS>MOLECULE
*****
 46 49 0 0 0
SMALL
GASTEIGER

@<TRIPOS>ATOM
      1 O           7.9144    0.0271   -0.6336 O.2     1  UNL1        0.0414
      2 N           6.9646    0.7952   -0.4389 N.pl3   1  UNL1        0.0796
      3 O           7.1822    2.1412   -0.4373 O.co2   1  UNL1       -0.5760
      4 C           5.6608    0.2976   -0.2187 C.ar    1  UNL1        0.2732
      5 C           4.6037    1.1649   -0.0017 C.ar    1  UNL1        0.0159
      6 C           3.3292    0.6964    0.2143 C.ar    1  UNL1       -0.0504
      7 C           3.1068   -0.6691    0.2136 C.ar    1  UNL1       -0.0240
      8 C           1.7404   -1.2407    0.4426 C.3     1  UNL1        0.0858
      9 N           0.9894   -1.4300   -0.7518 N.2     1  UNL1       -0.1808
     10 N          -0.0285   -0.8272   -1.1377 N.2     1  UNL1       -0.1323
     11 C          -0.7285    0.2076   -0.5132 C.ar    1  UNL1        0.1966
     12 N          -0.5708    1.4670   -0.9577 N.ar    1  UNL1       -0.2233
     13 C          -1.2089    2.5149   -0.4019 C.ar    1  UNL1        0.0916
     14 C          -1.0460    3.8099   -0.8629 C.ar    1  UNL1       -0.0342
     15 C          -1.7057    4.8874   -0.2898 C.ar    1  UNL1       -0.0596
     16 C          -2.5501    4.6436    0.7758 C.ar    1  UNL1       -0.0596
     17 C          -2.7133    3.3392    1.2391 C.ar    1  UNL1       -0.0342
     18 C          -2.0537    2.2822    0.6619 C.ar    1  UNL1        0.0896
     19 N          -2.2027    1.0321    1.0941 N.ar    1  UNL1       -0.2460
     20 C          -1.5617   -0.0417    0.5395 C.ar    1  UNL1        0.0920
     21 C          -1.8346   -1.3717    1.1148 C.3     1  UNL1        0.0185
     22 C          -2.7791   -2.1613    0.3001 C.ar    1  UNL1       -0.0415
     23 C          -4.1268   -1.9328    0.4957 C.ar    1  UNL1       -0.0582
     24 C          -5.0143   -2.6701   -0.2567 C.ar    1  UNL1       -0.0615
     25 C          -4.5828   -3.6043   -1.1738 C.ar    1  UNL1       -0.0617
     26 C          -3.2328   -3.8086   -1.3451 C.ar    1  UNL1       -0.0615
     27 C          -2.3147   -3.0836   -0.6040 C.ar    1  UNL1       -0.0582
     28 C           4.1696   -1.5258   -0.0040 C.ar    1  UNL1       -0.0504
     29 C           5.4420   -1.0806   -0.2204 C.ar    1  UNL1        0.0159
     30 H           4.7369    2.2519    0.0063 H       1  UNL1        0.0685
     31 H           2.4912    1.3726    0.3860 H       1  UNL1        0.0623
     32 H           1.2410   -0.5463    1.1612 H       1  UNL1        0.0576
     33 H           1.9212   -2.2041    1.0018 H       1  UNL1        0.0576
     34 H          -0.3897    3.9943   -1.6903 H       1  UNL1        0.0639
     35 H          -1.5759    5.8932   -0.6519 H       1  UNL1        0.0618
     36 H          -3.0632    5.4857    1.2197 H       1  UNL1        0.0618
     37 H          -3.3730    3.1406    2.0729 H       1  UNL1        0.0639
     38 H          -0.9302   -2.0012    1.2451 H       1  UNL1        0.0378
     39 H          -2.2441   -1.2558    2.1540 H       1  UNL1        0.0378
     40 H          -4.4777   -1.1883    1.2270 H       1  UNL1        0.0620
     41 H          -6.0675   -2.5053   -0.1167 H       1  UNL1        0.0618
     42 H          -5.3029   -4.1549   -1.7377 H       1  UNL1        0.0618
     43 H          -2.8749   -4.5386   -2.0613 H       1  UNL1        0.0618
     44 H          -1.2402   -3.2757   -0.7607 H       1  UNL1        0.0620
     45 H           4.0093   -2.6001   -0.0071 H       1  UNL1        0.0623
     46 H           6.2915   -1.7268   -0.3934 H       1  UNL1        0.0685
@<TRIPOS>UNITY_ATOM_ATTR
2 1
charge 1
3 1
charge -1
@<TRIPOS>BOND
     1     1     2    2
     2     2     3    1
     3     2     4    1
     4     4     5   ar
     5     5     6   ar
     6     6     7   ar
     7     7     8    1
     8     8     9    1
     9     9    10    2
    10    10    11    1
    11    11    12   ar
    12    12    13   ar
    13    13    14   ar
    14    14    15   ar
    15    15    16   ar
    16    16    17   ar
    17    17    18   ar
    18    18    19   ar
    19    19    20   ar
    20    20    21    1
    21    21    22    1
    22    22    23   ar
    23    23    24   ar
    24    24    25   ar
    25    25    26   ar
    26    26    27   ar
    27     7    28   ar
    28    28    29   ar
    29    29     4   ar
    30    20    11   ar
    31    27    22   ar
    32    18    13   ar
    33     5    30    1
    34     6    31    1
    35     8    32    1
    36     8    33    1
    37    14    34    1
    38    15    35    1
    39    16    36    1
    40    17    37    1
    41    21    38    1
    42    21    39    1
    43    23    40    1
    44    24    41    1
    45    25    42    1
    46    26    43    1
    47    27    44    1
    48    28    45    1
    49    29    46    1
