@<TRIPOS>MOLECULE
*****
 45 48 0 0 0
SMALL
GASTEIGER

@<TRIPOS>ATOM
      1 N           6.5499   -2.4973    0.3531 N.pl3   1  UNL1       -0.2466
      2 C           6.4832   -1.2738    1.1111 C.2     1  UNL1        0.3082
      3 N           7.4821   -0.9567    1.8615 N.2     1  UNL1       -0.0994
      4 C           5.2508   -0.4750    0.9579 C.ar    1  UNL1        0.0668
      5 C           4.5692   -0.5232   -0.2366 C.ar    1  UNL1       -0.0214
      6 C           3.4153    0.2313   -0.3630 C.ar    1  UNL1        0.0672
      7 C           2.9405    1.0183    0.6654 C.ar    1  UNL1        0.0894
      8 C           3.6452    1.0469    1.8520 C.ar    1  UNL1       -0.0334
      9 C           4.8018    0.3079    2.0180 C.ar    1  UNL1       -0.0448
     10 N           1.8117    1.5818    0.1456 N.ar    1  UNL1       -0.2266
     11 C           1.6404    1.1461   -1.1151 C.ar    1  UNL1        0.1760
     12 N           2.6242    0.3086   -1.4473 N.ar    1  UNL1       -0.3371
     13 C           0.4996    1.5757   -1.9581 C.3     1  UNL1        0.2854
     14 O           0.6142    1.0883   -3.2618 O.3     1  UNL1       -0.3531
     15 O           0.5488    2.9797   -1.9739 O.3     1  UNL1       -0.3531
     16 C          -0.7926    1.0968   -1.4055 C.ar    1  UNL1        0.1760
     17 N          -0.9339   -0.2411   -1.4135 N.ar    1  UNL1       -0.2266
     18 C          -2.1397   -0.5611   -0.8908 C.ar    1  UNL1        0.0894
     19 C          -2.7125    0.6505   -0.5700 C.ar    1  UNL1        0.0672
     20 N          -1.8872    1.6665   -0.8853 N.ar    1  UNL1       -0.3371
     21 C          -3.9684    0.7407   -0.0036 C.ar    1  UNL1       -0.0217
     22 C          -4.6200   -0.4715    0.2230 C.ar    1  UNL1        0.0596
     23 C          -4.0510   -1.6926   -0.0966 C.ar    1  UNL1       -0.0450
     24 C          -2.7944   -1.7551   -0.6618 C.ar    1  UNL1       -0.0334
     25 C          -5.9596   -0.5110    0.8201 C.2     1  UNL1        0.2329
     26 N          -6.5560    0.3866    1.7480 N.pl3   1  UNL1       -0.3695
     27 N          -6.7707   -1.4778    0.4999 N.2     1  UNL1       -0.2910
     28 H           5.8729   -3.2902    0.4785 H       1  UNL1        0.2884
     29 H           7.2519   -2.7346   -0.3835 H       1  UNL1        0.2884
     30 H           7.5294   -0.0978    2.4448 H       1  UNL1        0.3633
     31 H           4.9377   -1.1476   -1.0644 H       1  UNL1        0.0647
     32 H           3.2447    1.6762    2.6413 H       1  UNL1        0.0640
     33 H           5.3506    0.3330    2.9480 H       1  UNL1        0.0627
     34 H           2.7054   -0.1599   -2.3798 H       1  UNL1        0.1672
     35 H           1.0480    1.7985   -3.7958 H       1  UNL1        0.2136
     36 H           0.1211    3.2657   -1.1291 H       1  UNL1        0.2136
     37 H          -1.9279    2.7019   -0.8120 H       1  UNL1        0.1672
     38 H          -4.4216    1.6690    0.2486 H       1  UNL1        0.0647
     39 H          -4.5640   -2.6360    0.0823 H       1  UNL1        0.0627
     40 H          -2.2660   -2.6460   -0.9454 H       1  UNL1        0.0640
     41 H          -7.5419    0.6095    1.4501 H       1  UNL1        0.2454
     42 H          -6.6790   -0.0808    2.6887 H       1  UNL1        0.2454
     43 H          -6.0500    1.2722    1.8395 H       1  UNL1        0.2454
     44 H          -7.7453   -1.6665    0.8187 H       1  UNL1        0.3008
     45 H          -6.5569   -2.2563   -0.1625 H       1  UNL1        0.3008
@<TRIPOS>UNITY_ATOM_ATTR
26 1
charge 1
27 1
charge 1
@<TRIPOS>BOND
     1     1     2    1
     2     2     3    2
     3     2     4    1
     4     4     5   ar
     5     5     6   ar
     6     6     7   ar
     7     7     8   ar
     8     8     9   ar
     9     7    10   ar
    10    10    11   ar
    11    11    12   ar
    12    11    13    1
    13    13    14    1
    14    13    15    1
    15    13    16    1
    16    16    17   ar
    17    17    18   ar
    18    18    19   ar
    19    19    20   ar
    20    19    21   ar
    21    21    22   ar
    22    22    23   ar
    23    23    24   ar
    24    22    25    1
    25    25    26    1
    26    25    27    2
    27     9     4   ar
    28    20    16   ar
    29    12     6   ar
    30    24    18   ar
    31     1    28    1
    32     1    29    1
    33     3    30    1
    34     5    31    1
    35     8    32    1
    36     9    33    1
    37    12    34    1
    38    14    35    1
    39    15    36    1
    40    20    37    1
    41    21    38    1
    42    23    39    1
    43    24    40    1
    44    26    41    1
    45    26    42    1
    46    26    43    1
    47    27    44    1
    48    27    45    1
