@<TRIPOS>MOLECULE
*****
 26 27 0 0 0
SMALL
GASTEIGER

@<TRIPOS>ATOM
      1 N          -4.3486    0.8368    1.6160 N.pl3   1  UNL1       -0.3407
      2 C          -3.1513    0.4649    0.9418 C.ar    1  UNL1        0.1586
      3 N          -2.0812    1.2161    1.2784 N.ar    1  UNL1       -0.1754
      4 C          -0.8645    0.9699    0.7075 C.ar    1  UNL1        0.3523
      5 O           0.1392    1.6527    1.0043 O.2     1  UNL1       -0.2444
      6 N          -0.8253   -0.0355   -0.1755 N.ar    1  UNL1       -0.2690
      7 C          -1.8556   -0.8169   -0.5501 C.ar    1  UNL1        0.0505
      8 C          -3.0854   -0.5678    0.0273 C.ar    1  UNL1        0.1790
      9 F          -4.1854   -1.2727   -0.2604 F       1  UNL1       -0.2004
     10 C           0.4444   -0.3071   -0.7841 C.3     1  UNL1        0.1499
     11 C           0.7067   -1.8085   -0.9664 C.3     1  UNL1        0.0418
     12 S           2.4941   -1.6224   -1.3783 S.3     1  UNL1       -0.1230
     13 C           2.6026    0.1277   -0.8845 C.3     1  UNL1        0.1297
     14 C           3.8798    0.4084   -0.1380 C.3     1  UNL1        0.0798
     15 O           3.8538    1.6720    0.4360 O.3     1  UNL1       -0.3916
     16 O           1.4882    0.1854   -0.0464 O.3     1  UNL1       -0.3397
     17 H          -5.3067    1.2454    1.5933 H       1  UNL1        0.1438
     18 H          -4.9869    1.2479    0.8967 H       1  UNL1        0.1438
     19 H          -1.7414   -1.6122   -1.2730 H       1  UNL1        0.0842
     20 H           0.5067    0.1312   -1.8107 H       1  UNL1        0.0848
     21 H           0.5893   -2.3719   -0.0260 H       1  UNL1        0.0421
     22 H           0.1367   -2.1929   -1.8185 H       1  UNL1        0.0421
     23 H           2.4315    0.7994   -1.7236 H       1  UNL1        0.0736
     24 H           4.1276   -0.3863    0.5919 H       1  UNL1        0.0592
     25 H           4.6949    0.3578   -0.9007 H       1  UNL1        0.0592
     26 H           4.3369    1.6787    1.2935 H       1  UNL1        0.2095
@<TRIPOS>BOND
     1     1     2    1
     2     2     3   ar
     3     3     4   ar
     4     4     5    2
     5     4     6   ar
     6     6     7   ar
     7     7     8   ar
     8     8     9    1
     9     6    10    1
    10    10    11    1
    11    11    12    1
    12    12    13    1
    13    13    14    1
    14    14    15    1
    15    13    16    1
    16     8     2   ar
    17    16    10    1
    18     1    17    1
    19     1    18    1
    20     7    19    1
    21    10    20    1
    22    11    21    1
    23    11    22    1
    24    13    23    1
    25    14    24    1
    26    14    25    1
    27    15    26    1
