@<TRIPOS>MOLECULE
*****
 45 48 0 0 0
SMALL
GASTEIGER

@<TRIPOS>ATOM
      1 C          -2.8001   -0.4254   -2.7481 C.3     1  UNL1       -0.0275
      2 C          -2.4933   -0.4405   -1.2289 C.3     1  UNL1        0.1021
      3 O          -1.2427   -0.0881   -0.9967 O.3     1  UNL1       -0.4880
      4 C          -0.0654   -0.3952   -0.4438 C.ar    1  UNL1        0.1322
      5 C           1.0231    0.4977   -0.5484 C.ar    1  UNL1       -0.0100
      6 C           2.2540    0.2741   -0.0213 C.ar    1  UNL1        0.0064
      7 C           3.3482    1.2759   -0.1810 C.ar    1  UNL1        0.0788
      8 C           3.1235    2.4516   -0.8711 C.ar    1  UNL1        0.0035
      9 S           4.7548    3.2368   -0.7386 S.2     1  UNL1       -0.0744
     10 C           5.4731    1.8704    0.2158 C.ar    1  UNL1        0.1443
     11 C           6.9217    1.9688    0.6469 C.3     1  UNL1        0.2869
     12 F           7.5343    0.8417    0.1375 F       1  UNL1       -0.2017
     13 F           6.9614    1.9145    2.0469 F       1  UNL1       -0.2017
     14 N           4.5506    1.1164    0.3030 N.ar    1  UNL1       -0.2383
     15 C           2.4569   -0.9036    0.6626 C.ar    1  UNL1       -0.0246
     16 C           1.4578   -1.8276    0.8133 C.ar    1  UNL1        0.0968
     17 N           1.3846   -3.0439    1.4254 N.ar    1  UNL1       -0.1713
     18 N           0.1892   -3.5501    1.2920 N.ar    1  UNL1       -0.2732
     19 C          -0.3060   -4.8218    1.7925 C.3     1  UNL1        0.0302
     20 C          -0.5404   -2.6629    0.5847 C.ar    1  UNL1        0.0364
     21 C           0.2270   -1.5658    0.2662 C.ar    1  UNL1        0.0614
     22 C          -3.5513    0.5283   -0.6572 C.3     1  UNL1        0.0195
     23 C          -3.4330    0.6633    0.8248 C.3     1  UNL1        0.0182
     24 N          -3.6836    2.0661    1.0789 N.am    1  UNL1       -0.3149
     25 C          -3.7762    2.7859   -0.1391 C.2     1  UNL1        0.2135
     26 O          -4.0979    4.0026   -0.2073 O.2     1  UNL1       -0.2758
     27 C          -3.4394    1.8840   -1.2715 C.3     1  UNL1        0.0315
     28 H          -3.8855   -0.6267   -2.8493 H       1  UNL1        0.0265
     29 H          -2.5884    0.5853   -3.1388 H       1  UNL1        0.0265
     30 H          -2.1768   -1.1442   -3.2816 H       1  UNL1        0.0265
     31 H          -2.8448   -1.4240   -0.8312 H       1  UNL1        0.0733
     32 H           0.8187    1.4241   -1.1013 H       1  UNL1        0.0661
     33 H           2.2489    2.8711   -1.3821 H       1  UNL1        0.0715
     34 H           7.3711    2.8995    0.3097 H       1  UNL1        0.1093
     35 H           3.4275   -1.1114    1.0947 H       1  UNL1        0.0646
     36 H          -1.0091   -4.6581    2.6608 H       1  UNL1        0.0473
     37 H           0.5355   -5.4651    2.0557 H       1  UNL1        0.0473
     38 H          -0.9557   -5.2467    0.9794 H       1  UNL1        0.0473
     39 H          -1.5547   -2.8361    0.3374 H       1  UNL1        0.0833
     40 H          -4.5294    0.0656   -0.8954 H       1  UNL1        0.0356
     41 H          -2.4504    0.3388    1.2126 H       1  UNL1        0.0466
     42 H          -4.1961    0.0531    1.3649 H       1  UNL1        0.0466
     43 H          -3.7838    2.4959    2.0380 H       1  UNL1        0.1487
     44 H          -2.4292    2.1112   -1.6576 H       1  UNL1        0.0363
     45 H          -4.2289    2.0146   -2.0649 H       1  UNL1        0.0363
@<TRIPOS>BOND
     1     1     2    1
     2     2     3    1
     3     3     4    1
     4     4     5   ar
     5     5     6   ar
     6     6     7    1
     7     7     8   ar
     8     8     9   ar
     9     9    10   ar
    10    10    11    1
    11    11    12    1
    12    11    13    1
    13    10    14   ar
    14     6    15   ar
    15    15    16   ar
    16    16    17   ar
    17    17    18   ar
    18    18    19    1
    19    18    20   ar
    20    20    21   ar
    21     2    22    1
    22    22    23    1
    23    23    24    1
    24    24    25   am
    25    25    26    2
    26    25    27    1
    27    21     4   ar
    28    27    22    1
    29    14     7   ar
    30    21    16   ar
    31     1    28    1
    32     1    29    1
    33     1    30    1
    34     2    31    1
    35     5    32    1
    36     8    33    1
    37    11    34    1
    38    15    35    1
    39    19    36    1
    40    19    37    1
    41    19    38    1
    42    20    39    1
    43    22    40    1
    44    23    41    1
    45    23    42    1
    46    24    43    1
    47    27    44    1
    48    27    45    1
