@<TRIPOS>MOLECULE
*****
 75 79 0 0 0
SMALL
GASTEIGER

@<TRIPOS>ATOM
      1 C           2.1354   -3.2825   -1.4989 C.3     1  UNL1       -0.0416
      2 C           1.2807   -3.8890   -0.4318 C.3     1  UNL1        0.0453
      3 O           0.8895   -3.0065    0.5626 O.3     1  UNL1       -0.3737
      4 C           0.1567   -1.9891    0.0111 C.3     1  UNL1        0.0908
      5 C          -1.2302   -1.8753    0.6687 C.3     1  UNL1        0.0273
      6 N          -1.6856   -0.6381    0.1414 N.3     1  UNL1       -0.2951
      7 C          -2.3682   -0.7827   -1.1180 C.3     1  UNL1        0.0108
      8 C          -3.5784   -1.6557   -1.0043 C.3     1  UNL1       -0.0344
      9 C          -4.6301   -1.0273   -0.0756 C.3     1  UNL1       -0.0184
     10 C          -5.0710    0.2324   -0.7640 C.3     1  UNL1        0.0912
     11 O          -5.2927   -0.1124   -2.1182 O.3     1  UNL1       -0.3840
     12 C          -6.2945    0.8089   -0.2518 C.ar    1  UNL1       -0.0124
     13 C          -6.8019    1.9609   -0.7942 C.ar    1  UNL1       -0.0522
     14 C          -7.9811    2.5313   -0.3128 C.ar    1  UNL1       -0.0158
     15 C          -8.6593    1.9374    0.7265 C.ar    1  UNL1        0.1662
     16 C          -8.1628    0.7796    1.2824 C.ar    1  UNL1        0.1666
     17 C          -6.9770    0.2271    0.7808 C.ar    1  UNL1       -0.0102
     18 O          -9.0498    0.4277    2.2902 O.3     1  UNL1       -0.4526
     19 C         -10.2388    1.1878    2.2057 C.3     1  UNL1        0.2332
     20 O          -9.8359    2.2772    1.3964 O.3     1  UNL1       -0.4526
     21 C          -3.8909    1.1773   -0.7726 C.3     1  UNL1       -0.0184
     22 C          -2.8341    0.5349   -1.6833 C.3     1  UNL1       -0.0344
     23 C          -0.5518    0.2359    0.0811 C.3     1  UNL1        0.0202
     24 C           0.6863   -0.6067    0.3326 C.3     1  UNL1        0.0632
     25 N           1.7296   -0.3167   -0.6209 N.am    1  UNL1       -0.3074
     26 C           3.0371    0.0014   -0.1398 C.2     1  UNL1        0.2305
     27 O           3.2139    0.0124    1.0984 O.2     1  UNL1       -0.2741
     28 C           4.1591    0.3106   -1.0584 C.3     1  UNL1        0.0884
     29 N           5.3330    0.5854   -0.2587 N.am    1  UNL1       -0.3028
     30 C           6.5899    0.9196   -0.8387 C.2     1  UNL1        0.2445
     31 O           6.6199    0.9625   -2.0988 O.2     1  UNL1       -0.2702
     32 C           7.7837    1.2002   -0.0685 C.ar    1  UNL1        0.0372
     33 C           8.9649    1.5185   -0.7360 C.ar    1  UNL1       -0.0496
     34 C          10.1251    1.7933   -0.0699 C.ar    1  UNL1       -0.0605
     35 C          10.1751    1.7662    1.3171 C.ar    1  UNL1       -0.0501
     36 C           9.0158    1.4534    1.9817 C.ar    1  UNL1        0.0555
     37 C           9.0680    1.4240    3.4655 C.3     1  UNL1        0.4174
     38 F           9.3292    2.7221    3.9223 F       1  UNL1       -0.1659
     39 F          10.1043    0.6424    3.9252 F       1  UNL1       -0.1659
     40 F           7.8427    1.0408    3.9430 F       1  UNL1       -0.1659
     41 C           7.8380    1.1750    1.2890 C.ar    1  UNL1       -0.0380
     42 H           1.6135   -2.6525   -2.2193 H       1  UNL1        0.0252
     43 H           2.6228   -4.0992   -2.1054 H       1  UNL1        0.0252
     44 H           3.0133   -2.7643   -1.0223 H       1  UNL1        0.0252
     45 H           1.8621   -4.7487    0.0133 H       1  UNL1        0.0557
     46 H           0.4075   -4.3641   -0.9391 H       1  UNL1        0.0557
     47 H           0.0249   -2.0676   -1.0979 H       1  UNL1        0.0628
     48 H          -1.0170   -1.7808    1.7601 H       1  UNL1        0.0453
     49 H          -1.7661   -2.7746    0.4014 H       1  UNL1        0.0453
     50 H          -1.6824   -1.2329   -1.8377 H       1  UNL1        0.0462
     51 H          -3.4046   -2.7050   -0.7950 H       1  UNL1        0.0281
     52 H          -4.0770   -1.6283   -2.0206 H       1  UNL1        0.0281
     53 H          -5.4364   -1.7851   -0.0029 H       1  UNL1        0.0297
     54 H          -4.1832   -0.7955    0.9134 H       1  UNL1        0.0297
     55 H          -6.1797   -0.4772   -2.2693 H       1  UNL1        0.2106
     56 H          -6.3095    2.4494   -1.5963 H       1  UNL1        0.0622
     57 H          -8.3851    3.4399   -0.7372 H       1  UNL1        0.0655
     58 H          -6.6201   -0.6639    1.2292 H       1  UNL1        0.0659
     59 H         -11.0628    0.6332    1.7178 H       1  UNL1        0.1166
     60 H         -10.5388    1.5377    3.2302 H       1  UNL1        0.1166
     61 H          -4.1237    2.1514   -1.2506 H       1  UNL1        0.0297
     62 H          -3.5051    1.3492    0.2309 H       1  UNL1        0.0297
     63 H          -2.0470    1.2266   -1.9652 H       1  UNL1        0.0281
     64 H          -3.3968    0.2861   -2.6253 H       1  UNL1        0.0281
     65 H          -0.6171    1.0505    0.8535 H       1  UNL1        0.0446
     66 H          -0.3977    0.7377   -0.8754 H       1  UNL1        0.0446
     67 H           1.0486   -0.5374    1.3678 H       1  UNL1        0.0537
     68 H           1.5905   -0.3241   -1.6375 H       1  UNL1        0.1492
     69 H           4.4142   -0.5515   -1.7085 H       1  UNL1        0.0558
     70 H           3.9170    1.1473   -1.7456 H       1  UNL1        0.0558
     71 H           5.2925    0.5465    0.7735 H       1  UNL1        0.1495
     72 H           8.9451    1.5443   -1.8119 H       1  UNL1        0.0625
     73 H          10.9976    2.0307   -0.6427 H       1  UNL1        0.0618
     74 H          11.0931    1.9837    1.8434 H       1  UNL1        0.0623
     75 H           6.9632    0.9369    1.8647 H       1  UNL1        0.0631
@<TRIPOS>BOND
     1     1     2    1
     2     2     3    1
     3     3     4    1
     4     4     5    1
     5     5     6    1
     6     6     7    1
     7     7     8    1
     8     8     9    1
     9     9    10    1
    10    10    11    1
    11    10    12    1
    12    12    13   ar
    13    13    14   ar
    14    14    15   ar
    15    15    16   ar
    16    16    17   ar
    17    16    18    1
    18    18    19    1
    19    19    20    1
    20    10    21    1
    21    21    22    1
    22     6    23    1
    23    23    24    1
    24    24    25    1
    25    25    26   am
    26    26    27    2
    27    26    28    1
    28    28    29    1
    29    29    30   am
    30    30    31    2
    31    30    32    1
    32    32    33   ar
    33    33    34   ar
    34    34    35   ar
    35    35    36   ar
    36    36    37    1
    37    37    38    1
    38    37    39    1
    39    37    40    1
    40    36    41   ar
    41    24     4    1
    42    41    32   ar
    43    22     7    1
    44    17    12   ar
    45    20    15    1
    46     1    42    1
    47     1    43    1
    48     1    44    1
    49     2    45    1
    50     2    46    1
    51     4    47    1
    52     5    48    1
    53     5    49    1
    54     7    50    1
    55     8    51    1
    56     8    52    1
    57     9    53    1
    58     9    54    1
    59    11    55    1
    60    13    56    1
    61    14    57    1
    62    17    58    1
    63    19    59    1
    64    19    60    1
    65    21    61    1
    66    21    62    1
    67    22    63    1
    68    22    64    1
    69    23    65    1
    70    23    66    1
    71    24    67    1
    72    25    68    1
    73    28    69    1
    74    28    70    1
    75    29    71    1
    76    33    72    1
    77    34    73    1
    78    35    74    1
    79    41    75    1
