@<TRIPOS>MOLECULE
*****
 27 29 0 0 0
SMALL
GASTEIGER

@<TRIPOS>ATOM
      1 O          -2.4364   -2.8979   -0.7344 O.2     1  UNL1       -0.2701
      2 C          -2.5245   -1.6717   -0.4942 C.2     1  UNL1        0.2458
      3 N          -3.7568   -0.9663   -0.4208 N.am    1  UNL1       -0.3109
      4 C          -3.8951    0.3561    0.0940 C.3     1  UNL1        0.0172
      5 C          -2.6865    1.1912    0.0687 C.3     1  UNL1        0.0038
      6 C          -1.4163    0.4342   -0.0125 C.ar    1  UNL1        0.0301
      7 N          -0.1691    0.9464    0.1585 N.ar    1  UNL1       -0.3573
      8 C           0.7107   -0.0486    0.0081 C.ar    1  UNL1        0.0475
      9 C           2.1746    0.0582    0.1101 C.ar    1  UNL1        0.0012
     10 C           2.7947    1.2553    0.3835 C.ar    1  UNL1       -0.0345
     11 C           4.1652    1.3665    0.4812 C.ar    1  UNL1        0.0282
     12 N           4.9340    0.2619    0.3028 N.ar    1  UNL1       -0.2632
     13 C           4.3638   -0.9258    0.0340 C.ar    1  UNL1        0.0282
     14 C           2.9834   -1.0399   -0.0648 C.ar    1  UNL1       -0.0345
     15 C           0.0453   -1.2102   -0.2607 C.ar    1  UNL1       -0.0240
     16 C          -1.3070   -0.8928   -0.2717 C.ar    1  UNL1        0.0578
     17 H          -4.6096   -1.4575   -0.7689 H       1  UNL1        0.1490
     18 H          -4.3545    0.2812    1.1196 H       1  UNL1        0.0466
     19 H          -4.6929    0.8714   -0.5172 H       1  UNL1        0.0466
     20 H          -2.6452    1.7833    1.0297 H       1  UNL1        0.0343
     21 H          -2.6972    1.9467   -0.7442 H       1  UNL1        0.0343
     22 H           0.1114    1.9298    0.3705 H       1  UNL1        0.1656
     23 H           2.2028    2.1463    0.5289 H       1  UNL1        0.0639
     24 H           4.6881    2.2824    0.6930 H       1  UNL1        0.0830
     25 H           5.0256   -1.7753   -0.0993 H       1  UNL1        0.0830
     26 H           2.5809   -2.0155   -0.2819 H       1  UNL1        0.0639
     27 H           0.4108   -2.2096   -0.4403 H       1  UNL1        0.0646
@<TRIPOS>BOND
     1     1     2    2
     2     2     3   am
     3     3     4    1
     4     4     5    1
     5     5     6    1
     6     6     7   ar
     7     7     8   ar
     8     8     9    1
     9     9    10   ar
    10    10    11   ar
    11    11    12   ar
    12    12    13   ar
    13    13    14   ar
    14     8    15   ar
    15    15    16   ar
    16    16     2    1
    17    16     6   ar
    18    14     9   ar
    19     3    17    1
    20     4    18    1
    21     4    19    1
    22     5    20    1
    23     5    21    1
    24     7    22    1
    25    10    23    1
    26    11    24    1
    27    13    25    1
    28    14    26    1
    29    15    27    1
