
     RDKit          3D

 27 29  0  0  0  0  0  0  0  0999 V2000
   -2.4364   -2.8979   -0.7344 O   0  0  0  0  0  0  0  0  0  0  0  0
   -2.5245   -1.6717   -0.4942 C   0  0  0  0  0  0  0  0  0  0  0  0
   -3.7568   -0.9663   -0.4208 N   0  0  0  0  0  0  0  0  0  0  0  0
   -3.8951    0.3561    0.0940 C   0  0  0  0  0  0  0  0  0  0  0  0
   -2.6865    1.1912    0.0687 C   0  0  0  0  0  0  0  0  0  0  0  0
   -1.4163    0.4342   -0.0125 C   0  0  0  0  0  0  0  0  0  0  0  0
   -0.1691    0.9464    0.1585 N   0  0  0  0  0  0  0  0  0  0  0  0
    0.7107   -0.0486    0.0081 C   0  0  0  0  0  0  0  0  0  0  0  0
    2.1746    0.0582    0.1101 C   0  0  0  0  0  0  0  0  0  0  0  0
    2.7947    1.2553    0.3835 C   0  0  0  0  0  0  0  0  0  0  0  0
    4.1652    1.3665    0.4812 C   0  0  0  0  0  0  0  0  0  0  0  0
    4.9340    0.2619    0.3028 N   0  0  0  0  0  0  0  0  0  0  0  0
    4.3638   -0.9258    0.0340 C   0  0  0  0  0  0  0  0  0  0  0  0
    2.9834   -1.0399   -0.0648 C   0  0  0  0  0  0  0  0  0  0  0  0
    0.0453   -1.2102   -0.2607 C   0  0  0  0  0  0  0  0  0  0  0  0
   -1.3070   -0.8928   -0.2717 C   0  0  0  0  0  0  0  0  0  0  0  0
   -4.6096   -1.4575   -0.7689 H   0  0  0  0  0  0  0  0  0  0  0  0
   -4.3545    0.2812    1.1196 H   0  0  0  0  0  0  0  0  0  0  0  0
   -4.6929    0.8714   -0.5172 H   0  0  0  0  0  0  0  0  0  0  0  0
   -2.6452    1.7833    1.0297 H   0  0  0  0  0  0  0  0  0  0  0  0
   -2.6972    1.9467   -0.7442 H   0  0  0  0  0  0  0  0  0  0  0  0
    0.1114    1.9298    0.3705 H   0  0  0  0  0  0  0  0  0  0  0  0
    2.2028    2.1463    0.5289 H   0  0  0  0  0  0  0  0  0  0  0  0
    4.6881    2.2824    0.6930 H   0  0  0  0  0  0  0  0  0  0  0  0
    5.0256   -1.7753   -0.0993 H   0  0  0  0  0  0  0  0  0  0  0  0
    2.5809   -2.0155   -0.2819 H   0  0  0  0  0  0  0  0  0  0  0  0
    0.4108   -2.2096   -0.4403 H   0  0  0  0  0  0  0  0  0  0  0  0
  1  2  2  0
  2  3  1  0
  3  4  1  0
  4  5  1  0
  5  6  1  0
  6  7  1  0
  7  8  1  0
  8  9  1  0
  9 10  2  0
 10 11  1  0
 11 12  2  0
 12 13  1  0
 13 14  2  0
  8 15  2  0
 15 16  1  0
 16  2  1  0
 16  6  2  0
 14  9  1  0
  3 17  1  0
  4 18  1  0
  4 19  1  0
  5 20  1  0
  5 21  1  0
  7 22  1  0
 10 23  1  0
 11 24  1  0
 13 25  1  0
 14 26  1  0
 15 27  1  0
M  END
$$$$
