@<TRIPOS>MOLECULE
*****
 25 25 0 0 0
SMALL
GASTEIGER

@<TRIPOS>ATOM
      1 C           0.8590    0.6004    0.3792 C.3     1  UNL1        0.1227
      2 C           1.7460   -0.5956    0.3762 C.3     1  UNL1       -0.0239
      3 C           1.1015   -1.8775    0.7619 C.3     1  UNL1       -0.0494
      4 C          -0.1721   -2.1880    0.0515 C.3     1  UNL1       -0.0371
      5 C          -0.9955   -1.0460   -0.3626 C.3     1  UNL1        0.0155
      6 N          -0.4787    0.2567   -0.0429 N.am    1  UNL1       -0.2882
      7 C          -1.3862    1.3490   -0.1518 C.2     1  UNL1        0.2131
      8 C          -2.8097    1.2939   -0.5594 C.3     1  UNL1        0.0124
      9 O          -1.1089    2.5435    0.0861 O.2     1  UNL1       -0.2759
     10 C           1.4715    1.5771   -0.5900 C.2     1  UNL1        0.3255
     11 O           2.7622    2.0187   -0.3386 O.3     1  UNL1       -0.4793
     12 O           0.8273    1.9890   -1.6129 O.2     1  UNL1       -0.2489
     13 H           0.8056    1.0300    1.3931 H       1  UNL1        0.0616
     14 H           2.2733   -0.6919   -0.5993 H       1  UNL1        0.0288
     15 H           2.5503   -0.3935    1.1330 H       1  UNL1        0.0288
     16 H           1.8441   -2.6837    0.5871 H       1  UNL1        0.0266
     17 H           0.9277   -1.8508    1.8625 H       1  UNL1        0.0266
     18 H          -0.7472   -2.8659    0.7249 H       1  UNL1        0.0280
     19 H           0.0746   -2.8402   -0.8366 H       1  UNL1        0.0280
     20 H          -1.2166   -1.0578   -1.4543 H       1  UNL1        0.0465
     21 H          -2.0121   -1.0961    0.1303 H       1  UNL1        0.0465
     22 H          -2.9226    1.9054   -1.4895 H       1  UNL1        0.0323
     23 H          -3.1785    0.2954   -0.7995 H       1  UNL1        0.0323
     24 H          -3.4754    1.7299    0.2173 H       1  UNL1        0.0323
     25 H           3.2603    2.5979   -1.0275 H       1  UNL1        0.2951
@<TRIPOS>BOND
     1     1     2    1
     2     2     3    1
     3     3     4    1
     4     4     5    1
     5     5     6    1
     6     6     7   am
     7     7     8    1
     8     7     9    2
     9     1    10    1
    10    10    11    1
    11    10    12    2
    12     6     1    1
    13     1    13    1
    14     2    14    1
    15     2    15    1
    16     3    16    1
    17     3    17    1
    18     4    18    1
    19     4    19    1
    20     5    20    1
    21     5    21    1
    22     8    22    1
    23     8    23    1
    24     8    24    1
    25    11    25    1
