@<TRIPOS>MOLECULE
*****
 32 34 0 0 0
SMALL
GASTEIGER

@<TRIPOS>ATOM
      1 N6          5.2678   -0.1293    0.1277 N.pl3   1    A1       -0.3413
      2 C6          3.9955    0.3608   -0.2305 C.ar    1    A1        0.1472
      3 N1          3.7721    1.5690   -0.7768 N.ar    1    A1       -0.2188
      4 C2          2.5295    1.9877   -1.1008 C.ar    1    A1        0.1205
      5 N3          1.4349    1.2003   -0.8880 N.ar    1    A1       -0.2159
      6 C4          1.6264   -0.0033   -0.3473 C.ar    1    A1        0.1674
      7 C5          2.8950   -0.4451   -0.0105 C.ar    1    A1        0.1473
      8 N7          2.7624   -1.6740    0.5037 N.ar    1    A1       -0.2306
      9 C8          1.4590   -1.9767    0.4835 C.ar    1    A1        0.1004
     10 N9          0.7407   -0.9697   -0.0333 N.ar    1    A1       -0.2855
     11 C1*        -0.6745   -0.9841   -0.1906 C.3     1    A1        0.1667
     12 O4*        -1.1758    0.0905   -0.8893 O.3     1    A1       -0.3457
     13 C4*        -2.5337    0.0599   -0.7185 C.3     1    A1        0.1126
     14 C5*        -3.1335    1.4624   -0.6317 C.3     1    A1        0.0730
     15 O5*        -2.8572    2.1713   -1.8222 O.3     1    A1       -0.3924
     16 C3*        -2.8305   -0.6292    0.5886 C.3     1    A1        0.1135
     17 O3*        -3.3744   -1.8962    0.3972 O.3     1    A1       -0.3864
     18 C2*        -1.4118   -0.8410    1.1358 C.3     1    A1        0.1285
     19 O2*        -1.0726    0.3143    1.8050 O.3     1    A1       -0.3847
     20 H61         5.9909   -0.2575   -0.5971 H       1    A1        0.1438
     21 H62         5.4821   -0.3613    1.1102 H       1    A1        0.1438
     22 H2          2.4484    2.9751   -1.5355 H       1    A1        0.1048
     23 H8          1.0701   -2.9189    0.8445 H       1    A1        0.1030
     24 H1*        -1.0677   -1.9050   -0.6596 H       1    A1        0.0866
     25 H4*        -3.0600   -0.4507   -1.5539 H       1    A1        0.0647
     26 H5*1       -4.2397    1.4149   -0.5752 H       1    A1        0.0584
     27 H5*2       -2.6787    2.0503    0.1921 H       1    A1        0.0584
     28 H5*        -3.1272    3.1202   -1.6110 H       1    A1        0.2095
     29 H3*        -3.3949   -0.0130    1.2856 H       1    A1        0.0647
     30 H3*        -2.7380   -2.6275    0.6193 H       1    A1        0.2100
     31 H2*        -1.3403   -1.7350    1.7522 H       1    A1        0.0665
     32 H2*        -0.7642    1.0409    1.2406 H       1    A1        0.2101
@<TRIPOS>BOND
     1     1     2    1
     2     2     3   ar
     3     3     4   ar
     4     4     5   ar
     5     5     6   ar
     6     6     7   ar
     7     7     8   ar
     8     8     9   ar
     9     9    10   ar
    10    10    11    1
    11    11    12    1
    12    12    13    1
    13    13    14    1
    14    14    15    1
    15    13    16    1
    16    16    17    1
    17    16    18    1
    18    18    19    1
    19     7     2   ar
    20    18    11    1
    21    10     6   ar
    22     1    20    1
    23     1    21    1
    24     4    22    1
    25     9    23    1
    26    11    24    1
    27    13    25    1
    28    14    26    1
    29    14    27    1
    30    15    28    1
    31    16    29    1
    32    17    30    1
    33    18    31    1
    34    19    32    1
